MODEL 1
REMARK VINA RESULT:      -5.3      0.000      0.000
REMARK  8 active torsions:
REMARK  status: ('A' for Active; 'I' for Inactive)
REMARK       I    between atoms: C_2  and  N_3 
REMARK    1  A    between atoms: C_2  and  C_18 
REMARK    2  A    between atoms: N_3  and  C_14 
REMARK    3  A    between atoms: Se_6  and  C_20 
REMARK    4  A    between atoms: C_9  and  C_18 
REMARK    5  A    between atoms: C_9  and  C_13 
REMARK    6  A    between atoms: N_11  and  C_18 
REMARK    7  A    between atoms: C_14  and  C_20 
REMARK    8  A    between atoms: C_14  and  C_17 
ROOT
HETATM    1  C           1     -26.248  -6.399 -18.534  0.00  0.00     0.249 C 
HETATM    2  N           1     -27.524  -6.525 -19.014  0.00  0.00    -0.345 N 
HETATM    3  H           1     -27.679  -6.731 -19.992  0.00  0.00     0.163 HD
HETATM    4  O           1     -26.062  -6.154 -17.366  0.00  0.00    -0.271 OA
ENDROOT
BRANCH   1   5
HETATM    5  C           1     -25.073  -6.567 -19.465  0.00  0.00     0.284 C 
BRANCH   5   6
HETATM    6  C           1     -25.558  -6.518 -20.909  0.00  0.00     0.155 C 
BRANCH   6   7
HETATM    7  C           1     -25.551  -7.911 -21.489  0.00  0.00     0.175 C 
HETATM    8  O           1     -26.538  -8.661 -21.328  0.00  0.00    -0.648 OA
HETATM    9  O           1     -24.557  -8.315 -22.131  0.00  0.00    -0.648 OA
ENDBRANCH   6   7
ENDBRANCH   5   6
BRANCH   5  10
HETATM   10  N           1     -24.413  -7.888 -19.205  0.00  0.00    -0.066 N 
HETATM   11  H           1     -23.376  -7.762 -19.189  0.00  0.00     0.275 HD
HETATM   12  H           1     -24.672  -8.561 -19.962  0.00  0.00     0.275 HD
HETATM   13  H           1     -24.733  -8.262 -18.282  0.00  0.00     0.275 HD
ENDBRANCH   5  10
ENDBRANCH   1   5
BRANCH   2  14
HETATM   14  C           1     -28.653  -6.364 -18.119  0.00  0.00     0.185 C 
BRANCH  14  15
HETATM   15  C           1     -29.322  -5.021 -18.384  0.00  0.00     0.039 C 
BRANCH  15  16
HETATM   16 Se           1     -28.688  -3.710 -17.087  0.00  0.00     0.000 Se
HETATM   17  H           1     -28.986  -2.550 -17.942  0.00  0.00     0.000 HD
ENDBRANCH  15  16
ENDBRANCH  14  15
BRANCH  14  18
HETATM   18  C           1     -29.646  -7.475 -18.356  0.00  0.00     0.196 C 
HETATM   19  O           1     -29.369  -8.402 -19.147  0.00  0.00    -0.646 OA
HETATM   20  O           1     -30.745  -7.469 -17.761  0.00  0.00    -0.646 OA
ENDBRANCH  14  18
ENDBRANCH   2  14
TORSDOF 8
ENDMDL
MODEL 2
REMARK VINA RESULT:      -5.2     11.597     13.249
REMARK  8 active torsions:
REMARK  status: ('A' for Active; 'I' for Inactive)
REMARK       I    between atoms: C_2  and  N_3 
REMARK    1  A    between atoms: C_2  and  C_18 
REMARK    2  A    between atoms: N_3  and  C_14 
REMARK    3  A    between atoms: Se_6  and  C_20 
REMARK    4  A    between atoms: C_9  and  C_18 
REMARK    5  A    between atoms: C_9  and  C_13 
REMARK    6  A    between atoms: N_11  and  C_18 
REMARK    7  A    between atoms: C_14  and  C_20 
REMARK    8  A    between atoms: C_14  and  C_17 
ROOT
HETATM    1  C           1     -21.765  -4.452  -7.716  0.00  0.00     0.249 C 
HETATM    2  N           1     -22.323  -4.682  -8.944  0.00  0.00    -0.345 N 
HETATM    3  H           1     -22.360  -5.622  -9.315  0.00  0.00     0.163 HD
HETATM    4  O           1     -21.722  -3.330  -7.271  0.00  0.00    -0.271 OA
ENDROOT
BRANCH   1   5
HETATM    5  C           1     -21.203  -5.602  -6.916  0.00  0.00     0.284 C 
BRANCH   5   6
HETATM    6  C           1     -20.854  -5.123  -5.512  0.00  0.00     0.155 C 
BRANCH   6   7
HETATM    7  C           1     -21.143  -6.221  -4.519  0.00  0.00     0.175 C 
HETATM    8  O           1     -21.972  -6.034  -3.603  0.00  0.00    -0.648 OA
HETATM    9  O           1     -20.551  -7.318  -4.613  0.00  0.00    -0.648 OA
ENDBRANCH   6   7
ENDBRANCH   5   6
BRANCH   5  10
HETATM   10  N           1     -19.966  -6.121  -7.588  0.00  0.00    -0.066 N 
HETATM   11  H           1     -20.236  -6.779  -8.353  0.00  0.00     0.275 HD
HETATM   12  H           1     -19.375  -6.623  -6.886  0.00  0.00     0.275 HD
HETATM   13  H           1     -19.426  -5.321  -7.990  0.00  0.00     0.275 HD
ENDBRANCH   5  10
ENDBRANCH   1   5
BRANCH   2  14
HETATM   14  C           1     -22.863  -3.577  -9.712  0.00  0.00     0.185 C 
BRANCH  14  15
HETATM   15  C           1     -21.998  -3.345 -10.944  0.00  0.00     0.039 C 
BRANCH  15  16
HETATM   16 Se           1     -20.367  -4.403 -10.803  0.00  0.00     0.000 Se
HETATM   17  H           1     -20.820  -5.439 -11.745  0.00  0.00     0.000 HD
ENDBRANCH  15  16
ENDBRANCH  14  15
BRANCH  14  18
HETATM   18  C           1     -24.273  -3.903 -10.141  0.00  0.00     0.196 C 
HETATM   19  O           1     -24.796  -4.984  -9.796  0.00  0.00    -0.646 OA
HETATM   20  O           1     -24.916  -3.092 -10.842  0.00  0.00    -0.646 OA
ENDBRANCH  14  18
ENDBRANCH   2  14
TORSDOF 8
ENDMDL
MODEL 3
REMARK VINA RESULT:      -4.9     11.822     13.417
REMARK  8 active torsions:
REMARK  status: ('A' for Active; 'I' for Inactive)
REMARK       I    between atoms: C_2  and  N_3 
REMARK    1  A    between atoms: C_2  and  C_18 
REMARK    2  A    between atoms: N_3  and  C_14 
REMARK    3  A    between atoms: Se_6  and  C_20 
REMARK    4  A    between atoms: C_9  and  C_18 
REMARK    5  A    between atoms: C_9  and  C_13 
REMARK    6  A    between atoms: N_11  and  C_18 
REMARK    7  A    between atoms: C_14  and  C_20 
REMARK    8  A    between atoms: C_14  and  C_17 
ROOT
HETATM    1  C           1     -21.782  -4.116  -7.617  0.00  0.00     0.249 C 
HETATM    2  N           1     -22.219  -5.248  -6.984  0.00  0.00    -0.345 N 
HETATM    3  H           1     -23.054  -5.719  -7.308  0.00  0.00     0.163 HD
HETATM    4  O           1     -20.785  -3.554  -7.232  0.00  0.00    -0.271 OA
ENDROOT
BRANCH   1   5
HETATM    5  C           1     -22.545  -3.571  -8.799  0.00  0.00     0.284 C 
BRANCH   5   6
HETATM    6  C           1     -23.866  -4.318  -8.940  0.00  0.00     0.155 C 
BRANCH   6   7
HETATM    7  C           1     -24.672  -3.709 -10.059  0.00  0.00     0.175 C 
HETATM    8  O           1     -25.656  -2.983  -9.798  0.00  0.00    -0.648 OA
HETATM    9  O           1     -24.357  -3.931 -11.248  0.00  0.00    -0.648 OA
ENDBRANCH   6   7
ENDBRANCH   5   6
BRANCH   5  10
HETATM   10  N           1     -21.733  -3.754 -10.047  0.00  0.00    -0.066 N 
HETATM   11  H           1     -20.843  -4.250  -9.813  0.00  0.00     0.275 HD
HETATM   12  H           1     -21.514  -2.819 -10.459  0.00  0.00     0.275 HD
HETATM   13  H           1     -22.277  -4.321 -10.737  0.00  0.00     0.275 HD
ENDBRANCH   5  10
ENDBRANCH   1   5
BRANCH   2  14
HETATM   14  C           1     -21.486  -5.772  -5.849  0.00  0.00     0.185 C 
BRANCH  14  15
HETATM   15  C           1     -22.468  -6.278  -4.800  0.00  0.00     0.039 C 
BRANCH  15  16
HETATM   16 Se           1     -21.593  -6.330  -3.059  0.00  0.00     0.000 Se
HETATM   17  H           1     -21.281  -7.766  -3.130  0.00  0.00     0.000 HD
ENDBRANCH  15  16
ENDBRANCH  14  15
BRANCH  14  18
HETATM   18  C           1     -20.603  -6.909  -6.301  0.00  0.00     0.196 C 
HETATM   19  O           1     -20.937  -8.090  -6.067  0.00  0.00    -0.646 OA
HETATM   20  O           1     -19.538  -6.670  -6.910  0.00  0.00    -0.646 OA
ENDBRANCH  14  18
ENDBRANCH   2  14
TORSDOF 8
ENDMDL
MODEL 4
REMARK VINA RESULT:      -4.9     19.771     21.258
REMARK  8 active torsions:
REMARK  status: ('A' for Active; 'I' for Inactive)
REMARK       I    between atoms: C_2  and  N_3 
REMARK    1  A    between atoms: C_2  and  C_18 
REMARK    2  A    between atoms: N_3  and  C_14 
REMARK    3  A    between atoms: Se_6  and  C_20 
REMARK    4  A    between atoms: C_9  and  C_18 
REMARK    5  A    between atoms: C_9  and  C_13 
REMARK    6  A    between atoms: N_11  and  C_18 
REMARK    7  A    between atoms: C_14  and  C_20 
REMARK    8  A    between atoms: C_14  and  C_17 
ROOT
HETATM    1  C           1     -12.266   8.011 -19.856  0.00  0.00     0.249 C 
HETATM    2  N           1     -12.033   6.939 -20.675  0.00  0.00    -0.345 N 
HETATM    3  H           1     -11.229   6.936 -21.289  0.00  0.00     0.163 HD
HETATM    4  O           1     -13.225   8.015 -19.122  0.00  0.00    -0.271 OA
ENDROOT
BRANCH   1   5
HETATM    5  C           1     -11.322   9.187 -19.868  0.00  0.00     0.284 C 
BRANCH   5   6
HETATM    6  C           1     -10.651   9.286 -21.233  0.00  0.00     0.155 C 
BRANCH   6   7
HETATM    7  C           1      -9.214   8.839 -21.121  0.00  0.00     0.175 C 
HETATM    8  O           1      -8.949   7.643 -20.868  0.00  0.00    -0.648 OA
HETATM    9  O           1      -8.289   9.664 -21.281  0.00  0.00    -0.648 OA
ENDBRANCH   6   7
ENDBRANCH   5   6
BRANCH   5  10
HETATM   10  N           1     -10.275   9.000 -18.810  0.00  0.00    -0.066 N 
HETATM   11  H           1     -10.380   8.053 -18.381  0.00  0.00     0.275 HD
HETATM   12  H           1     -10.391   9.733 -18.074  0.00  0.00     0.275 HD
HETATM   13  H           1      -9.326   9.085 -19.240  0.00  0.00     0.275 HD
ENDBRANCH   5  10
ENDBRANCH   1   5
BRANCH   2  14
HETATM   14  C           1     -12.941   5.808 -20.663  0.00  0.00     0.185 C 
BRANCH  14  15
HETATM   15  C           1     -13.230   5.375 -22.095  0.00  0.00     0.039 C 
BRANCH  15  16
HETATM   16 Se           1     -15.151   5.146 -22.330  0.00  0.00     0.000 Se
HETATM   17  H           1     -15.026   4.442 -23.617  0.00  0.00     0.000 HD
ENDBRANCH  15  16
ENDBRANCH  14  15
BRANCH  14  18
HETATM   18  C           1     -12.309   4.664 -19.909  0.00  0.00     0.196 C 
HETATM   19  O           1     -11.833   4.855 -18.770  0.00  0.00    -0.646 OA
HETATM   20  O           1     -12.261   3.526 -20.424  0.00  0.00    -0.646 OA
ENDBRANCH  14  18
ENDBRANCH   2  14
TORSDOF 8
ENDMDL
MODEL 5
REMARK VINA RESULT:      -4.6     13.915     15.374
REMARK  8 active torsions:
REMARK  status: ('A' for Active; 'I' for Inactive)
REMARK       I    between atoms: C_2  and  N_3 
REMARK    1  A    between atoms: C_2  and  C_18 
REMARK    2  A    between atoms: N_3  and  C_14 
REMARK    3  A    between atoms: Se_6  and  C_20 
REMARK    4  A    between atoms: C_9  and  C_18 
REMARK    5  A    between atoms: C_9  and  C_13 
REMARK    6  A    between atoms: N_11  and  C_18 
REMARK    7  A    between atoms: C_14  and  C_20 
REMARK    8  A    between atoms: C_14  and  C_17 
ROOT
HETATM    1  C           1     -21.374  -5.797  -5.656  0.00  0.00     0.249 C 
HETATM    2  N           1     -20.841  -6.715  -4.792  0.00  0.00    -0.345 N 
HETATM    3  H           1     -19.841  -6.870  -4.771  0.00  0.00     0.163 HD
HETATM    4  O           1     -22.567  -5.611  -5.681  0.00  0.00    -0.271 OA
ENDROOT
BRANCH   1   5
HETATM    5  C           1     -20.470  -5.016  -6.578  0.00  0.00     0.284 C 
BRANCH   5   6
HETATM    6  C           1     -21.272  -3.918  -7.266  0.00  0.00     0.155 C 
BRANCH   6   7
HETATM    7  C           1     -21.414  -4.241  -8.732  0.00  0.00     0.175 C 
HETATM    8  O           1     -20.546  -3.855  -9.545  0.00  0.00    -0.648 OA
HETATM    9  O           1     -22.400  -4.895  -9.134  0.00  0.00    -0.648 OA
ENDBRANCH   6   7
ENDBRANCH   5   6
BRANCH   5  10
HETATM   10  N           1     -19.895  -5.937  -7.613  0.00  0.00    -0.066 N 
HETATM   11  H           1     -19.801  -6.897  -7.211  0.00  0.00     0.275 HD
HETATM   12  H           1     -18.955  -5.586  -7.906  0.00  0.00     0.275 HD
HETATM   13  H           1     -20.530  -5.968  -8.443  0.00  0.00     0.275 HD
ENDBRANCH   5  10
ENDBRANCH   1   5
BRANCH   2  14
HETATM   14  C           1     -21.710  -7.466  -3.907  0.00  0.00     0.185 C 
BRANCH  14  15
HETATM   15  C           1     -21.267  -8.923  -3.876  0.00  0.00     0.039 C 
BRANCH  15  16
HETATM   16 Se           1     -19.508  -9.086  -4.700  0.00  0.00     0.000 Se
HETATM   17  H           1     -18.894  -8.040  -3.867  0.00  0.00     0.000 HD
ENDBRANCH  15  16
ENDBRANCH  14  15
BRANCH  14  18
HETATM   18  C           1     -21.632  -6.887  -2.515  0.00  0.00     0.196 C 
HETATM   19  O           1     -22.326  -5.893  -2.213  0.00  0.00    -0.646 OA
HETATM   20  O           1     -20.872  -7.401  -1.666  0.00  0.00    -0.646 OA
ENDBRANCH  14  18
ENDBRANCH   2  14
TORSDOF 8
ENDMDL
MODEL 6
REMARK VINA RESULT:      -4.6     19.243     20.880
REMARK  8 active torsions:
REMARK  status: ('A' for Active; 'I' for Inactive)
REMARK       I    between atoms: C_2  and  N_3 
REMARK    1  A    between atoms: C_2  and  C_18 
REMARK    2  A    between atoms: N_3  and  C_14 
REMARK    3  A    between atoms: Se_6  and  C_20 
REMARK    4  A    between atoms: C_9  and  C_18 
REMARK    5  A    between atoms: C_9  and  C_13 
REMARK    6  A    between atoms: N_11  and  C_18 
REMARK    7  A    between atoms: C_14  and  C_20 
REMARK    8  A    between atoms: C_14  and  C_17 
ROOT
HETATM    1  C           1     -10.941   5.693 -19.445  0.00  0.00     0.249 C 
HETATM    2  N           1     -11.158   6.751 -20.286  0.00  0.00    -0.345 N 
HETATM    3  H           1     -11.956   6.749 -20.908  0.00  0.00     0.163 HD
HETATM    4  O           1      -9.989   5.696 -18.702  0.00  0.00    -0.271 OA
ENDROOT
BRANCH   1   5
HETATM    5  C           1     -11.894   4.523 -19.446  0.00  0.00     0.284 C 
BRANCH   5   6
HETATM    6  C           1     -11.328   3.408 -20.318  0.00  0.00     0.155 C 
BRANCH   6   7
HETATM    7  C           1     -12.273   3.134 -21.461  0.00  0.00     0.175 C 
HETATM    8  O           1     -13.199   2.304 -21.323  0.00  0.00    -0.648 OA
HETATM    9  O           1     -12.130   3.735 -22.547  0.00  0.00    -0.648 OA
ENDBRANCH   6   7
ENDBRANCH   5   6
BRANCH   5  10
HETATM   10  N           1     -13.221   4.959 -19.993  0.00  0.00    -0.066 N 
HETATM   11  H           1     -13.954   4.851 -19.255  0.00  0.00     0.275 HD
HETATM   12  H           1     -13.467   4.367 -20.819  0.00  0.00     0.275 HD
HETATM   13  H           1     -13.166   5.960 -20.286  0.00  0.00     0.275 HD
ENDBRANCH   5  10
ENDBRANCH   1   5
BRANCH   2  14
HETATM   14  C           1     -10.243   7.876 -20.285  0.00  0.00     0.185 C 
BRANCH  14  15
HETATM   15  C           1     -10.178   8.478 -21.683  0.00  0.00     0.039 C 
BRANCH  15  16
HETATM   16 Se           1     -11.413   7.532 -22.858  0.00  0.00     0.000 Se
HETATM   17  H           1     -12.571   7.697 -21.965  0.00  0.00     0.000 HD
ENDBRANCH  15  16
ENDBRANCH  14  15
BRANCH  14  18
HETATM   18  C           1     -10.729   8.920 -19.310  0.00  0.00     0.196 C 
HETATM   19  O           1     -11.703   9.644 -19.605  0.00  0.00    -0.646 OA
HETATM   20  O           1     -10.156   9.060 -18.207  0.00  0.00    -0.646 OA
ENDBRANCH  14  18
ENDBRANCH   2  14
TORSDOF 8
ENDMDL
MODEL 7
REMARK VINA RESULT:      -4.6     19.940     21.430
REMARK  8 active torsions:
REMARK  status: ('A' for Active; 'I' for Inactive)
REMARK       I    between atoms: C_2  and  N_3 
REMARK    1  A    between atoms: C_2  and  C_18 
REMARK    2  A    between atoms: N_3  and  C_14 
REMARK    3  A    between atoms: Se_6  and  C_20 
REMARK    4  A    between atoms: C_9  and  C_18 
REMARK    5  A    between atoms: C_9  and  C_13 
REMARK    6  A    between atoms: N_11  and  C_18 
REMARK    7  A    between atoms: C_14  and  C_20 
REMARK    8  A    between atoms: C_14  and  C_17 
ROOT
HETATM    1  C           1     -10.070   7.596 -20.379  0.00  0.00     0.249 C 
HETATM    2  N           1     -11.403   7.906 -20.386  0.00  0.00    -0.345 N 
HETATM    3  H           1     -12.094   7.169 -20.451  0.00  0.00     0.163 HD
HETATM    4  O           1      -9.245   8.474 -20.301  0.00  0.00    -0.271 OA
ENDROOT
BRANCH   1   5
HETATM    5  C           1      -9.631   6.155 -20.469  0.00  0.00     0.284 C 
BRANCH   5   6
HETATM    6  C           1     -10.772   5.309 -21.022  0.00  0.00     0.155 C 
BRANCH   6   7
HETATM    7  C           1     -11.362   4.474 -19.913  0.00  0.00     0.175 C 
HETATM    8  O           1     -11.147   3.243 -19.875  0.00  0.00    -0.648 OA
HETATM    9  O           1     -12.068   5.013 -19.033  0.00  0.00    -0.648 OA
ENDBRANCH   6   7
ENDBRANCH   5   6
BRANCH   5  10
HETATM   10  N           1      -9.260   5.659 -19.102  0.00  0.00    -0.066 N 
HETATM   11  H           1      -8.586   4.865 -19.192  0.00  0.00     0.275 HD
HETATM   12  H           1     -10.120   5.334 -18.606  0.00  0.00     0.275 HD
HETATM   13  H           1      -8.815   6.433 -18.560  0.00  0.00     0.275 HD
ENDBRANCH   5  10
ENDBRANCH   1   5
BRANCH   2  14
HETATM   14  C           1     -11.825   9.290 -20.300  0.00  0.00     0.185 C 
BRANCH  14  15
HETATM   15  C           1     -12.254   9.776 -21.679  0.00  0.00     0.039 C 
BRANCH  15  16
HETATM   16 Se           1     -12.970   8.281 -22.703  0.00  0.00     0.000 Se
HETATM   17  H           1     -14.374   8.578 -22.374  0.00  0.00     0.000 HD
ENDBRANCH  15  16
ENDBRANCH  14  15
BRANCH  14  18
HETATM   18  C           1     -12.987   9.404 -19.343  0.00  0.00     0.196 C 
HETATM   19  O           1     -13.319   8.422 -18.645  0.00  0.00    -0.646 OA
HETATM   20  O           1     -13.617  10.479 -19.249  0.00  0.00    -0.646 OA
ENDBRANCH  14  18
ENDBRANCH   2  14
TORSDOF 8
ENDMDL
MODEL 8
REMARK VINA RESULT:      -4.4     15.049     16.476
REMARK  8 active torsions:
REMARK  status: ('A' for Active; 'I' for Inactive)
REMARK       I    between atoms: C_2  and  N_3 
REMARK    1  A    between atoms: C_2  and  C_18 
REMARK    2  A    between atoms: N_3  and  C_14 
REMARK    3  A    between atoms: Se_6  and  C_20 
REMARK    4  A    between atoms: C_9  and  C_18 
REMARK    5  A    between atoms: C_9  and  C_13 
REMARK    6  A    between atoms: N_11  and  C_18 
REMARK    7  A    between atoms: C_14  and  C_20 
REMARK    8  A    between atoms: C_14  and  C_17 
ROOT
HETATM    1  C           1     -21.231  -6.768  -4.795  0.00  0.00     0.249 C 
HETATM    2  N           1     -20.801  -7.313  -3.615  0.00  0.00    -0.345 N 
HETATM    3  H           1     -19.818  -7.294  -3.377  0.00  0.00     0.163 HD
HETATM    4  O           1     -22.404  -6.790  -5.080  0.00  0.00    -0.271 OA
ENDROOT
BRANCH   1   5
HETATM    5  C           1     -20.237  -6.138  -5.740  0.00  0.00     0.284 C 
BRANCH   5   6
HETATM    6  C           1     -20.356  -4.621  -5.665  0.00  0.00     0.155 C 
BRANCH   6   7
HETATM    7  C           1     -20.875  -4.091  -6.978  0.00  0.00     0.175 C 
HETATM    8  O           1     -22.106  -4.018  -7.181  0.00  0.00    -0.648 OA
HETATM    9  O           1     -20.073  -3.726  -7.865  0.00  0.00    -0.648 OA
ENDBRANCH   6   7
ENDBRANCH   5   6
BRANCH   5  10
HETATM   10  N           1     -20.522  -6.592  -7.141  0.00  0.00    -0.066 N 
HETATM   11  H           1     -19.679  -7.073  -7.529  0.00  0.00     0.275 HD
HETATM   12  H           1     -20.755  -5.763  -7.734  0.00  0.00     0.275 HD
HETATM   13  H           1     -21.330  -7.255  -7.135  0.00  0.00     0.275 HD
ENDBRANCH   5  10
ENDBRANCH   1   5
BRANCH   2  14
HETATM   14  C           1     -21.756  -7.919  -2.708  0.00  0.00     0.185 C 
BRANCH  14  15
HETATM   15  C           1     -21.176  -9.212  -2.150  0.00  0.00     0.039 C 
BRANCH  15  16
HETATM   16 Se           1     -19.285  -9.327  -2.605  0.00  0.00     0.000 Se
HETATM   17  H           1     -18.973  -7.964  -2.144  0.00  0.00     0.000 HD
ENDBRANCH  15  16
ENDBRANCH  14  15
BRANCH  14  18
HETATM   18  C           1     -22.045  -6.966  -1.573  0.00  0.00     0.196 C 
HETATM   19  O           1     -22.432  -5.804  -1.817  0.00  0.00    -0.646 OA
HETATM   20  O           1     -21.897  -7.341  -0.389  0.00  0.00    -0.646 OA
ENDBRANCH  14  18
ENDBRANCH   2  14
TORSDOF 8
ENDMDL
MODEL 9
REMARK VINA RESULT:      -4.3      2.174      2.661
REMARK  8 active torsions:
REMARK  status: ('A' for Active; 'I' for Inactive)
REMARK       I    between atoms: C_2  and  N_3 
REMARK    1  A    between atoms: C_2  and  C_18 
REMARK    2  A    between atoms: N_3  and  C_14 
REMARK    3  A    between atoms: Se_6  and  C_20 
REMARK    4  A    between atoms: C_9  and  C_18 
REMARK    5  A    between atoms: C_9  and  C_13 
REMARK    6  A    between atoms: N_11  and  C_18 
REMARK    7  A    between atoms: C_14  and  C_20 
REMARK    8  A    between atoms: C_14  and  C_17 
ROOT
HETATM    1  C           1     -26.805  -5.972 -16.425  0.00  0.00     0.249 C 
HETATM    2  N           1     -27.598  -6.513 -17.401  0.00  0.00    -0.345 N 
HETATM    3  H           1     -27.189  -7.092 -18.123  0.00  0.00     0.163 HD
HETATM    4  O           1     -27.292  -5.282 -15.563  0.00  0.00    -0.271 OA
ENDROOT
BRANCH   1   5
HETATM    5  C           1     -25.320  -6.239 -16.428  0.00  0.00     0.284 C 
BRANCH   5   6
HETATM    6  C           1     -25.019  -7.430 -17.330  0.00  0.00     0.155 C 
BRANCH   6   7
HETATM    7  C           1     -24.442  -6.941 -18.634  0.00  0.00     0.175 C 
HETATM    8  O           1     -23.210  -6.758 -18.744  0.00  0.00    -0.648 OA
HETATM    9  O           1     -25.196  -6.717 -19.606  0.00  0.00    -0.648 OA
ENDBRANCH   6   7
ENDBRANCH   5   6
BRANCH   5  10
HETATM   10  N           1     -24.864  -6.543 -15.031  0.00  0.00    -0.066 N 
HETATM   11  H           1     -25.647  -6.986 -14.499  0.00  0.00     0.275 HD
HETATM   12  H           1     -24.578  -5.656 -14.559  0.00  0.00     0.275 HD
HETATM   13  H           1     -24.051  -7.199 -15.065  0.00  0.00     0.275 HD
ENDBRANCH   5  10
ENDBRANCH   1   5
BRANCH   2  14
HETATM   14  C           1     -29.025  -6.257 -17.399  0.00  0.00     0.185 C 
BRANCH  14  15
HETATM   15  C           1     -29.354  -5.214 -18.459  0.00  0.00     0.039 C 
BRANCH  15  16
HETATM   16 Se           1     -30.405  -3.781 -17.658  0.00  0.00     0.000 Se
HETATM   17  H           1     -31.039  -4.650 -16.655  0.00  0.00     0.000 HD
ENDBRANCH  15  16
ENDBRANCH  14  15
BRANCH  14  18
HETATM   18  C           1     -29.767  -7.536 -17.704  0.00  0.00     0.196 C 
HETATM   19  O           1     -29.470  -8.588 -17.100  0.00  0.00    -0.646 OA
HETATM   20  O           1     -30.677  -7.541 -18.560  0.00  0.00    -0.646 OA
ENDBRANCH  14  18
ENDBRANCH   2  14
TORSDOF 8
ENDMDL
