MODEL 1
REMARK VINA RESULT:      -5.1      0.000      0.000
REMARK  8 active torsions:
REMARK  status: ('A' for Active; 'I' for Inactive)
REMARK    1  A    between atoms: C_1  and  C_8 
REMARK    2  A    between atoms: C_1  and  N_10 
REMARK    3  A    between atoms: C_2  and  C_3 
REMARK    4  A    between atoms: C_2  and  C_19 
REMARK    5  A    between atoms: C_2  and  N_9 
REMARK    6  A    between atoms: C_3  and  C_4 
REMARK    7  A    between atoms: C_4  and  C_5 
REMARK    8  A    between atoms: C_5  and  N_6 
REMARK       I    between atoms: C_8  and  N_9 
ROOT
HETATM    1  C           1     -21.567  -4.873  -8.075  0.00  0.00     0.185 C 
ENDROOT
BRANCH   1   2
HETATM    2  C           1     -22.596  -3.797  -8.392  0.00  0.00     0.038 C 
BRANCH   2   3
HETATM    3  C           1     -22.954  -3.857  -9.872  0.00  0.00     0.030 C 
BRANCH   3   4
HETATM    4  C           1     -24.304  -4.544 -10.041  0.00  0.00     0.230 C 
BRANCH   4   5
HETATM    5  N           1     -25.401  -3.591  -9.670  0.00  0.00    -0.079 N 
HETATM    6  H           1     -26.165  -4.111  -9.183  0.00  0.00     0.274 HD
HETATM    7  H           1     -25.021  -2.854  -9.034  0.00  0.00     0.274 HD
HETATM    8  H           1     -25.781  -3.144 -10.535  0.00  0.00     0.274 HD
ENDBRANCH   4   5
ENDBRANCH   3   4
ENDBRANCH   2   3
ENDBRANCH   1   2
BRANCH   1   9
HETATM    9  C           1     -20.234  -4.487  -8.668  0.00  0.00     0.196 C 
HETATM   10  O           1     -19.864  -4.991  -9.751  0.00  0.00    -0.646 OA
HETATM   11  O           1     -19.502  -3.664  -8.078  0.00  0.00    -0.646 OA
ENDBRANCH   1   9
BRANCH   1  12
HETATM   12  N           1     -21.435  -5.005  -6.636  0.00  0.00    -0.345 N 
HETATM   13  C           1     -21.167  -6.228  -6.083  0.00  0.00     0.248 C 
HETATM   14  O           1     -21.041  -7.198  -6.793  0.00  0.00    -0.271 OA
HETATM   15  H           1     -21.540  -4.193  -6.042  0.00  0.00     0.163 HD
BRANCH  13  16
HETATM   16  C           1     -21.030  -6.364  -4.587  0.00  0.00     0.270 C 
HETATM   17  C           1     -20.522  -7.760  -4.249  0.00  0.00     0.050 C 
BRANCH  16  18
HETATM   18  N           1     -22.365  -6.149  -3.940  0.00  0.00    -0.067 N 
HETATM   19  H           1     -22.920  -7.034  -3.982  0.00  0.00     0.275 HD
HETATM   20  H           1     -22.227  -5.874  -2.941  0.00  0.00     0.275 HD
HETATM   21  H           1     -22.879  -5.391  -4.444  0.00  0.00     0.275 HD
ENDBRANCH  16  18
ENDBRANCH  13  16
ENDBRANCH   1  12
TORSDOF 8
ENDMDL
MODEL 2
REMARK VINA RESULT:      -5.0     19.249     20.658
REMARK  8 active torsions:
REMARK  status: ('A' for Active; 'I' for Inactive)
REMARK    1  A    between atoms: C_1  and  C_8 
REMARK    2  A    between atoms: C_1  and  N_10 
REMARK    3  A    between atoms: C_2  and  C_3 
REMARK    4  A    between atoms: C_2  and  C_19 
REMARK    5  A    between atoms: C_2  and  N_9 
REMARK    6  A    between atoms: C_3  and  C_4 
REMARK    7  A    between atoms: C_4  and  C_5 
REMARK    8  A    between atoms: C_5  and  N_6 
REMARK       I    between atoms: C_8  and  N_9 
ROOT
HETATM    1  C           1     -10.285   5.583 -20.655  0.00  0.00     0.185 C 
ENDROOT
BRANCH   1   2
HETATM    2  C           1      -9.560   6.886 -20.964  0.00  0.00     0.038 C 
BRANCH   2   3
HETATM    3  C           1     -10.551   8.043 -20.919  0.00  0.00     0.030 C 
BRANCH   3   4
HETATM    4  C           1      -9.951   9.197 -20.127  0.00  0.00     0.230 C 
BRANCH   4   5
HETATM    5  N           1     -10.173   8.968 -18.661  0.00  0.00    -0.079 N 
HETATM    6  H           1     -10.020   9.861 -18.141  0.00  0.00     0.274 HD
HETATM    7  H           1     -11.153   8.638 -18.505  0.00  0.00     0.274 HD
HETATM    8  H           1      -9.502   8.244 -18.316  0.00  0.00     0.274 HD
ENDBRANCH   4   5
ENDBRANCH   3   4
ENDBRANCH   2   3
ENDBRANCH   1   2
BRANCH   1   9
HETATM    9  C           1     -10.583   5.511 -19.177  0.00  0.00     0.196 C 
HETATM   10  O           1      -9.719   5.869 -18.348  0.00  0.00    -0.646 OA
HETATM   11  O           1     -11.693   5.092 -18.784  0.00  0.00    -0.646 OA
ENDBRANCH   1   9
BRANCH   1  12
HETATM   12  N           1     -11.527   5.534 -21.401  0.00  0.00    -0.345 N 
HETATM   13  C           1     -11.848   4.415 -22.122  0.00  0.00     0.248 C 
HETATM   14  O           1     -11.096   3.469 -22.136  0.00  0.00    -0.271 OA
HETATM   15  H           1     -12.157   6.326 -21.389  0.00  0.00     0.163 HD
BRANCH  13  16
HETATM   16  C           1     -13.141   4.364 -22.898  0.00  0.00     0.270 C 
HETATM   17  C           1     -14.040   5.515 -22.465  0.00  0.00     0.050 C 
BRANCH  16  18
HETATM   18  N           1     -13.834   3.061 -22.628  0.00  0.00    -0.067 N 
HETATM   19  H           1     -14.105   2.616 -23.533  0.00  0.00     0.275 HD
HETATM   20  H           1     -13.188   2.426 -22.107  0.00  0.00     0.275 HD
HETATM   21  H           1     -14.690   3.234 -22.054  0.00  0.00     0.275 HD
ENDBRANCH  16  18
ENDBRANCH  13  16
ENDBRANCH   1  12
TORSDOF 8
ENDMDL
MODEL 3
REMARK VINA RESULT:      -4.9      2.210      5.842
REMARK  8 active torsions:
REMARK  status: ('A' for Active; 'I' for Inactive)
REMARK    1  A    between atoms: C_1  and  C_8 
REMARK    2  A    between atoms: C_1  and  N_10 
REMARK    3  A    between atoms: C_2  and  C_3 
REMARK    4  A    between atoms: C_2  and  C_19 
REMARK    5  A    between atoms: C_2  and  N_9 
REMARK    6  A    between atoms: C_3  and  C_4 
REMARK    7  A    between atoms: C_4  and  C_5 
REMARK    8  A    between atoms: C_5  and  N_6 
REMARK       I    between atoms: C_8  and  N_9 
ROOT
HETATM    1  C           1     -20.814  -6.754  -4.919  0.00  0.00     0.185 C 
ENDROOT
BRANCH   1   2
HETATM    2  C           1     -21.984  -6.711  -3.946  0.00  0.00     0.038 C 
BRANCH   2   3
HETATM    3  C           1     -21.547  -6.034  -2.653  0.00  0.00     0.030 C 
BRANCH   3   4
HETATM    4  C           1     -22.168  -6.757  -1.465  0.00  0.00     0.230 C 
BRANCH   4   5
HETATM    5  N           1     -21.552  -8.119  -1.330  0.00  0.00    -0.079 N 
HETATM    6  H           1     -21.084  -8.199  -0.400  0.00  0.00     0.274 HD
HETATM    7  H           1     -22.298  -8.847  -1.408  0.00  0.00     0.274 HD
HETATM    8  H           1     -20.847  -8.259  -2.089  0.00  0.00     0.274 HD
ENDBRANCH   4   5
ENDBRANCH   3   4
ENDBRANCH   2   3
ENDBRANCH   1   2
BRANCH   1   9
HETATM    9  C           1     -20.246  -8.152  -4.962  0.00  0.00     0.196 C 
HETATM   10  O           1     -20.675  -9.024  -4.175  0.00  0.00    -0.646 OA
HETATM   11  O           1     -19.348  -8.436  -5.783  0.00  0.00    -0.646 OA
ENDBRANCH   1   9
BRANCH   1  12
HETATM   12  N           1     -21.272  -6.378  -6.243  0.00  0.00    -0.345 N 
HETATM   13  C           1     -21.048  -5.112  -6.710  0.00  0.00     0.248 C 
HETATM   14  O           1     -20.469  -4.307  -6.020  0.00  0.00    -0.271 OA
HETATM   15  H           1     -21.757  -7.053  -6.820  0.00  0.00     0.163 HD
BRANCH  13  16
HETATM   16  C           1     -21.525  -4.721  -8.087  0.00  0.00     0.270 C 
HETATM   17  C           1     -20.328  -4.343  -8.951  0.00  0.00     0.050 C 
BRANCH  16  18
HETATM   18  N           1     -22.453  -3.548  -7.981  0.00  0.00    -0.067 N 
HETATM   19  H           1     -23.359  -3.857  -7.563  0.00  0.00     0.275 HD
HETATM   20  H           1     -22.020  -2.817  -7.371  0.00  0.00     0.275 HD
HETATM   21  H           1     -22.625  -3.152  -8.932  0.00  0.00     0.275 HD
ENDBRANCH  16  18
ENDBRANCH  13  16
ENDBRANCH   1  12
TORSDOF 8
ENDMDL
MODEL 4
REMARK VINA RESULT:      -4.8      4.859      7.267
REMARK  8 active torsions:
REMARK  status: ('A' for Active; 'I' for Inactive)
REMARK    1  A    between atoms: C_1  and  C_8 
REMARK    2  A    between atoms: C_1  and  N_10 
REMARK    3  A    between atoms: C_2  and  C_3 
REMARK    4  A    between atoms: C_2  and  C_19 
REMARK    5  A    between atoms: C_2  and  N_9 
REMARK    6  A    between atoms: C_3  and  C_4 
REMARK    7  A    between atoms: C_4  and  C_5 
REMARK    8  A    between atoms: C_5  and  N_6 
REMARK       I    between atoms: C_8  and  N_9 
ROOT
HETATM    1  C           1     -21.227  -7.965  -1.596  0.00  0.00     0.185 C 
ENDROOT
BRANCH   1   2
HETATM    2  C           1     -20.638  -7.784  -2.988  0.00  0.00     0.038 C 
BRANCH   2   3
HETATM    3  C           1     -21.563  -8.420  -4.018  0.00  0.00     0.030 C 
BRANCH   3   4
HETATM    4  C           1     -21.675  -7.507  -5.233  0.00  0.00     0.230 C 
BRANCH   4   5
HETATM    5  N           1     -22.567  -6.346  -4.906  0.00  0.00    -0.079 N 
HETATM    6  H           1     -23.541  -6.554  -5.222  0.00  0.00     0.274 HD
HETATM    7  H           1     -22.564  -6.185  -3.873  0.00  0.00     0.274 HD
HETATM    8  H           1     -22.217  -5.491  -5.394  0.00  0.00     0.274 HD
ENDBRANCH   4   5
ENDBRANCH   3   4
ENDBRANCH   2   3
ENDBRANCH   1   2
BRANCH   1   9
HETATM    9  C           1     -22.203  -6.848  -1.313  0.00  0.00     0.196 C 
HETATM   10  O           1     -22.174  -5.805  -2.001  0.00  0.00    -0.646 OA
HETATM   11  O           1     -23.038  -6.968  -0.392  0.00  0.00    -0.646 OA
ENDBRANCH   1   9
BRANCH   1  12
HETATM   12  N           1     -21.917  -9.238  -1.525  0.00  0.00    -0.345 N 
HETATM   13  C           1     -21.695 -10.079  -0.469  0.00  0.00     0.248 C 
HETATM   14  O           1     -20.923  -9.761   0.405  0.00  0.00    -0.271 OA
HETATM   15  H           1     -22.563  -9.505  -2.257  0.00  0.00     0.163 HD
BRANCH  13  16
HETATM   16  C           1     -22.413 -11.404  -0.395  0.00  0.00     0.270 C 
HETATM   17  C           1     -23.906 -11.163  -0.214  0.00  0.00     0.050 C 
BRANCH  16  18
HETATM   18  N           1     -21.891 -12.192   0.769  0.00  0.00    -0.067 N 
HETATM   19  H           1     -21.336 -13.006   0.419  0.00  0.00     0.275 HD
HETATM   20  H           1     -21.278 -11.580   1.355  0.00  0.00     0.275 HD
HETATM   21  H           1     -22.692 -12.537   1.344  0.00  0.00     0.275 HD
ENDBRANCH  16  18
ENDBRANCH  13  16
ENDBRANCH   1  12
TORSDOF 8
ENDMDL
MODEL 5
REMARK VINA RESULT:      -4.7     18.512     19.893
REMARK  8 active torsions:
REMARK  status: ('A' for Active; 'I' for Inactive)
REMARK    1  A    between atoms: C_1  and  C_8 
REMARK    2  A    between atoms: C_1  and  N_10 
REMARK    3  A    between atoms: C_2  and  C_3 
REMARK    4  A    between atoms: C_2  and  C_19 
REMARK    5  A    between atoms: C_2  and  N_9 
REMARK    6  A    between atoms: C_3  and  C_4 
REMARK    7  A    between atoms: C_4  and  C_5 
REMARK    8  A    between atoms: C_5  and  N_6 
REMARK       I    between atoms: C_8  and  N_9 
ROOT
HETATM    1  C           1     -12.046   4.335 -20.264  0.00  0.00     0.185 C 
ENDROOT
BRANCH   1   2
HETATM    2  C           1     -13.520   4.092 -20.557  0.00  0.00     0.038 C 
BRANCH   2   3
HETATM    3  C           1     -14.051   5.203 -21.455  0.00  0.00     0.030 C 
BRANCH   3   4
HETATM    4  C           1     -14.701   4.591 -22.690  0.00  0.00     0.230 C 
BRANCH   4   5
HETATM    5  N           1     -14.343   3.137 -22.776  0.00  0.00    -0.079 N 
HETATM    6  H           1     -13.826   2.853 -21.914  0.00  0.00     0.274 HD
HETATM    7  H           1     -15.215   2.569 -22.862  0.00  0.00     0.274 HD
HETATM    8  H           1     -13.738   2.977 -23.613  0.00  0.00     0.274 HD
ENDBRANCH   4   5
ENDBRANCH   3   4
ENDBRANCH   2   3
ENDBRANCH   1   2
BRANCH   1   9
HETATM    9  C           1     -11.205   3.409 -21.109  0.00  0.00     0.196 C 
HETATM   10  O           1     -10.958   2.251 -20.707  0.00  0.00    -0.646 OA
HETATM   11  O           1     -10.758   3.799 -22.208  0.00  0.00    -0.646 OA
ENDBRANCH   1   9
BRANCH   1  12
HETATM   12  N           1     -11.712   5.711 -20.579  0.00  0.00    -0.345 N 
HETATM   13  C           1     -10.896   6.425 -19.744  0.00  0.00     0.248 C 
HETATM   14  O           1     -10.455   5.909 -18.744  0.00  0.00    -0.271 OA
HETATM   15  H           1     -12.082   6.143 -21.416  0.00  0.00     0.163 HD
BRANCH  13  16
HETATM   16  C           1     -10.549   7.856 -20.071  0.00  0.00     0.270 C 
HETATM   17  C           1      -9.346   7.886 -21.006  0.00  0.00     0.050 C 
BRANCH  16  18
HETATM   18  N           1     -10.216   8.592 -18.807  0.00  0.00    -0.067 N 
HETATM   19  H           1     -10.610   9.558 -18.852  0.00  0.00     0.275 HD
HETATM   20  H           1     -10.630   8.085 -17.992  0.00  0.00     0.275 HD
HETATM   21  H           1      -9.178   8.642 -18.696  0.00  0.00     0.275 HD
ENDBRANCH  16  18
ENDBRANCH  13  16
ENDBRANCH   1  12
TORSDOF 8
ENDMDL
MODEL 6
REMARK VINA RESULT:      -4.6      3.886      5.344
REMARK  8 active torsions:
REMARK  status: ('A' for Active; 'I' for Inactive)
REMARK    1  A    between atoms: C_1  and  C_8 
REMARK    2  A    between atoms: C_1  and  N_10 
REMARK    3  A    between atoms: C_2  and  C_3 
REMARK    4  A    between atoms: C_2  and  C_19 
REMARK    5  A    between atoms: C_2  and  N_9 
REMARK    6  A    between atoms: C_3  and  C_4 
REMARK    7  A    between atoms: C_4  and  C_5 
REMARK    8  A    between atoms: C_5  and  N_6 
REMARK       I    between atoms: C_8  and  N_9 
ROOT
HETATM    1  C           1     -20.816  -8.635  -4.427  0.00  0.00     0.185 C 
ENDROOT
BRANCH   1   2
HETATM    2  C           1     -21.378  -7.723  -5.509  0.00  0.00     0.038 C 
BRANCH   2   3
HETATM    3  C           1     -21.332  -6.277  -5.030  0.00  0.00     0.030 C 
BRANCH   3   4
HETATM    4  C           1     -20.406  -5.472  -5.933  0.00  0.00     0.230 C 
BRANCH   4   5
HETATM    5  N           1     -20.055  -6.285  -7.144  0.00  0.00    -0.079 N 
HETATM    6  H           1     -19.067  -6.089  -7.421  0.00  0.00     0.274 HD
HETATM    7  H           1     -20.159  -7.301  -6.922  0.00  0.00     0.274 HD
HETATM    8  H           1     -20.695  -6.032  -7.930  0.00  0.00     0.274 HD
ENDBRANCH   4   5
ENDBRANCH   3   4
ENDBRANCH   2   3
ENDBRANCH   1   2
BRANCH   1   9
HETATM    9  C           1     -19.346  -8.870  -4.679  0.00  0.00     0.196 C 
HETATM   10  O           1     -18.899  -8.830  -5.846  0.00  0.00    -0.646 OA
HETATM   11  O           1     -18.578  -9.103  -3.722  0.00  0.00    -0.646 OA
ENDBRANCH   1   9
BRANCH   1  12
HETATM   12  N           1     -20.989  -8.009  -3.130  0.00  0.00    -0.345 N 
HETATM   13  C           1     -21.618  -8.688  -2.122  0.00  0.00     0.248 C 
HETATM   14  O           1     -22.028  -9.808  -2.311  0.00  0.00    -0.271 OA
HETATM   15  H           1     -20.646  -7.071  -2.971  0.00  0.00     0.163 HD
BRANCH  13  16
HETATM   16  C           1     -21.798  -8.036  -0.772  0.00  0.00     0.270 C 
HETATM   17  C           1     -22.783  -8.849   0.057  0.00  0.00     0.050 C 
BRANCH  16  18
HETATM   18  N           1     -22.329  -6.646  -0.956  0.00  0.00    -0.067 N 
HETATM   19  H           1     -22.176  -6.096  -0.081  0.00  0.00     0.275 HD
HETATM   20  H           1     -21.827  -6.184  -1.748  0.00  0.00     0.275 HD
HETATM   21  H           1     -23.351  -6.688  -1.168  0.00  0.00     0.275 HD
ENDBRANCH  16  18
ENDBRANCH  13  16
ENDBRANCH   1  12
TORSDOF 8
ENDMDL
MODEL 7
REMARK VINA RESULT:      -4.4      4.600      6.450
REMARK  8 active torsions:
REMARK  status: ('A' for Active; 'I' for Inactive)
REMARK    1  A    between atoms: C_1  and  C_8 
REMARK    2  A    between atoms: C_1  and  N_10 
REMARK    3  A    between atoms: C_2  and  C_3 
REMARK    4  A    between atoms: C_2  and  C_19 
REMARK    5  A    between atoms: C_2  and  N_9 
REMARK    6  A    between atoms: C_3  and  C_4 
REMARK    7  A    between atoms: C_4  and  C_5 
REMARK    8  A    between atoms: C_5  and  N_6 
REMARK       I    between atoms: C_8  and  N_9 
ROOT
HETATM    1  C           1     -21.485  -7.575  -3.649  0.00  0.00     0.185 C 
ENDROOT
BRANCH   1   2
HETATM    2  C           1     -21.353  -6.417  -2.668  0.00  0.00     0.038 C 
BRANCH   2   3
HETATM    3  C           1     -22.341  -6.606  -1.524  0.00  0.00     0.030 C 
BRANCH   3   4
HETATM    4  C           1     -21.773  -7.602  -0.521  0.00  0.00     0.230 C 
BRANCH   4   5
HETATM    5  N           1     -22.637  -8.828  -0.489  0.00  0.00    -0.079 N 
HETATM    6  H           1     -23.446  -8.702  -1.137  0.00  0.00     0.274 HD
HETATM    7  H           1     -22.076  -9.657  -0.791  0.00  0.00     0.274 HD
HETATM    8  H           1     -22.989  -8.981   0.483  0.00  0.00     0.274 HD
ENDBRANCH   4   5
ENDBRANCH   3   4
ENDBRANCH   2   3
ENDBRANCH   1   2
BRANCH   1   9
HETATM    9  C           1     -21.816  -7.038  -5.020  0.00  0.00     0.196 C 
HETATM   10  O           1     -22.632  -6.099  -5.142  0.00  0.00    -0.646 OA
HETATM   11  O           1     -21.275  -7.533  -6.032  0.00  0.00    -0.646 OA
ENDBRANCH   1   9
BRANCH   1  12
HETATM   12  N           1     -20.233  -8.304  -3.706  0.00  0.00    -0.345 N 
HETATM   13  C           1     -20.182  -9.608  -3.295  0.00  0.00     0.248 C 
HETATM   14  O           1     -21.180 -10.153  -2.886  0.00  0.00    -0.271 OA
HETATM   15  H           1     -19.397  -7.848  -4.048  0.00  0.00     0.163 HD
BRANCH  13  16
HETATM   16  C           1     -18.879 -10.367  -3.355  0.00  0.00     0.270 C 
HETATM   17  C           1     -17.731  -9.436  -2.983  0.00  0.00     0.050 C 
BRANCH  16  18
HETATM   18  N           1     -18.667 -10.889  -4.745  0.00  0.00    -0.067 N 
HETATM   19  H           1     -18.357 -10.109  -5.367  0.00  0.00     0.275 HD
HETATM   20  H           1     -17.933 -11.633  -4.728  0.00  0.00     0.275 HD
HETATM   21  H           1     -19.562 -11.290  -5.106  0.00  0.00     0.275 HD
ENDBRANCH  16  18
ENDBRANCH  13  16
ENDBRANCH   1  12
TORSDOF 8
ENDMDL
MODEL 8
REMARK VINA RESULT:      -4.4     18.865     19.957
REMARK  8 active torsions:
REMARK  status: ('A' for Active; 'I' for Inactive)
REMARK    1  A    between atoms: C_1  and  C_8 
REMARK    2  A    between atoms: C_1  and  N_10 
REMARK    3  A    between atoms: C_2  and  C_3 
REMARK    4  A    between atoms: C_2  and  C_19 
REMARK    5  A    between atoms: C_2  and  N_9 
REMARK    6  A    between atoms: C_3  and  C_4 
REMARK    7  A    between atoms: C_4  and  C_5 
REMARK    8  A    between atoms: C_5  and  N_6 
REMARK       I    between atoms: C_8  and  N_9 
ROOT
HETATM    1  C           1     -11.666   5.172 -20.687  0.00  0.00     0.185 C 
ENDROOT
BRANCH   1   2
HETATM    2  C           1     -11.558   4.820 -22.164  0.00  0.00     0.038 C 
BRANCH   2   3
HETATM    3  C           1     -12.947   4.815 -22.789  0.00  0.00     0.030 C 
BRANCH   3   4
HETATM    4  C           1     -13.939   4.189 -21.817  0.00  0.00     0.230 C 
BRANCH   4   5
HETATM    5  N           1     -15.074   5.140 -21.576  0.00  0.00    -0.079 N 
HETATM    6  H           1     -15.963   4.602 -21.468  0.00  0.00     0.274 HD
HETATM    7  H           1     -14.890   5.687 -20.705  0.00  0.00     0.274 HD
HETATM    8  H           1     -15.158   5.794 -22.387  0.00  0.00     0.274 HD
ENDBRANCH   4   5
ENDBRANCH   3   4
ENDBRANCH   2   3
ENDBRANCH   1   2
BRANCH   1   9
HETATM    9  C           1     -10.681   4.343 -19.898  0.00  0.00     0.196 C 
HETATM   10  O           1     -10.743   3.095 -19.938  0.00  0.00    -0.646 OA
HETATM   11  O           1      -9.805   4.905 -19.206  0.00  0.00    -0.646 OA
ENDBRANCH   1   9
BRANCH   1  12
HETATM   12  N           1     -11.368   6.579 -20.503  0.00  0.00    -0.345 N 
HETATM   13  C           1     -12.289   7.402 -19.912  0.00  0.00     0.248 C 
HETATM   14  O           1     -13.349   6.956 -19.543  0.00  0.00    -0.271 OA
HETATM   15  H           1     -10.480   6.953 -20.811  0.00  0.00     0.163 HD
BRANCH  13  16
HETATM   16  C           1     -11.978   8.866 -19.720  0.00  0.00     0.270 C 
HETATM   17  C           1     -10.557   9.020 -19.195  0.00  0.00     0.050 C 
BRANCH  16  18
HETATM   18  N           1     -12.942   9.456 -18.734  0.00  0.00    -0.067 N 
HETATM   19  H           1     -13.768   8.825 -18.633  0.00  0.00     0.275 HD
HETATM   20  H           1     -12.469   9.561 -17.807  0.00  0.00     0.275 HD
HETATM   21  H           1     -13.257  10.393 -19.072  0.00  0.00     0.275 HD
ENDBRANCH  16  18
ENDBRANCH  13  16
ENDBRANCH   1  12
TORSDOF 8
ENDMDL
MODEL 9
REMARK VINA RESULT:      -4.4      4.995      6.384
REMARK  8 active torsions:
REMARK  status: ('A' for Active; 'I' for Inactive)
REMARK    1  A    between atoms: C_1  and  C_8 
REMARK    2  A    between atoms: C_1  and  N_10 
REMARK    3  A    between atoms: C_2  and  C_3 
REMARK    4  A    between atoms: C_2  and  C_19 
REMARK    5  A    between atoms: C_2  and  N_9 
REMARK    6  A    between atoms: C_3  and  C_4 
REMARK    7  A    between atoms: C_4  and  C_5 
REMARK    8  A    between atoms: C_5  and  N_6 
REMARK       I    between atoms: C_8  and  N_9 
ROOT
HETATM    1  C           1     -21.249  -7.840  -3.148  0.00  0.00     0.185 C 
ENDROOT
BRANCH   1   2
HETATM    2  C           1     -21.757  -8.585  -4.374  0.00  0.00     0.038 C 
BRANCH   2   3
HETATM    3  C           1     -20.613  -9.371  -5.003  0.00  0.00     0.030 C 
BRANCH   3   4
HETATM    4  C           1     -19.434  -8.438  -5.254  0.00  0.00     0.230 C 
BRANCH   4   5
HETATM    5  N           1     -19.832  -7.383  -6.244  0.00  0.00    -0.079 N 
HETATM    6  H           1     -19.399  -7.593  -7.171  0.00  0.00     0.274 HD
HETATM    7  H           1     -20.873  -7.372  -6.341  0.00  0.00     0.274 HD
HETATM    8  H           1     -19.503  -6.450  -5.908  0.00  0.00     0.274 HD
ENDBRANCH   4   5
ENDBRANCH   3   4
ENDBRANCH   2   3
ENDBRANCH   1   2
BRANCH   1   9
HETATM    9  C           1     -21.718  -6.406  -3.199  0.00  0.00     0.196 C 
HETATM   10  O           1     -21.431  -5.690  -4.183  0.00  0.00    -0.646 OA
HETATM   11  O           1     -22.393  -5.936  -2.259  0.00  0.00    -0.646 OA
ENDBRANCH   1   9
BRANCH   1  12
HETATM   12  N           1     -21.765  -8.474  -1.950  0.00  0.00    -0.345 N 
HETATM   13  C           1     -20.978  -9.343  -1.244  0.00  0.00     0.248 C 
HETATM   14  O           1     -19.855  -9.582  -1.618  0.00  0.00    -0.271 OA
HETATM   15  H           1     -22.706  -8.273  -1.636  0.00  0.00     0.163 HD
BRANCH  13  16
HETATM   16  C           1     -21.515 -10.002   0.003  0.00  0.00     0.270 C 
HETATM   17  C           1     -23.034 -10.079  -0.076  0.00  0.00     0.050 C 
BRANCH  16  18
HETATM   18  N           1     -21.119  -9.197   1.204  0.00  0.00    -0.067 N 
HETATM   19  H           1     -20.079  -9.106   1.237  0.00  0.00     0.275 HD
HETATM   20  H           1     -21.548  -8.245   1.141  0.00  0.00     0.275 HD
HETATM   21  H           1     -21.455  -9.674   2.071  0.00  0.00     0.275 HD
ENDBRANCH  16  18
ENDBRANCH  13  16
ENDBRANCH   1  12
TORSDOF 8
ENDMDL
