MODEL 1
REMARK VINA RESULT:      -7.8      0.000      0.000
REMARK  8 active torsions:
REMARK  status: ('A' for Active; 'I' for Inactive)
REMARK    1  A    between atoms: N_2  and  C_7 
REMARK    2  A    between atoms: C_5  and  C_6 
REMARK    3  A    between atoms: C_6  and  C_29 
REMARK    4  A    between atoms: C_7  and  C_19 
REMARK    5  A    between atoms: C_7  and  C_8 
REMARK    6  A    between atoms: C_8  and  C_9 
REMARK       I    between atoms: C_9  and  N_10 
REMARK    7  A    between atoms: C_12  and  C_29 
REMARK       I    between atoms: C_19  and  N_20 
REMARK    8  A    between atoms: N_20  and  C_29 
ROOT
HETATM    1  O           1     -21.173  -5.320  -2.711  0.00  0.00    -0.271 OA
HETATM    2  C           1     -21.780  -6.318  -3.022  0.00  0.00     0.249 C 
HETATM    3  N           1     -22.511  -6.341  -4.179  0.00  0.00    -0.344 N 
HETATM    4  H           1     -23.483  -6.059  -4.169  0.00  0.00     0.163 HD
ENDROOT
BRANCH   3   5
HETATM    5  C           1     -21.894  -6.771  -5.418  0.00  0.00     0.190 C 
BRANCH   5   6
HETATM    6  C           1     -21.109  -5.613  -6.022  0.00  0.00     0.077 C 
BRANCH   6   7
HETATM    7  C           1     -21.920  -4.968  -7.102  0.00  0.00    -0.028 A 
HETATM    8  C           1     -23.232  -4.565  -6.999  0.00  0.00     0.096 A 
HETATM    9  N           1     -23.599  -4.025  -8.203  0.00  0.00    -0.365 N 
HETATM   10  C           1     -22.545  -4.071  -9.088  0.00  0.00     0.042 A 
HETATM   11  H           1     -24.549  -3.632  -8.421  0.00  0.00     0.165 HD
HETATM   12  C           1     -22.459  -3.638 -10.416  0.00  0.00     0.030 A 
HETATM   13  C           1     -21.473  -4.662  -8.416  0.00  0.00    -0.002 A 
HETATM   14  C           1     -21.238  -3.817 -11.075  0.00  0.00     0.002 A 
HETATM   15  C           1     -20.151  -4.403 -10.430  0.00  0.00     0.001 A 
HETATM   16  C           1     -20.255  -4.830  -9.102  0.00  0.00     0.014 A 
ENDBRANCH   6   7
ENDBRANCH   5   6
BRANCH   5  17
HETATM   17  C           1     -20.959  -7.922  -5.140  0.00  0.00     0.197 C 
HETATM   18  O           1     -19.726  -7.728  -5.090  0.00  0.00    -0.646 OA
HETATM   19  O           1     -21.419  -9.071  -4.962  0.00  0.00    -0.646 OA
ENDBRANCH   5  17
ENDBRANCH   3   5
BRANCH   2  20
HETATM   20  C           1     -21.733  -7.537  -2.134  0.00  0.00     0.283 C 
BRANCH  20  21
HETATM   21  N           1     -20.307  -7.968  -1.953  0.00  0.00    -0.066 N 
HETATM   22  H           1     -19.843  -8.034  -2.888  0.00  0.00     0.275 HD
HETATM   23  H           1     -19.804  -7.267  -1.363  0.00  0.00     0.275 HD
HETATM   24  H           1     -20.281  -8.901  -1.485  0.00  0.00     0.275 HD
ENDBRANCH  20  21
BRANCH  20  25
HETATM   25  C           1     -22.335  -7.200  -0.776  0.00  0.00     0.145 C 
BRANCH  25  26
HETATM   26  C           1     -22.263  -8.410   0.123  0.00  0.00     0.217 C 
HETATM   27  O           1     -21.390  -8.496   0.952  0.00  0.00    -0.274 OA
HETATM   28  N           1     -23.189  -9.410  -0.002  0.00  0.00    -0.370 N 
HETATM   29  H           1     -23.141 -10.223   0.600  0.00  0.00     0.159 HD
HETATM   30  H           1     -23.922  -9.338  -0.697  0.00  0.00     0.159 HD
ENDBRANCH  25  26
ENDBRANCH  20  25
ENDBRANCH   2  20
TORSDOF 8
ENDMDL
MODEL 2
REMARK VINA RESULT:      -7.6      2.089      3.214
REMARK  8 active torsions:
REMARK  status: ('A' for Active; 'I' for Inactive)
REMARK    1  A    between atoms: N_2  and  C_7 
REMARK    2  A    between atoms: C_5  and  C_6 
REMARK    3  A    between atoms: C_6  and  C_29 
REMARK    4  A    between atoms: C_7  and  C_19 
REMARK    5  A    between atoms: C_7  and  C_8 
REMARK    6  A    between atoms: C_8  and  C_9 
REMARK       I    between atoms: C_9  and  N_10 
REMARK    7  A    between atoms: C_12  and  C_29 
REMARK       I    between atoms: C_19  and  N_20 
REMARK    8  A    between atoms: N_20  and  C_29 
ROOT
HETATM    1  O           1     -20.892 -11.389  -2.253  0.00  0.00    -0.271 OA
HETATM    2  C           1     -20.858 -10.188  -2.382  0.00  0.00     0.249 C 
HETATM    3  N           1     -20.003  -9.621  -3.288  0.00  0.00    -0.344 N 
HETATM    4  H           1     -19.065  -9.363  -3.007  0.00  0.00     0.163 HD
ENDROOT
BRANCH   3   5
HETATM    5  C           1     -20.441  -9.389  -4.650  0.00  0.00     0.190 C 
BRANCH   5   6
HETATM    6  C           1     -19.758  -8.142  -5.198  0.00  0.00     0.077 C 
BRANCH   6   7
HETATM    7  C           1     -20.788  -7.100  -5.505  0.00  0.00    -0.028 A 
HETATM    8  C           1     -22.047  -7.019  -4.956  0.00  0.00     0.096 A 
HETATM    9  N           1     -22.670  -5.927  -5.498  0.00  0.00    -0.365 N 
HETATM   10  C           1     -21.834  -5.296  -6.392  0.00  0.00     0.042 A 
HETATM   11  H           1     -23.647  -5.615  -5.267  0.00  0.00     0.165 HD
HETATM   12  C           1     -22.042  -4.154  -7.174  0.00  0.00     0.030 A 
HETATM   13  C           1     -20.639  -6.017  -6.414  0.00  0.00    -0.002 A 
HETATM   14  C           1     -20.994  -3.739  -8.002  0.00  0.00     0.002 A 
HETATM   15  C           1     -19.790  -4.439  -8.044  0.00  0.00     0.001 A 
HETATM   16  C           1     -19.600  -5.579  -7.256  0.00  0.00     0.014 A 
ENDBRANCH   6   7
ENDBRANCH   5   6
BRANCH   5  17
HETATM   17  C           1     -20.079 -10.578  -5.504  0.00  0.00     0.197 C 
HETATM   18  O           1     -18.986 -11.160  -5.335  0.00  0.00    -0.646 OA
HETATM   19  O           1     -20.872 -10.982  -6.383  0.00  0.00    -0.646 OA
ENDBRANCH   5  17
ENDBRANCH   3   5
BRANCH   2  20
HETATM   20  C           1     -21.755  -9.313  -1.541  0.00  0.00     0.283 C 
BRANCH  20  21
HETATM   21  N           1     -21.915  -9.925  -0.180  0.00  0.00    -0.066 N 
HETATM   22  H           1     -22.869  -9.708   0.189  0.00  0.00     0.275 HD
HETATM   23  H           1     -21.794 -10.961  -0.248  0.00  0.00     0.275 HD
HETATM   24  H           1     -21.194  -9.531   0.466  0.00  0.00     0.275 HD
ENDBRANCH  20  21
BRANCH  20  25
HETATM   25  C           1     -21.133  -7.929  -1.404  0.00  0.00     0.145 C 
BRANCH  25  26
HETATM   26  C           1     -22.215  -6.913  -1.134  0.00  0.00     0.217 C 
HETATM   27  O           1     -23.073  -7.147  -0.317  0.00  0.00    -0.274 OA
HETATM   28  N           1     -22.224  -5.726  -1.816  0.00  0.00    -0.370 N 
HETATM   29  H           1     -22.951  -5.045  -1.636  0.00  0.00     0.159 HD
HETATM   30  H           1     -21.505  -5.530  -2.501  0.00  0.00     0.159 HD
ENDBRANCH  25  26
ENDBRANCH  20  25
ENDBRANCH   2  20
TORSDOF 8
ENDMDL
MODEL 3
REMARK VINA RESULT:      -7.6     14.079     17.179
REMARK  8 active torsions:
REMARK  status: ('A' for Active; 'I' for Inactive)
REMARK    1  A    between atoms: N_2  and  C_7 
REMARK    2  A    between atoms: C_5  and  C_6 
REMARK    3  A    between atoms: C_6  and  C_29 
REMARK    4  A    between atoms: C_7  and  C_19 
REMARK    5  A    between atoms: C_7  and  C_8 
REMARK    6  A    between atoms: C_8  and  C_9 
REMARK       I    between atoms: C_9  and  N_10 
REMARK    7  A    between atoms: C_12  and  C_29 
REMARK       I    between atoms: C_19  and  N_20 
REMARK    8  A    between atoms: N_20  and  C_29 
ROOT
HETATM    1  O           1     -35.095   0.806 -12.607  0.00  0.00    -0.271 OA
HETATM    2  C           1     -35.423  -0.271 -13.046  0.00  0.00     0.249 C 
HETATM    3  N           1     -34.851  -1.414 -12.554  0.00  0.00    -0.344 N 
HETATM    4  H           1     -34.008  -1.781 -12.977  0.00  0.00     0.163 HD
ENDROOT
BRANCH   3   5
HETATM    5  C           1     -35.454  -2.098 -11.427  0.00  0.00     0.190 C 
BRANCH   5   6
HETATM    6  C           1     -34.370  -2.487 -10.430  0.00  0.00     0.077 C 
BRANCH   6   7
HETATM    7  C           1     -33.716  -3.759 -10.873  0.00  0.00    -0.028 A 
HETATM    8  C           1     -32.632  -3.862 -11.715  0.00  0.00     0.096 A 
HETATM    9  N           1     -32.346  -5.192 -11.866  0.00  0.00    -0.365 N 
HETATM   10  C           1     -33.228  -5.957 -11.135  0.00  0.00     0.042 A 
HETATM   11  H           1     -31.565  -5.576 -12.456  0.00  0.00     0.165 HD
HETATM   12  C           1     -33.316  -7.345 -10.990  0.00  0.00     0.030 A 
HETATM   13  C           1     -34.102  -5.075 -10.499  0.00  0.00    -0.002 A 
HETATM   14  C           1     -34.331  -7.845 -10.168  0.00  0.00     0.002 A 
HETATM   15  C           1     -35.218  -6.989  -9.519  0.00  0.00     0.001 A 
HETATM   16  C           1     -35.116  -5.602  -9.677  0.00  0.00     0.014 A 
ENDBRANCH   6   7
ENDBRANCH   5   6
BRANCH   5  17
HETATM   17  C           1     -36.449  -1.182 -10.757  0.00  0.00     0.197 C 
HETATM   18  O           1     -36.074  -0.408  -9.850  0.00  0.00    -0.646 OA
HETATM   19  O           1     -37.648  -1.198 -11.109  0.00  0.00    -0.646 OA
ENDBRANCH   5  17
ENDBRANCH   3   5
BRANCH   2  20
HETATM   20  C           1     -36.460  -0.357 -14.139  0.00  0.00     0.283 C 
BRANCH  20  21
HETATM   21  N           1     -37.677   0.422 -13.733  0.00  0.00    -0.066 N 
HETATM   22  H           1     -38.226   0.679 -14.585  0.00  0.00     0.275 HD
HETATM   23  H           1     -38.269  -0.162 -13.100  0.00  0.00     0.275 HD
HETATM   24  H           1     -37.384   1.292 -13.234  0.00  0.00     0.275 HD
ENDBRANCH  20  21
BRANCH  20  25
HETATM   25  C           1     -35.891   0.227 -15.426  0.00  0.00     0.145 C 
BRANCH  25  26
HETATM   26  C           1     -35.911  -0.825 -16.508  0.00  0.00     0.217 C 
HETATM   27  O           1     -36.830  -0.871 -17.289  0.00  0.00    -0.274 OA
HETATM   28  N           1     -34.885  -1.726 -16.604  0.00  0.00    -0.370 N 
HETATM   29  H           1     -34.898  -2.432 -17.330  0.00  0.00     0.159 HD
HETATM   30  H           1     -34.114  -1.688 -15.949  0.00  0.00     0.159 HD
ENDBRANCH  25  26
ENDBRANCH  20  25
ENDBRANCH   2  20
TORSDOF 8
ENDMDL
MODEL 4
REMARK VINA RESULT:      -7.5      2.482      7.349
REMARK  8 active torsions:
REMARK  status: ('A' for Active; 'I' for Inactive)
REMARK    1  A    between atoms: N_2  and  C_7 
REMARK    2  A    between atoms: C_5  and  C_6 
REMARK    3  A    between atoms: C_6  and  C_29 
REMARK    4  A    between atoms: C_7  and  C_19 
REMARK    5  A    between atoms: C_7  and  C_8 
REMARK    6  A    between atoms: C_8  and  C_9 
REMARK       I    between atoms: C_9  and  N_10 
REMARK    7  A    between atoms: C_12  and  C_29 
REMARK       I    between atoms: C_19  and  N_20 
REMARK    8  A    between atoms: N_20  and  C_29 
ROOT
HETATM    1  O           1     -19.017  -5.203  -6.991  0.00  0.00    -0.271 OA
HETATM    2  C           1     -20.118  -5.557  -6.641  0.00  0.00     0.249 C 
HETATM    3  N           1     -20.370  -6.884  -6.412  0.00  0.00    -0.344 N 
HETATM    4  H           1     -20.697  -7.474  -7.166  0.00  0.00     0.163 HD
ENDROOT
BRANCH   3   5
HETATM    5  C           1     -20.169  -7.441  -5.089  0.00  0.00     0.190 C 
BRANCH   5   6
HETATM    6  C           1     -21.485  -8.007  -4.572  0.00  0.00     0.077 C 
BRANCH   6   7
HETATM    7  C           1     -21.748  -7.483  -3.194  0.00  0.00    -0.028 A 
HETATM    8  C           1     -22.107  -6.193  -2.873  0.00  0.00     0.096 A 
HETATM    9  N           1     -22.253  -6.127  -1.513  0.00  0.00    -0.365 N 
HETATM   10  C           1     -21.995  -7.355  -0.945  0.00  0.00     0.042 A 
HETATM   11  H           1     -22.523  -5.263  -0.979  0.00  0.00     0.165 HD
HETATM   12  C           1     -22.021  -7.754   0.396  0.00  0.00     0.030 A 
HETATM   13  C           1     -21.674  -8.228  -1.986  0.00  0.00    -0.002 A 
HETATM   14  C           1     -21.709  -9.088   0.678  0.00  0.00     0.002 A 
HETATM   15  C           1     -21.386  -9.982  -0.340  0.00  0.00     0.001 A 
HETATM   16  C           1     -21.364  -9.565  -1.675  0.00  0.00     0.014 A 
ENDBRANCH   6   7
ENDBRANCH   5   6
BRANCH   5  17
HETATM   17  C           1     -19.140  -8.543  -5.159  0.00  0.00     0.197 C 
HETATM   18  O           1     -18.780  -9.130  -4.117  0.00  0.00    -0.646 OA
HETATM   19  O           1     -18.647  -8.867  -6.262  0.00  0.00    -0.646 OA
ENDBRANCH   5  17
ENDBRANCH   3   5
BRANCH   2  20
HETATM   20  C           1     -21.216  -4.538  -6.458  0.00  0.00     0.283 C 
BRANCH  20  21
HETATM   21  N           1     -20.912  -3.324  -7.285  0.00  0.00    -0.066 N 
HETATM   22  H           1     -21.717  -2.660  -7.238  0.00  0.00     0.275 HD
HETATM   23  H           1     -20.053  -2.857  -6.915  0.00  0.00     0.275 HD
HETATM   24  H           1     -20.754  -3.609  -8.278  0.00  0.00     0.275 HD
ENDBRANCH  20  21
BRANCH  20  25
HETATM   25  C           1     -22.544  -5.136  -6.906  0.00  0.00     0.145 C 
BRANCH  25  26
HETATM   26  C           1     -22.915  -4.583  -8.260  0.00  0.00     0.217 C 
HETATM   27  O           1     -22.250  -4.859  -9.229  0.00  0.00    -0.274 OA
HETATM   28  N           1     -24.007  -3.767  -8.389  0.00  0.00    -0.370 N 
HETATM   29  H           1     -24.256  -3.395  -9.297  0.00  0.00     0.159 HD
HETATM   30  H           1     -24.565  -3.536  -7.577  0.00  0.00     0.159 HD
ENDBRANCH  25  26
ENDBRANCH  20  25
ENDBRANCH   2  20
TORSDOF 8
ENDMDL
MODEL 5
REMARK VINA RESULT:      -7.4      2.494      7.962
REMARK  8 active torsions:
REMARK  status: ('A' for Active; 'I' for Inactive)
REMARK    1  A    between atoms: N_2  and  C_7 
REMARK    2  A    between atoms: C_5  and  C_6 
REMARK    3  A    between atoms: C_6  and  C_29 
REMARK    4  A    between atoms: C_7  and  C_19 
REMARK    5  A    between atoms: C_7  and  C_8 
REMARK    6  A    between atoms: C_8  and  C_9 
REMARK       I    between atoms: C_9  and  N_10 
REMARK    7  A    between atoms: C_12  and  C_29 
REMARK       I    between atoms: C_19  and  N_20 
REMARK    8  A    between atoms: N_20  and  C_29 
ROOT
HETATM    1  O           1     -19.859  -4.506  -6.465  0.00  0.00    -0.271 OA
HETATM    2  C           1     -20.455  -5.384  -7.044  0.00  0.00     0.249 C 
HETATM    3  N           1     -20.260  -6.692  -6.688  0.00  0.00    -0.344 N 
HETATM    4  H           1     -19.534  -7.236  -7.137  0.00  0.00     0.163 HD
ENDROOT
BRANCH   3   5
HETATM    5  C           1     -21.095  -7.297  -5.669  0.00  0.00     0.190 C 
BRANCH   5   6
HETATM    6  C           1     -20.219  -8.063  -4.686  0.00  0.00     0.077 C 
BRANCH   6   7
HETATM    7  C           1     -21.070  -8.991  -3.876  0.00  0.00    -0.028 A 
HETATM    8  C           1     -21.676 -10.140  -4.331  0.00  0.00     0.096 A 
HETATM    9  N           1     -22.358 -10.696  -3.281  0.00  0.00    -0.365 N 
HETATM   10  C           1     -22.204  -9.926  -2.150  0.00  0.00     0.042 A 
HETATM   11  H           1     -22.919 -11.583  -3.332  0.00  0.00     0.165 HD
HETATM   12  C           1     -22.713 -10.104  -0.859  0.00  0.00     0.030 A 
HETATM   13  C           1     -21.395  -8.844  -2.499  0.00  0.00    -0.002 A 
HETATM   14  C           1     -22.384  -9.143   0.103  0.00  0.00     0.002 A 
HETATM   15  C           1     -21.577  -8.053  -0.217  0.00  0.00     0.001 A 
HETATM   16  C           1     -21.077  -7.891  -1.513  0.00  0.00     0.014 A 
ENDBRANCH   6   7
ENDBRANCH   5   6
BRANCH   5  17
HETATM   17  C           1     -21.852  -6.219  -4.935  0.00  0.00     0.197 C 
HETATM   18  O           1     -21.303  -5.590  -4.005  0.00  0.00    -0.646 OA
HETATM   19  O           1     -23.032  -5.955  -5.256  0.00  0.00    -0.646 OA
ENDBRANCH   5  17
ENDBRANCH   3   5
BRANCH   2  20
HETATM   20  C           1     -21.411  -5.039  -8.160  0.00  0.00     0.283 C 
BRANCH  20  21
HETATM   21  N           1     -22.414  -4.039  -7.665  0.00  0.00    -0.066 N 
HETATM   22  H           1     -23.174  -3.928  -8.374  0.00  0.00     0.275 HD
HETATM   23  H           1     -22.824  -4.373  -6.764  0.00  0.00     0.275 HD
HETATM   24  H           1     -21.943  -3.118  -7.514  0.00  0.00     0.275 HD
ENDBRANCH  20  21
BRANCH  20  25
HETATM   25  C           1     -20.635  -4.444  -9.327  0.00  0.00     0.145 C 
BRANCH  25  26
HETATM   26  C           1     -21.552  -4.290 -10.516  0.00  0.00     0.217 C 
HETATM   27  O           1     -22.670  -4.743 -10.479  0.00  0.00    -0.274 OA
HETATM   28  N           1     -21.115  -3.636 -11.637  0.00  0.00    -0.370 N 
HETATM   29  H           1     -21.729  -3.534 -12.435  0.00  0.00     0.159 HD
HETATM   30  H           1     -20.177  -3.256 -11.668  0.00  0.00     0.159 HD
ENDBRANCH  25  26
ENDBRANCH  20  25
ENDBRANCH   2  20
TORSDOF 8
ENDMDL
MODEL 6
REMARK VINA RESULT:      -7.4      3.229      7.029
REMARK  8 active torsions:
REMARK  status: ('A' for Active; 'I' for Inactive)
REMARK    1  A    between atoms: N_2  and  C_7 
REMARK    2  A    between atoms: C_5  and  C_6 
REMARK    3  A    between atoms: C_6  and  C_29 
REMARK    4  A    between atoms: C_7  and  C_19 
REMARK    5  A    between atoms: C_7  and  C_8 
REMARK    6  A    between atoms: C_8  and  C_9 
REMARK       I    between atoms: C_9  and  N_10 
REMARK    7  A    between atoms: C_12  and  C_29 
REMARK       I    between atoms: C_19  and  N_20 
REMARK    8  A    between atoms: N_20  and  C_29 
ROOT
HETATM    1  O           1     -22.737  -6.028  -4.838  0.00  0.00    -0.271 OA
HETATM    2  C           1     -21.605  -6.197  -4.449  0.00  0.00     0.249 C 
HETATM    3  N           1     -21.363  -6.400  -3.117  0.00  0.00    -0.344 N 
HETATM    4  H           1     -21.184  -5.611  -2.509  0.00  0.00     0.163 HD
ENDROOT
BRANCH   3   5
HETATM    5  C           1     -21.361  -7.746  -2.578  0.00  0.00     0.190 C 
BRANCH   5   6
HETATM    6  C           1     -19.929  -8.175  -2.289  0.00  0.00     0.077 C 
BRANCH   6   7
HETATM    7  C           1     -19.466  -9.121  -3.353  0.00  0.00    -0.028 A 
HETATM    8  C           1     -20.250  -9.684  -4.335  0.00  0.00     0.096 A 
HETATM    9  N           1     -19.447 -10.486  -5.102  0.00  0.00    -0.365 N 
HETATM   10  C           1     -18.153 -10.453  -4.634  0.00  0.00     0.042 A 
HETATM   11  H           1     -19.773 -11.046  -5.929  0.00  0.00     0.165 HD
HETATM   12  C           1     -17.006 -11.107  -5.098  0.00  0.00     0.030 A 
HETATM   13  C           1     -18.138  -9.599  -3.530  0.00  0.00    -0.002 A 
HETATM   14  C           1     -15.810 -10.879  -4.411  0.00  0.00     0.002 A 
HETATM   15  C           1     -15.765 -10.031  -3.307  0.00  0.00     0.001 A 
HETATM   16  C           1     -16.921  -9.385  -2.856  0.00  0.00     0.014 A 
ENDBRANCH   6   7
ENDBRANCH   5   6
BRANCH   5  17
HETATM   17  C           1     -22.163  -7.776  -1.300  0.00  0.00     0.197 C 
HETATM   18  O           1     -22.289  -8.845  -0.666  0.00  0.00    -0.646 OA
HETATM   19  O           1     -22.702  -6.730  -0.876  0.00  0.00    -0.646 OA
ENDBRANCH   5  17
ENDBRANCH   3   5
BRANCH   2  20
HETATM   20  C           1     -20.459  -6.182  -5.431  0.00  0.00     0.283 C 
BRANCH  20  21
HETATM   21  N           1     -20.850  -6.942  -6.664  0.00  0.00    -0.066 N 
HETATM   22  H           1     -21.189  -6.273  -7.393  0.00  0.00     0.275 HD
HETATM   23  H           1     -20.020  -7.463  -7.029  0.00  0.00     0.275 HD
HETATM   24  H           1     -21.612  -7.618  -6.431  0.00  0.00     0.275 HD
ENDBRANCH  20  21
BRANCH  20  25
HETATM   25  C           1     -20.130  -4.743  -5.806  0.00  0.00     0.145 C 
BRANCH  25  26
HETATM   26  C           1     -20.763  -4.410  -7.134  0.00  0.00     0.217 C 
HETATM   27  O           1     -20.180  -4.661  -8.161  0.00  0.00    -0.274 OA
HETATM   28  N           1     -21.999  -3.823  -7.175  0.00  0.00    -0.370 N 
HETATM   29  H           1     -22.424  -3.599  -8.066  0.00  0.00     0.159 HD
HETATM   30  H           1     -22.488  -3.613  -6.314  0.00  0.00     0.159 HD
ENDBRANCH  25  26
ENDBRANCH  20  25
ENDBRANCH   2  20
TORSDOF 8
ENDMDL
MODEL 7
REMARK VINA RESULT:      -7.4      2.997      7.726
REMARK  8 active torsions:
REMARK  status: ('A' for Active; 'I' for Inactive)
REMARK    1  A    between atoms: N_2  and  C_7 
REMARK    2  A    between atoms: C_5  and  C_6 
REMARK    3  A    between atoms: C_6  and  C_29 
REMARK    4  A    between atoms: C_7  and  C_19 
REMARK    5  A    between atoms: C_7  and  C_8 
REMARK    6  A    between atoms: C_8  and  C_9 
REMARK       I    between atoms: C_9  and  N_10 
REMARK    7  A    between atoms: C_12  and  C_29 
REMARK       I    between atoms: C_19  and  N_20 
REMARK    8  A    between atoms: N_20  and  C_29 
ROOT
HETATM    1  O           1     -19.464  -4.435  -8.932  0.00  0.00    -0.271 OA
HETATM    2  C           1     -20.622  -4.778  -8.940  0.00  0.00     0.249 C 
HETATM    3  N           1     -20.996  -5.940  -8.320  0.00  0.00    -0.344 N 
HETATM    4  H           1     -20.999  -6.811  -8.836  0.00  0.00     0.163 HD
ENDROOT
BRANCH   3   5
HETATM    5  C           1     -21.390  -5.923  -6.925  0.00  0.00     0.190 C 
BRANCH   5   6
HETATM    6  C           1     -20.151  -6.034  -6.047  0.00  0.00     0.077 C 
BRANCH   6   7
HETATM    7  C           1     -20.332  -7.148  -5.064  0.00  0.00    -0.028 A 
HETATM    8  C           1     -19.911  -8.449  -5.226  0.00  0.00     0.096 A 
HETATM    9  N           1     -20.269  -9.147  -4.103  0.00  0.00    -0.365 N 
HETATM   10  C           1     -20.916  -8.319  -3.213  0.00  0.00     0.042 A 
HETATM   11  H           1     -20.077 -10.168  -3.944  0.00  0.00     0.165 HD
HETATM   12  C           1     -21.452  -8.593  -1.950  0.00  0.00     0.030 A 
HETATM   13  C           1     -20.968  -7.052  -3.796  0.00  0.00    -0.002 A 
HETATM   14  C           1     -22.060  -7.537  -1.264  0.00  0.00     0.002 A 
HETATM   15  C           1     -22.126  -6.261  -1.820  0.00  0.00     0.001 A 
HETATM   16  C           1     -21.585  -6.006  -3.085  0.00  0.00     0.014 A 
ENDBRANCH   6   7
ENDBRANCH   5   6
BRANCH   5  17
HETATM   17  C           1     -22.108  -4.631  -6.622  0.00  0.00     0.197 C 
HETATM   18  O           1     -23.357  -4.595  -6.620  0.00  0.00    -0.646 OA
HETATM   19  O           1     -21.452  -3.595  -6.375  0.00  0.00    -0.646 OA
ENDBRANCH   5  17
ENDBRANCH   3   5
BRANCH   2  20
HETATM   20  C           1     -21.657  -3.926  -9.635  0.00  0.00     0.283 C 
BRANCH  20  21
HETATM   21  N           1     -21.055  -3.318 -10.868  0.00  0.00    -0.066 N 
HETATM   22  H           1     -20.272  -2.682 -10.595  0.00  0.00     0.275 HD
HETATM   23  H           1     -20.688  -4.077 -11.487  0.00  0.00     0.275 HD
HETATM   24  H           1     -21.785  -2.772 -11.379  0.00  0.00     0.275 HD
ENDBRANCH  20  21
BRANCH  20  25
HETATM   25  C           1     -22.847  -4.792 -10.027  0.00  0.00     0.145 C 
BRANCH  25  26
HETATM   26  C           1     -24.088  -3.937 -10.110  0.00  0.00     0.217 C 
HETATM   27  O           1     -24.639  -3.772 -11.171  0.00  0.00    -0.274 OA
HETATM   28  N           1     -24.588  -3.348  -8.980  0.00  0.00    -0.370 N 
HETATM   29  H           1     -25.420  -2.774  -9.034  0.00  0.00     0.159 HD
HETATM   30  H           1     -24.126  -3.486  -8.090  0.00  0.00     0.159 HD
ENDBRANCH  25  26
ENDBRANCH  20  25
ENDBRANCH   2  20
TORSDOF 8
ENDMDL
MODEL 8
REMARK VINA RESULT:      -6.9      4.273      7.512
REMARK  8 active torsions:
REMARK  status: ('A' for Active; 'I' for Inactive)
REMARK    1  A    between atoms: N_2  and  C_7 
REMARK    2  A    between atoms: C_5  and  C_6 
REMARK    3  A    between atoms: C_6  and  C_29 
REMARK    4  A    between atoms: C_7  and  C_19 
REMARK    5  A    between atoms: C_7  and  C_8 
REMARK    6  A    between atoms: C_8  and  C_9 
REMARK       I    between atoms: C_9  and  N_10 
REMARK    7  A    between atoms: C_12  and  C_29 
REMARK       I    between atoms: C_19  and  N_20 
REMARK    8  A    between atoms: N_20  and  C_29 
ROOT
HETATM    1  O           1     -20.288  -9.393  -5.653  0.00  0.00    -0.271 OA
HETATM    2  C           1     -19.830  -9.140  -4.564  0.00  0.00     0.249 C 
HETATM    3  N           1     -20.062  -7.918  -3.991  0.00  0.00    -0.344 N 
HETATM    4  H           1     -19.423  -7.151  -4.158  0.00  0.00     0.163 HD
ENDROOT
BRANCH   3   5
HETATM    5  C           1     -21.223  -7.724  -3.145  0.00  0.00     0.190 C 
BRANCH   5   6
HETATM    6  C           1     -20.810  -7.835  -1.684  0.00  0.00     0.077 C 
BRANCH   6   7
HETATM    7  C           1     -21.923  -8.450  -0.894  0.00  0.00    -0.028 A 
HETATM    8  C           1     -22.607  -7.856   0.143  0.00  0.00     0.096 A 
HETATM    9  N           1     -23.542  -8.749   0.593  0.00  0.00    -0.365 N 
HETATM   10  C           1     -23.478  -9.916  -0.136  0.00  0.00     0.042 A 
HETATM   11  H           1     -24.213  -8.570   1.381  0.00  0.00     0.165 HD
HETATM   12  C           1     -24.232 -11.090  -0.032  0.00  0.00     0.030 A 
HETATM   13  C           1     -22.463  -9.752  -1.081  0.00  0.00    -0.002 A 
HETATM   14  C           1     -23.937 -12.127  -0.922  0.00  0.00     0.002 A 
HETATM   15  C           1     -22.931 -11.992  -1.876  0.00  0.00     0.001 A 
HETATM   16  C           1     -22.186 -10.811  -1.966  0.00  0.00     0.014 A 
ENDBRANCH   6   7
ENDBRANCH   5   6
BRANCH   5  17
HETATM   17  C           1     -21.808  -6.357  -3.401  0.00  0.00     0.197 C 
HETATM   18  O           1     -22.077  -5.602  -2.443  0.00  0.00    -0.646 OA
HETATM   19  O           1     -22.024  -5.980  -4.574  0.00  0.00    -0.646 OA
ENDBRANCH   5  17
ENDBRANCH   3   5
BRANCH   2  20
HETATM   20  C           1     -19.000 -10.169  -3.836  0.00  0.00     0.283 C 
BRANCH  20  21
HETATM   21  N           1     -18.405 -11.123  -4.829  0.00  0.00    -0.066 N 
HETATM   22  H           1     -18.656 -12.103  -4.565  0.00  0.00     0.275 HD
HETATM   23  H           1     -18.780 -10.912  -5.782  0.00  0.00     0.275 HD
HETATM   24  H           1     -17.365 -11.020  -4.833  0.00  0.00     0.275 HD
ENDBRANCH  20  21
BRANCH  20  25
HETATM   25  C           1     -17.883  -9.472  -3.071  0.00  0.00     0.145 C 
BRANCH  25  26
HETATM   26  C           1     -17.020 -10.504  -2.386  0.00  0.00     0.217 C 
HETATM   27  O           1     -17.531 -11.408  -1.772  0.00  0.00    -0.274 OA
HETATM   28  N           1     -15.656 -10.413  -2.462  0.00  0.00    -0.370 N 
HETATM   29  H           1     -15.076 -11.105  -2.003  0.00  0.00     0.159 HD
HETATM   30  H           1     -15.227  -9.655  -2.978  0.00  0.00     0.159 HD
ENDBRANCH  25  26
ENDBRANCH  20  25
ENDBRANCH   2  20
TORSDOF 8
ENDMDL
MODEL 9
REMARK VINA RESULT:      -6.9     13.094     14.872
REMARK  8 active torsions:
REMARK  status: ('A' for Active; 'I' for Inactive)
REMARK    1  A    between atoms: N_2  and  C_7 
REMARK    2  A    between atoms: C_5  and  C_6 
REMARK    3  A    between atoms: C_6  and  C_29 
REMARK    4  A    between atoms: C_7  and  C_19 
REMARK    5  A    between atoms: C_7  and  C_8 
REMARK    6  A    between atoms: C_8  and  C_9 
REMARK       I    between atoms: C_9  and  N_10 
REMARK    7  A    between atoms: C_12  and  C_29 
REMARK       I    between atoms: C_19  and  N_20 
REMARK    8  A    between atoms: N_20  and  C_29 
ROOT
HETATM    1  O           1     -34.749  -2.881 -15.164  0.00  0.00    -0.271 OA
HETATM    2  C           1     -34.121  -3.859 -14.834  0.00  0.00     0.249 C 
HETATM    3  N           1     -33.549  -4.658 -15.788  0.00  0.00    -0.344 N 
HETATM    4  H           1     -34.069  -5.435 -16.176  0.00  0.00     0.163 HD
ENDROOT
BRANCH   3   5
HETATM    5  C           1     -32.198  -4.391 -16.242  0.00  0.00     0.190 C 
BRANCH   5   6
HETATM    6  C           1     -31.587  -5.672 -16.794  0.00  0.00     0.077 C 
BRANCH   6   7
HETATM    7  C           1     -30.143  -5.747 -16.403  0.00  0.00    -0.028 A 
HETATM    8  C           1     -29.643  -5.642 -15.125  0.00  0.00     0.096 A 
HETATM    9  N           1     -28.281  -5.763 -15.199  0.00  0.00    -0.365 N 
HETATM   10  C           1     -27.888  -5.946 -16.506  0.00  0.00     0.042 A 
HETATM   11  H           1     -27.629  -5.723 -14.376  0.00  0.00     0.165 HD
HETATM   12  C           1     -26.610  -6.115 -17.050  0.00  0.00     0.030 A 
HETATM   13  C           1     -29.045  -5.939 -17.286  0.00  0.00    -0.002 A 
HETATM   14  C           1     -26.516  -6.283 -18.436  0.00  0.00     0.002 A 
HETATM   15  C           1     -27.654  -6.281 -19.239  0.00  0.00     0.001 A 
HETATM   16  C           1     -28.924  -6.110 -18.678  0.00  0.00     0.014 A 
ENDBRANCH   6   7
ENDBRANCH   5   6
BRANCH   5  17
HETATM   17  C           1     -32.230  -3.340 -17.324  0.00  0.00     0.197 C 
HETATM   18  O           1     -33.325  -2.906 -17.741  0.00  0.00    -0.646 OA
HETATM   19  O           1     -31.161  -2.906 -17.804  0.00  0.00    -0.646 OA
ENDBRANCH   5  17
ENDBRANCH   3   5
BRANCH   2  20
HETATM   20  C           1     -33.968  -4.201 -13.372  0.00  0.00     0.283 C 
BRANCH  20  21
HETATM   21  N           1     -32.514  -4.394 -13.055  0.00  0.00    -0.066 N 
HETATM   22  H           1     -32.416  -5.087 -12.279  0.00  0.00     0.275 HD
HETATM   23  H           1     -32.017  -4.748 -13.904  0.00  0.00     0.275 HD
HETATM   24  H           1     -32.097  -3.482 -12.762  0.00  0.00     0.275 HD
ENDBRANCH  20  21
BRANCH  20  25
HETATM   25  C           1     -34.525  -3.065 -12.524  0.00  0.00     0.145 C 
BRANCH  25  26
HETATM   26  C           1     -33.873  -3.085 -11.163  0.00  0.00     0.217 C 
HETATM   27  O           1     -33.764  -4.125 -10.561  0.00  0.00    -0.274 OA
HETATM   28  N           1     -33.405  -1.922 -10.613  0.00  0.00    -0.370 N 
HETATM   29  H           1     -32.968  -1.935  -9.699  0.00  0.00     0.159 HD
HETATM   30  H           1     -33.496  -1.050 -11.118  0.00  0.00     0.159 HD
ENDBRANCH  25  26
ENDBRANCH  20  25
ENDBRANCH   2  20
TORSDOF 8
ENDMDL
