MODEL 1
REMARK VINA RESULT:      -6.6      0.000      0.000
REMARK  10 active torsions:
REMARK  status: ('A' for Active; 'I' for Inactive)
REMARK    1  A    between atoms: C_1  and  C_10 
REMARK    2  A    between atoms: C_1  and  O_18 
REMARK       I    between atoms: C_2  and  N_9 
REMARK    3  A    between atoms: C_2  and  C_20 
REMARK    4  A    between atoms: C_3  and  C_20 
REMARK    5  A    between atoms: C_3  and  C_4 
REMARK    6  A    between atoms: N_9  and  C_10 
REMARK    7  A    between atoms: C_10  and  C_15 
REMARK    8  A    between atoms: O_12  and  P_19 
REMARK    9  A    between atoms: N_13  and  C_20 
REMARK   10  A    between atoms: O_18  and  P_19 
ROOT
HETATM    1  C           1     -28.613  -6.337 -18.905  0.00  0.00     0.249 C 
HETATM    2  H           1     -27.791  -8.236 -18.938  0.00  0.00     0.163 HD
HETATM    3  N           1     -27.645  -7.266 -19.184  0.00  0.00    -0.343 N 
HETATM    4  O           1     -28.440  -5.178 -19.199  0.00  0.00    -0.271 OA
ENDROOT
BRANCH   3   5
HETATM    5  C           1     -26.415  -6.858 -19.832  0.00  0.00     0.210 C 
BRANCH   5   6
HETATM    6  C           1     -25.304  -6.759 -18.795  0.00  0.00     0.217 C 
BRANCH   6   7
HETATM    7  O           1     -25.813  -6.196 -17.616  0.00  0.00    -0.287 OA
BRANCH   7   8
HETATM    8  P           1     -25.277  -6.837 -16.235  0.00  0.00     0.406 P 
HETATM    9  O           1     -26.412  -7.440 -15.499  0.00  0.00    -0.624 OA
HETATM   10  O           1     -24.273  -7.883 -16.532  0.00  0.00    -0.624 OA
BRANCH   8  11
HETATM   11  O           1     -24.600  -5.683 -15.332  0.00  0.00    -0.300 OA
HETATM   12  H           1     -24.732  -4.886 -15.816  0.00  0.00     0.223 HD
ENDBRANCH   8  11
ENDBRANCH   7   8
ENDBRANCH   6   7
ENDBRANCH   5   6
BRANCH   5  13
HETATM   13  C           1     -26.037  -7.878 -20.879  0.00  0.00     0.198 C 
HETATM   14  O           1     -24.843  -7.997 -21.233  0.00  0.00    -0.646 OA
HETATM   15  O           1     -26.916  -8.603 -21.392  0.00  0.00    -0.646 OA
ENDBRANCH   5  13
ENDBRANCH   3   5
BRANCH   1  16
HETATM   16  C           1     -29.893  -6.760 -18.231  0.00  0.00     0.275 C 
BRANCH  16  17
HETATM   17  C           1     -29.648  -6.941 -16.739  0.00  0.00     0.046 C 
BRANCH  17  18
HETATM   18  C           1     -29.983  -5.646 -16.009  0.00  0.00    -0.020 C 
HETATM   19  C           1     -28.716  -4.818 -15.836  0.00  0.00     0.009 C 
HETATM   20  C           1     -30.998  -4.853 -16.823  0.00  0.00     0.009 C 
ENDBRANCH  17  18
ENDBRANCH  16  17
BRANCH  16  21
HETATM   21  N           1     -30.363  -8.058 -18.821  0.00  0.00    -0.066 N 
HETATM   22  H           1     -29.639  -8.795 -18.662  0.00  0.00     0.275 HD
HETATM   23  H           1     -31.258  -8.344 -18.363  0.00  0.00     0.275 HD
HETATM   24  H           1     -30.518  -7.937 -19.847  0.00  0.00     0.275 HD
ENDBRANCH  16  21
ENDBRANCH   1  16
TORSDOF 10
ENDMDL
MODEL 2
REMARK VINA RESULT:      -6.6      2.633      5.812
REMARK  10 active torsions:
REMARK  status: ('A' for Active; 'I' for Inactive)
REMARK    1  A    between atoms: C_1  and  C_10 
REMARK    2  A    between atoms: C_1  and  O_18 
REMARK       I    between atoms: C_2  and  N_9 
REMARK    3  A    between atoms: C_2  and  C_20 
REMARK    4  A    between atoms: C_3  and  C_20 
REMARK    5  A    between atoms: C_3  and  C_4 
REMARK    6  A    between atoms: N_9  and  C_10 
REMARK    7  A    between atoms: C_10  and  C_15 
REMARK    8  A    between atoms: O_12  and  P_19 
REMARK    9  A    between atoms: N_13  and  C_20 
REMARK   10  A    between atoms: O_18  and  P_19 
ROOT
HETATM    1  C           1     -25.921  -6.539 -18.633  0.00  0.00     0.249 C 
HETATM    2  H           1     -27.926  -6.363 -18.150  0.00  0.00     0.163 HD
HETATM    3  N           1     -26.979  -6.282 -17.802  0.00  0.00    -0.343 N 
HETATM    4  O           1     -24.790  -6.444 -18.218  0.00  0.00    -0.271 OA
ENDROOT
BRANCH   3   5
HETATM    5  C           1     -26.742  -5.896 -16.425  0.00  0.00     0.210 C 
BRANCH   5   6
HETATM    6  C           1     -27.956  -5.146 -15.893  0.00  0.00     0.217 C 
BRANCH   6   7
HETATM    7  O           1     -28.149  -3.977 -16.641  0.00  0.00    -0.287 OA
BRANCH   7   8
HETATM    8  P           1     -29.520  -3.897 -17.490  0.00  0.00     0.406 P 
HETATM    9  O           1     -29.328  -4.560 -18.800  0.00  0.00    -0.624 OA
HETATM   10  O           1     -30.603  -4.579 -16.747  0.00  0.00    -0.624 OA
BRANCH   8  11
HETATM   11  O           1     -29.921  -2.350 -17.722  0.00  0.00    -0.300 OA
HETATM   12  H           1     -29.224  -1.993 -18.246  0.00  0.00     0.223 HD
ENDBRANCH   8  11
ENDBRANCH   7   8
ENDBRANCH   6   7
ENDBRANCH   5   6
BRANCH   5  13
HETATM   13  C           1     -26.508  -7.132 -15.591  0.00  0.00     0.198 C 
HETATM   14  O           1     -27.479  -7.752 -15.106  0.00  0.00    -0.646 OA
HETATM   15  O           1     -25.343  -7.535 -15.384  0.00  0.00    -0.646 OA
ENDBRANCH   5  13
ENDBRANCH   3   5
BRANCH   1  16
HETATM   16  C           1     -26.166  -6.940 -20.066  0.00  0.00     0.275 C 
BRANCH  16  17
HETATM   17  C           1     -24.944  -6.598 -20.907  0.00  0.00     0.046 C 
BRANCH  17  18
HETATM   18  C           1     -24.344  -7.879 -21.475  0.00  0.00    -0.020 C 
HETATM   19  C           1     -23.865  -7.628 -22.899  0.00  0.00     0.009 C 
HETATM   20  C           1     -23.165  -8.311 -20.613  0.00  0.00     0.009 C 
ENDBRANCH  17  18
ENDBRANCH  16  17
BRANCH  16  21
HETATM   21  N           1     -27.360  -6.201 -20.594  0.00  0.00    -0.066 N 
HETATM   22  H           1     -27.234  -5.176 -20.432  0.00  0.00     0.275 HD
HETATM   23  H           1     -27.455  -6.382 -21.619  0.00  0.00     0.275 HD
HETATM   24  H           1     -28.219  -6.530 -20.099  0.00  0.00     0.275 HD
ENDBRANCH  16  21
ENDBRANCH   1  16
TORSDOF 10
ENDMDL
MODEL 3
REMARK VINA RESULT:      -6.4     11.496     13.477
REMARK  10 active torsions:
REMARK  status: ('A' for Active; 'I' for Inactive)
REMARK    1  A    between atoms: C_1  and  C_10 
REMARK    2  A    between atoms: C_1  and  O_18 
REMARK       I    between atoms: C_2  and  N_9 
REMARK    3  A    between atoms: C_2  and  C_20 
REMARK    4  A    between atoms: C_3  and  C_20 
REMARK    5  A    between atoms: C_3  and  C_4 
REMARK    6  A    between atoms: N_9  and  C_10 
REMARK    7  A    between atoms: C_10  and  C_15 
REMARK    8  A    between atoms: O_12  and  P_19 
REMARK    9  A    between atoms: N_13  and  C_20 
REMARK   10  A    between atoms: O_18  and  P_19 
ROOT
HETATM    1  C           1     -21.218  -6.296  -5.938  0.00  0.00     0.249 C 
HETATM    2  H           1     -21.314  -4.229  -5.952  0.00  0.00     0.163 HD
HETATM    3  N           1     -21.346  -5.064  -6.522  0.00  0.00    -0.343 N 
HETATM    4  O           1     -21.255  -7.294  -6.619  0.00  0.00    -0.271 OA
ENDROOT
BRANCH   3   5
HETATM    5  C           1     -21.525  -4.957  -7.956  0.00  0.00     0.210 C 
BRANCH   5   6
HETATM    6  C           1     -22.539  -3.861  -8.260  0.00  0.00     0.217 C 
BRANCH   6   7
HETATM    7  O           1     -23.623  -4.407  -8.961  0.00  0.00    -0.287 OA
BRANCH   7   8
HETATM    8  P           1     -23.740  -3.994 -10.517  0.00  0.00     0.406 P 
HETATM    9  O           1     -23.766  -5.217 -11.351  0.00  0.00    -0.624 OA
HETATM   10  O           1     -24.986  -3.225 -10.732  0.00  0.00    -0.624 OA
BRANCH   8  11
HETATM   11  O           1     -22.471  -3.085 -10.931  0.00  0.00    -0.300 OA
HETATM   12  H           1     -22.206  -2.659 -10.134  0.00  0.00     0.223 HD
ENDBRANCH   8  11
ENDBRANCH   7   8
ENDBRANCH   6   7
ENDBRANCH   5   6
BRANCH   5  13
HETATM   13  C           1     -20.205  -4.615  -8.603  0.00  0.00     0.198 C 
HETATM   14  O           1     -20.091  -4.649  -9.848  0.00  0.00    -0.646 OA
HETATM   15  O           1     -19.226  -4.297  -7.895  0.00  0.00    -0.646 OA
ENDBRANCH   5  13
ENDBRANCH   3   5
BRANCH   1  16
HETATM   16  C           1     -21.032  -6.409  -4.446  0.00  0.00     0.275 C 
BRANCH  16  17
HETATM   17  C           1     -20.551  -7.812  -4.097  0.00  0.00     0.046 C 
BRANCH  17  18
HETATM   18  C           1     -21.295  -8.310  -2.864  0.00  0.00    -0.020 C 
HETATM   19  C           1     -21.703  -9.763  -3.070  0.00  0.00     0.009 C 
HETATM   20  C           1     -20.386  -8.207  -1.647  0.00  0.00     0.009 C 
ENDBRANCH  17  18
ENDBRANCH  16  17
BRANCH  16  21
HETATM   21  N           1     -22.338  -6.142  -3.758  0.00  0.00    -0.066 N 
HETATM   22  H           1     -22.461  -6.819  -2.971  0.00  0.00     0.275 HD
HETATM   23  H           1     -22.339  -5.167  -3.382  0.00  0.00     0.275 HD
HETATM   24  H           1     -23.120  -6.255  -4.441  0.00  0.00     0.275 HD
ENDBRANCH  16  21
ENDBRANCH   1  16
TORSDOF 10
ENDMDL
MODEL 4
REMARK VINA RESULT:      -6.0     12.223     14.261
REMARK  10 active torsions:
REMARK  status: ('A' for Active; 'I' for Inactive)
REMARK    1  A    between atoms: C_1  and  C_10 
REMARK    2  A    between atoms: C_1  and  O_18 
REMARK       I    between atoms: C_2  and  N_9 
REMARK    3  A    between atoms: C_2  and  C_20 
REMARK    4  A    between atoms: C_3  and  C_20 
REMARK    5  A    between atoms: C_3  and  C_4 
REMARK    6  A    between atoms: N_9  and  C_10 
REMARK    7  A    between atoms: C_10  and  C_15 
REMARK    8  A    between atoms: O_12  and  P_19 
REMARK    9  A    between atoms: N_13  and  C_20 
REMARK   10  A    between atoms: O_18  and  P_19 
ROOT
HETATM    1  C           1     -21.094  -7.496  -5.263  0.00  0.00     0.249 C 
HETATM    2  H           1     -22.217  -5.766  -5.095  0.00  0.00     0.163 HD
HETATM    3  N           1     -21.540  -6.264  -5.659  0.00  0.00    -0.343 N 
HETATM    4  O           1     -20.285  -8.091  -5.937  0.00  0.00    -0.271 OA
ENDROOT
BRANCH   3   5
HETATM    5  C           1     -21.044  -5.673  -6.886  0.00  0.00     0.210 C 
BRANCH   5   6
HETATM    6  C           1     -22.134  -4.814  -7.512  0.00  0.00     0.217 C 
BRANCH   6   7
HETATM    7  O           1     -22.067  -4.916  -8.909  0.00  0.00    -0.287 OA
BRANCH   7   8
HETATM    8  P           1     -23.283  -4.243  -9.729  0.00  0.00     0.406 P 
HETATM    9  O           1     -22.745  -3.225 -10.660  0.00  0.00    -0.624 OA
HETATM   10  O           1     -23.998  -5.285 -10.498  0.00  0.00    -0.624 OA
BRANCH   8  11
HETATM   11  O           1     -24.306  -3.541  -8.695  0.00  0.00    -0.300 OA
HETATM   12  H           1     -24.891  -3.038  -9.235  0.00  0.00     0.223 HD
ENDBRANCH   8  11
ENDBRANCH   7   8
ENDBRANCH   6   7
ENDBRANCH   5   6
BRANCH   5  13
HETATM   13  C           1     -19.841  -4.814  -6.578  0.00  0.00     0.198 C 
HETATM   14  O           1     -19.629  -4.432  -5.406  0.00  0.00    -0.646 OA
HETATM   15  O           1     -19.057  -4.484  -7.494  0.00  0.00    -0.646 OA
ENDBRANCH   5  13
ENDBRANCH   3   5
BRANCH   1  16
HETATM   16  C           1     -21.610  -8.113  -3.988  0.00  0.00     0.275 C 
BRANCH  16  17
HETATM   17  C           1     -20.570  -7.953  -2.887  0.00  0.00     0.046 C 
BRANCH  17  18
HETATM   18  C           1     -21.226  -7.344  -1.654  0.00  0.00    -0.020 C 
HETATM   19  C           1     -22.190  -6.245  -2.081  0.00  0.00     0.009 C 
HETATM   20  C           1     -21.990  -8.424  -0.900  0.00  0.00     0.009 C 
ENDBRANCH  17  18
ENDBRANCH  16  17
BRANCH  16  21
HETATM   21  N           1     -21.880  -9.571  -4.211  0.00  0.00    -0.066 N 
HETATM   22  H           1     -21.029 -10.026  -4.613  0.00  0.00     0.275 HD
HETATM   23  H           1     -22.119 -10.024  -3.300  0.00  0.00     0.275 HD
HETATM   24  H           1     -22.680  -9.679  -4.876  0.00  0.00     0.275 HD
ENDBRANCH  16  21
ENDBRANCH   1  16
TORSDOF 10
ENDMDL
MODEL 5
REMARK VINA RESULT:      -5.9      2.789      5.756
REMARK  10 active torsions:
REMARK  status: ('A' for Active; 'I' for Inactive)
REMARK    1  A    between atoms: C_1  and  C_10 
REMARK    2  A    between atoms: C_1  and  O_18 
REMARK       I    between atoms: C_2  and  N_9 
REMARK    3  A    between atoms: C_2  and  C_20 
REMARK    4  A    between atoms: C_3  and  C_20 
REMARK    5  A    between atoms: C_3  and  C_4 
REMARK    6  A    between atoms: N_9  and  C_10 
REMARK    7  A    between atoms: C_10  and  C_15 
REMARK    8  A    between atoms: O_12  and  P_19 
REMARK    9  A    between atoms: N_13  and  C_20 
REMARK   10  A    between atoms: O_18  and  P_19 
ROOT
HETATM    1  C           1     -25.743  -6.362 -17.513  0.00  0.00     0.249 C 
HETATM    2  H           1     -27.075  -7.221 -18.845  0.00  0.00     0.163 HD
HETATM    3  N           1     -26.984  -6.713 -17.974  0.00  0.00    -0.343 N 
HETATM    4  O           1     -25.634  -5.757 -16.473  0.00  0.00    -0.271 OA
ENDROOT
BRANCH   3   5
HETATM    5  C           1     -28.166  -6.359 -17.214  0.00  0.00     0.210 C 
BRANCH   5   6
HETATM    6  C           1     -29.331  -6.128 -18.168  0.00  0.00     0.217 C 
BRANCH   6   7
HETATM    7  O           1     -29.336  -4.789 -18.585  0.00  0.00    -0.287 OA
BRANCH   7   8
HETATM    8  P           1     -30.036  -3.736 -17.582  0.00  0.00     0.406 P 
HETATM    9  O           1     -30.578  -4.459 -16.409  0.00  0.00    -0.624 OA
HETATM   10  O           1     -29.036  -2.744 -17.129  0.00  0.00    -0.624 OA
BRANCH   8  11
HETATM   11  O           1     -31.237  -2.977 -18.349  0.00  0.00    -0.300 OA
HETATM   12  H           1     -31.063  -2.059 -18.226  0.00  0.00     0.223 HD
ENDBRANCH   8  11
ENDBRANCH   7   8
ENDBRANCH   6   7
ENDBRANCH   5   6
BRANCH   5  13
HETATM   13  C           1     -28.508  -7.482 -16.265  0.00  0.00     0.198 C 
HETATM   14  O           1     -29.301  -8.381 -16.620  0.00  0.00    -0.646 OA
HETATM   15  O           1     -27.999  -7.513 -15.124  0.00  0.00    -0.646 OA
ENDBRANCH   5  13
ENDBRANCH   3   5
BRANCH   1  16
HETATM   16  C           1     -24.513  -6.730 -18.304  0.00  0.00     0.275 C 
BRANCH  16  17
HETATM   17  C           1     -24.912  -7.576 -19.505  0.00  0.00     0.046 C 
BRANCH  17  18
HETATM   18  C           1     -24.504  -6.861 -20.787  0.00  0.00    -0.020 C 
HETATM   19  C           1     -24.239  -7.888 -21.880  0.00  0.00     0.009 C 
HETATM   20  C           1     -25.625  -5.930 -21.229  0.00  0.00     0.009 C 
ENDBRANCH  17  18
ENDBRANCH  16  17
BRANCH  16  21
HETATM   21  N           1     -23.575  -7.512 -17.432  0.00  0.00    -0.066 N 
HETATM   22  H           1     -22.865  -6.866 -17.017  0.00  0.00     0.275 HD
HETATM   23  H           1     -24.115  -7.974 -16.667  0.00  0.00     0.275 HD
HETATM   24  H           1     -23.091  -8.238 -18.006  0.00  0.00     0.275 HD
ENDBRANCH  16  21
ENDBRANCH   1  16
TORSDOF 10
ENDMDL
MODEL 6
REMARK VINA RESULT:      -5.9     12.962     15.003
REMARK  10 active torsions:
REMARK  status: ('A' for Active; 'I' for Inactive)
REMARK    1  A    between atoms: C_1  and  C_10 
REMARK    2  A    between atoms: C_1  and  O_18 
REMARK       I    between atoms: C_2  and  N_9 
REMARK    3  A    between atoms: C_2  and  C_20 
REMARK    4  A    between atoms: C_3  and  C_20 
REMARK    5  A    between atoms: C_3  and  C_4 
REMARK    6  A    between atoms: N_9  and  C_10 
REMARK    7  A    between atoms: C_10  and  C_15 
REMARK    8  A    between atoms: O_12  and  P_19 
REMARK    9  A    between atoms: N_13  and  C_20 
REMARK   10  A    between atoms: O_18  and  P_19 
ROOT
HETATM    1  C           1     -21.530  -5.399  -6.277  0.00  0.00     0.249 C 
HETATM    2  H           1     -22.937  -6.595  -5.342  0.00  0.00     0.163 HD
HETATM    3  N           1     -21.987  -6.250  -5.306  0.00  0.00    -0.343 N 
HETATM    4  O           1     -20.395  -4.988  -6.235  0.00  0.00    -0.271 OA
ENDROOT
BRANCH   3   5
HETATM    5  C           1     -21.108  -6.657  -4.227  0.00  0.00     0.210 C 
BRANCH   5   6
HETATM    6  C           1     -21.828  -6.488  -2.896  0.00  0.00     0.217 C 
BRANCH   6   7
HETATM    7  O           1     -21.065  -7.068  -1.873  0.00  0.00    -0.287 OA
BRANCH   7   8
HETATM    8  P           1     -21.877  -7.964  -0.804  0.00  0.00     0.406 P 
HETATM    9  O           1     -21.003  -8.260   0.355  0.00  0.00    -0.624 OA
HETATM   10  O           1     -23.071  -7.222  -0.343  0.00  0.00    -0.624 OA
BRANCH   8  11
HETATM   11  O           1     -22.338  -9.347  -1.499  0.00  0.00    -0.300 OA
HETATM   12  H           1     -21.784 -10.007  -1.119  0.00  0.00     0.223 HD
ENDBRANCH   8  11
ENDBRANCH   7   8
ENDBRANCH   6   7
ENDBRANCH   5   6
BRANCH   5  13
HETATM   13  C           1     -20.724  -8.105  -4.412  0.00  0.00     0.198 C 
HETATM   14  O           1     -19.518  -8.425  -4.501  0.00  0.00    -0.646 OA
HETATM   15  O           1     -21.610  -8.984  -4.475  0.00  0.00    -0.646 OA
ENDBRANCH   5  13
ENDBRANCH   3   5
BRANCH   1  16
HETATM   16  C           1     -22.443  -4.976  -7.400  0.00  0.00     0.275 C 
BRANCH  16  17
HETATM   17  C           1     -21.758  -3.904  -8.237  0.00  0.00     0.046 C 
BRANCH  17  18
HETATM   18  C           1     -21.573  -4.413  -9.661  0.00  0.00    -0.020 C 
HETATM   19  C           1     -22.197  -3.426 -10.639  0.00  0.00     0.009 C 
HETATM   20  C           1     -20.086  -4.551  -9.961  0.00  0.00     0.009 C 
ENDBRANCH  17  18
ENDBRANCH  16  17
BRANCH  16  21
HETATM   21  N           1     -23.716  -4.425  -6.827  0.00  0.00    -0.066 N 
HETATM   22  H           1     -24.494  -4.563  -7.512  0.00  0.00     0.275 HD
HETATM   23  H           1     -23.942  -4.925  -5.938  0.00  0.00     0.275 HD
HETATM   24  H           1     -23.598  -3.405  -6.635  0.00  0.00     0.275 HD
ENDBRANCH  16  21
ENDBRANCH   1  16
TORSDOF 10
ENDMDL
MODEL 7
REMARK VINA RESULT:      -5.7     15.733     17.707
REMARK  10 active torsions:
REMARK  status: ('A' for Active; 'I' for Inactive)
REMARK    1  A    between atoms: C_1  and  C_10 
REMARK    2  A    between atoms: C_1  and  O_18 
REMARK       I    between atoms: C_2  and  N_9 
REMARK    3  A    between atoms: C_2  and  C_20 
REMARK    4  A    between atoms: C_3  and  C_20 
REMARK    5  A    between atoms: C_3  and  C_4 
REMARK    6  A    between atoms: N_9  and  C_10 
REMARK    7  A    between atoms: C_10  and  C_15 
REMARK    8  A    between atoms: O_12  and  P_19 
REMARK    9  A    between atoms: N_13  and  C_20 
REMARK   10  A    between atoms: O_18  and  P_19 
ROOT
HETATM    1  C           1     -20.411 -10.047  -1.535  0.00  0.00     0.249 C 
HETATM    2  H           1     -22.377  -9.411  -1.398  0.00  0.00     0.163 HD
HETATM    3  N           1     -21.445  -9.166  -1.710  0.00  0.00    -0.343 N 
HETATM    4  O           1     -19.299  -9.754  -1.906  0.00  0.00    -0.271 OA
ENDROOT
BRANCH   3   5
HETATM    5  C           1     -21.206  -7.883  -2.340  0.00  0.00     0.210 C 
BRANCH   5   6
HETATM    6  C           1     -21.552  -7.972  -3.820  0.00  0.00     0.217 C 
BRANCH   6   7
HETATM    7  O           1     -20.553  -7.341  -4.574  0.00  0.00    -0.287 OA
BRANCH   7   8
HETATM    8  P           1     -21.053  -6.190  -5.589  0.00  0.00     0.406 P 
HETATM    9  O           1     -20.282  -4.949  -5.345  0.00  0.00    -0.624 OA
HETATM   10  O           1     -20.840  -6.634  -6.985  0.00  0.00    -0.624 OA
BRANCH   8  11
HETATM   11  O           1     -22.624  -5.904  -5.350  0.00  0.00    -0.300 OA
HETATM   12  H           1     -23.022  -6.004  -6.198  0.00  0.00     0.223 HD
ENDBRANCH   8  11
ENDBRANCH   7   8
ENDBRANCH   6   7
ENDBRANCH   5   6
BRANCH   5  13
HETATM   13  C           1     -22.069  -6.832  -1.683  0.00  0.00     0.198 C 
HETATM   14  O           1     -22.404  -5.811  -2.322  0.00  0.00    -0.646 OA
HETATM   15  O           1     -22.448  -6.984  -0.502  0.00  0.00    -0.646 OA
ENDBRANCH   5  13
ENDBRANCH   3   5
BRANCH   1  16
HETATM   16  C           1     -20.660 -11.382  -0.880  0.00  0.00     0.275 C 
BRANCH  16  17
HETATM   17  C           1     -21.642 -11.210   0.271  0.00  0.00     0.046 C 
BRANCH  17  18
HETATM   18  C           1     -22.913 -11.997  -0.024  0.00  0.00    -0.020 C 
HETATM   19  C           1     -23.162 -12.999   1.095  0.00  0.00     0.009 C 
HETATM   20  C           1     -24.093 -11.038  -0.117  0.00  0.00     0.009 C 
ENDBRANCH  17  18
ENDBRANCH  16  17
BRANCH  16  21
HETATM   21  N           1     -19.365 -11.929  -0.354  0.00  0.00    -0.066 N 
HETATM   22  H           1     -19.563 -12.673   0.352  0.00  0.00     0.275 HD
HETATM   23  H           1     -18.814 -12.336  -1.143  0.00  0.00     0.275 HD
HETATM   24  H           1     -18.819 -11.160   0.094  0.00  0.00     0.275 HD
ENDBRANCH  16  21
ENDBRANCH   1  16
TORSDOF 10
ENDMDL
MODEL 8
REMARK VINA RESULT:      -5.7     12.307     14.475
REMARK  10 active torsions:
REMARK  status: ('A' for Active; 'I' for Inactive)
REMARK    1  A    between atoms: C_1  and  C_10 
REMARK    2  A    between atoms: C_1  and  O_18 
REMARK       I    between atoms: C_2  and  N_9 
REMARK    3  A    between atoms: C_2  and  C_20 
REMARK    4  A    between atoms: C_3  and  C_20 
REMARK    5  A    between atoms: C_3  and  C_4 
REMARK    6  A    between atoms: N_9  and  C_10 
REMARK    7  A    between atoms: C_10  and  C_15 
REMARK    8  A    between atoms: O_12  and  P_19 
REMARK    9  A    between atoms: N_13  and  C_20 
REMARK   10  A    between atoms: O_18  and  P_19 
ROOT
HETATM    1  C           1     -21.868  -5.401  -6.167  0.00  0.00     0.249 C 
HETATM    2  H           1     -20.202  -6.409  -5.464  0.00  0.00     0.163 HD
HETATM    3  N           1     -21.208  -6.324  -5.399  0.00  0.00    -0.343 N 
HETATM    4  O           1     -23.069  -5.300  -6.090  0.00  0.00    -0.271 OA
ENDROOT
BRANCH   3   5
HETATM    5  C           1     -21.951  -7.178  -4.495  0.00  0.00     0.210 C 
BRANCH   5   6
HETATM    6  C           1     -21.515  -8.624  -4.690  0.00  0.00     0.217 C 
BRANCH   6   7
HETATM    7  O           1     -20.441  -8.673  -5.590  0.00  0.00    -0.287 OA
BRANCH   7   8
HETATM    8  P           1     -19.178  -9.570  -5.138  0.00  0.00     0.406 P 
HETATM    9  O           1     -19.606 -10.979  -4.980  0.00  0.00    -0.624 OA
HETATM   10  O           1     -18.120  -9.490  -6.170  0.00  0.00    -0.624 OA
BRANCH   8  11
HETATM   11  O           1     -18.601  -9.021  -3.734  0.00  0.00    -0.300 OA
HETATM   12  H           1     -19.326  -9.075  -3.135  0.00  0.00     0.223 HD
ENDBRANCH   8  11
ENDBRANCH   7   8
ENDBRANCH   6   7
ENDBRANCH   5   6
BRANCH   5  13
HETATM   13  C           1     -21.679  -6.759  -3.071  0.00  0.00     0.198 C 
HETATM   14  O           1     -22.404  -5.899  -2.523  0.00  0.00    -0.646 OA
HETATM   15  O           1     -20.730  -7.270  -2.439  0.00  0.00    -0.646 OA
ENDBRANCH   5  13
ENDBRANCH   3   5
BRANCH   1  16
HETATM   16  C           1     -21.095  -4.512  -7.108  0.00  0.00     0.275 C 
BRANCH  16  17
HETATM   17  C           1     -21.326  -4.967  -8.543  0.00  0.00     0.046 C 
BRANCH  17  18
HETATM   18  C           1     -21.955  -3.831  -9.341  0.00  0.00    -0.020 C 
HETATM   19  C           1     -21.403  -3.841 -10.760  0.00  0.00     0.009 C 
HETATM   20  C           1     -23.466  -4.018  -9.384  0.00  0.00     0.009 C 
ENDBRANCH  17  18
ENDBRANCH  16  17
BRANCH  16  21
HETATM   21  N           1     -19.632  -4.595  -6.787  0.00  0.00    -0.066 N 
HETATM   22  H           1     -19.079  -4.180  -7.571  0.00  0.00     0.275 HD
HETATM   23  H           1     -19.439  -4.066  -5.907  0.00  0.00     0.275 HD
HETATM   24  H           1     -19.360  -5.596  -6.661  0.00  0.00     0.275 HD
ENDBRANCH  16  21
ENDBRANCH   1  16
TORSDOF 10
ENDMDL
MODEL 9
REMARK VINA RESULT:      -5.5     14.239     16.085
REMARK  10 active torsions:
REMARK  status: ('A' for Active; 'I' for Inactive)
REMARK    1  A    between atoms: C_1  and  C_10 
REMARK    2  A    between atoms: C_1  and  O_18 
REMARK       I    between atoms: C_2  and  N_9 
REMARK    3  A    between atoms: C_2  and  C_20 
REMARK    4  A    between atoms: C_3  and  C_20 
REMARK    5  A    between atoms: C_3  and  C_4 
REMARK    6  A    between atoms: N_9  and  C_10 
REMARK    7  A    between atoms: C_10  and  C_15 
REMARK    8  A    between atoms: O_12  and  P_19 
REMARK    9  A    between atoms: N_13  and  C_20 
REMARK   10  A    between atoms: O_18  and  P_19 
ROOT
HETATM    1  C           1     -20.902  -7.665  -5.184  0.00  0.00     0.249 C 
HETATM    2  H           1     -22.271  -7.797  -3.637  0.00  0.00     0.163 HD
HETATM    3  N           1     -21.469  -8.233  -4.074  0.00  0.00    -0.343 N 
HETATM    4  O           1     -19.945  -8.185  -5.706  0.00  0.00    -0.271 OA
ENDROOT
BRANCH   3   5
HETATM    5  C           1     -20.922  -9.458  -3.527  0.00  0.00     0.210 C 
BRANCH   5   6
HETATM    6  C           1     -20.779  -9.320  -2.017  0.00  0.00     0.217 C 
BRANCH   6   7
HETATM    7  O           1     -21.559  -8.245  -1.569  0.00  0.00    -0.287 OA
BRANCH   7   8
HETATM    8  P           1     -22.374  -8.483  -0.197  0.00  0.00     0.406 P 
HETATM    9  O           1     -21.418  -8.639   0.923  0.00  0.00    -0.624 OA
HETATM   10  O           1     -23.253  -7.322   0.065  0.00  0.00    -0.624 OA
BRANCH   8  11
HETATM   11  O           1     -23.273  -9.818  -0.328  0.00  0.00    -0.300 OA
HETATM   12  H           1     -23.735  -9.721  -1.143  0.00  0.00     0.223 HD
ENDBRANCH   8  11
ENDBRANCH   7   8
ENDBRANCH   6   7
ENDBRANCH   5   6
BRANCH   5  13
HETATM   13  C           1     -21.848 -10.607  -3.842  0.00  0.00     0.198 C 
HETATM   14  O           1     -21.728 -11.230  -4.920  0.00  0.00    -0.646 OA
HETATM   15  O           1     -22.737 -10.936  -3.027  0.00  0.00    -0.646 OA
ENDBRANCH   5  13
ENDBRANCH   3   5
BRANCH   1  16
HETATM   16  C           1     -21.471  -6.390  -5.754  0.00  0.00     0.275 C 
BRANCH  16  17
HETATM   17  C           1     -20.514  -5.237  -5.479  0.00  0.00     0.046 C 
BRANCH  17  18
HETATM   18  C           1     -20.226  -4.496  -6.779  0.00  0.00    -0.020 C 
HETATM   19  C           1     -20.083  -5.500  -7.915  0.00  0.00     0.009 C 
HETATM   20  C           1     -21.375  -3.545  -7.085  0.00  0.00     0.009 C 
ENDBRANCH  17  18
ENDBRANCH  16  17
BRANCH  16  21
HETATM   21  N           1     -22.796  -6.103  -5.111  0.00  0.00    -0.066 N 
HETATM   22  H           1     -23.566  -6.425  -5.742  0.00  0.00     0.275 HD
HETATM   23  H           1     -22.858  -6.611  -4.200  0.00  0.00     0.275 HD
HETATM   24  H           1     -22.888  -5.076  -4.947  0.00  0.00     0.275 HD
ENDBRANCH  16  21
ENDBRANCH   1  16
TORSDOF 10
ENDMDL
