MODEL 1
REMARK VINA RESULT:      -6.4      0.000      0.000
REMARK  9 active torsions:
REMARK  status: ('A' for Active; 'I' for Inactive)
REMARK       I    between atoms: C_4  and  N_5 
REMARK    1  A    between atoms: C_4  and  C_10 
REMARK    2  A    between atoms: N_5  and  C_18 
REMARK    3  A    between atoms: C_9  and  C_18 
REMARK    4  A    between atoms: C_10  and  C_20 
REMARK    5  A    between atoms: C_10  and  N_14 
REMARK    6  A    between atoms: C_11  and  S_12 
REMARK    7  A    between atoms: C_11  and  C_17 
REMARK    8  A    between atoms: C_17  and  C_18 
REMARK    9  A    between atoms: C_20  and  C_21 
ROOT
HETATM    1  C           1     -34.148  -4.190 -12.326  0.00  0.00     0.280 C 
ENDROOT
BRANCH   1   2
HETATM    2  C           1     -34.217  -2.754 -11.871  0.00  0.00     0.249 C 
HETATM    3  N           1     -34.986  -1.853 -12.558  0.00  0.00    -0.345 N 
HETATM    4  H           1     -35.509  -2.152 -13.372  0.00  0.00     0.163 HD
HETATM    5  O           1     -33.592  -2.397 -10.900  0.00  0.00    -0.271 OA
BRANCH   3   6
HETATM    6  C           1     -35.052  -0.473 -12.120  0.00  0.00     0.186 C 
BRANCH   6   7
HETATM    7  C           1     -36.343  -0.244 -11.372  0.00  0.00     0.196 C 
HETATM    8  O           1     -37.385  -0.833 -11.731  0.00  0.00    -0.646 OA
HETATM    9  O           1     -36.369   0.534 -10.394  0.00  0.00    -0.646 OA
ENDBRANCH   6   7
BRANCH   6  10
HETATM   10  C           1     -34.998   0.448 -13.332  0.00  0.00     0.046 C 
BRANCH  10  11
HETATM   11  C           1     -35.392  -0.330 -14.581  0.00  0.00     0.076 C 
BRANCH  11  12
HETATM   12  S           1     -36.987   0.278 -15.196  0.00  0.00    -0.173 SA
HETATM   13  C           1     -37.135  -0.903 -16.566  0.00  0.00     0.089 C 
ENDBRANCH  11  12
ENDBRANCH  10  11
ENDBRANCH   6  10
ENDBRANCH   3   6
ENDBRANCH   1   2
BRANCH   1  14
HETATM   14  C           1     -33.129  -4.944 -11.482  0.00  0.00     0.101 C 
BRANCH  14  15
HETATM   15  C           1     -33.803  -6.085 -10.786  0.00  0.00     0.028 A 
HETATM   16  C           1     -34.994  -5.991 -10.105  0.00  0.00     0.114 A 
HETATM   17  N           1     -35.234  -7.252  -9.635  0.00  0.00    -0.360 N 
HETATM   18  C           1     -34.198  -8.045 -10.042  0.00  0.00     0.180 A 
HETATM   19  H           1     -36.062  -7.556  -9.066  0.00  0.00     0.166 HD
HETATM   20  N           1     -33.318  -7.367 -10.740  0.00  0.00    -0.355 N 
ATOM     21  HN          1     -32.458  -7.718 -11.159  1.00  0.00     0.166 HD
ENDBRANCH  14  15
ENDBRANCH   1  14
BRANCH   1  22
HETATM   22  N           1     -33.735  -4.238 -13.768  0.00  0.00    -0.066 N 
HETATM   23  H           1     -34.582  -4.166 -14.376  0.00  0.00     0.275 HD
HETATM   24  H           1     -33.091  -3.441 -13.971  0.00  0.00     0.275 HD
HETATM   25  H           1     -33.245  -5.140 -13.959  0.00  0.00     0.275 HD
ENDBRANCH   1  22
TORSDOF 9
ENDMDL
MODEL 2
REMARK VINA RESULT:      -5.8     13.697     16.109
REMARK  9 active torsions:
REMARK  status: ('A' for Active; 'I' for Inactive)
REMARK       I    between atoms: C_4  and  N_5 
REMARK    1  A    between atoms: C_4  and  C_10 
REMARK    2  A    between atoms: N_5  and  C_18 
REMARK    3  A    between atoms: C_9  and  C_18 
REMARK    4  A    between atoms: C_10  and  C_20 
REMARK    5  A    between atoms: C_10  and  N_14 
REMARK    6  A    between atoms: C_11  and  S_12 
REMARK    7  A    between atoms: C_11  and  C_17 
REMARK    8  A    between atoms: C_17  and  C_18 
REMARK    9  A    between atoms: C_20  and  C_21 
ROOT
HETATM    1  C           1     -21.187  -4.153  -7.651  0.00  0.00     0.280 C 
ENDROOT
BRANCH   1   2
HETATM    2  C           1     -20.698  -4.884  -6.425  0.00  0.00     0.249 C 
HETATM    3  N           1     -21.503  -5.805  -5.810  0.00  0.00    -0.345 N 
HETATM    4  H           1     -22.426  -5.996  -6.177  0.00  0.00     0.163 HD
HETATM    5  O           1     -19.595  -4.656  -5.986  0.00  0.00    -0.271 OA
BRANCH   3   6
HETATM    6  C           1     -21.031  -6.507  -4.632  0.00  0.00     0.186 C 
BRANCH   6   7
HETATM    7  C           1     -20.506  -7.864  -5.032  0.00  0.00     0.196 C 
HETATM    8  O           1     -21.095  -8.526  -5.915  0.00  0.00    -0.646 OA
HETATM    9  O           1     -19.483  -8.325  -4.483  0.00  0.00    -0.646 OA
ENDBRANCH   6   7
BRANCH   6  10
HETATM   10  C           1     -22.181  -6.679  -3.648  0.00  0.00     0.046 C 
BRANCH  10  11
HETATM   11  C           1     -21.827  -6.004  -2.329  0.00  0.00     0.076 C 
BRANCH  11  12
HETATM   12  S           1     -22.239  -7.112  -0.952  0.00  0.00    -0.173 SA
HETATM   13  C           1     -20.832  -8.236  -1.173  0.00  0.00     0.089 C 
ENDBRANCH  11  12
ENDBRANCH  10  11
ENDBRANCH   6  10
ENDBRANCH   3   6
ENDBRANCH   1   2
BRANCH   1  14
HETATM   14  C           1     -21.867  -5.138  -8.594  0.00  0.00     0.101 C 
BRANCH  14  15
HETATM   15  C           1     -23.055  -4.483  -9.227  0.00  0.00     0.028 A 
HETATM   16  C           1     -23.445  -4.667 -10.532  0.00  0.00     0.114 A 
HETATM   17  N           1     -24.560  -3.890 -10.682  0.00  0.00    -0.360 N 
HETATM   18  C           1     -24.797  -3.278  -9.484  0.00  0.00     0.180 A 
HETATM   19  H           1     -25.130  -3.785 -11.557  0.00  0.00     0.166 HD
HETATM   20  N           1     -23.904  -3.618  -8.585  0.00  0.00    -0.355 N 
ATOM     21  HN          1     -23.852  -3.305  -7.616  1.00  0.00     0.166 HD
ENDBRANCH  14  15
ENDBRANCH   1  14
BRANCH   1  22
HETATM   22  N           1     -20.023  -3.515  -8.350  0.00  0.00    -0.066 N 
HETATM   23  H           1     -19.832  -4.022  -9.244  0.00  0.00     0.275 HD
HETATM   24  H           1     -20.248  -2.516  -8.558  0.00  0.00     0.275 HD
HETATM   25  H           1     -19.180  -3.563  -7.736  0.00  0.00     0.275 HD
ENDBRANCH   1  22
TORSDOF 9
ENDMDL
MODEL 3
REMARK VINA RESULT:      -5.7     14.180     16.635
REMARK  9 active torsions:
REMARK  status: ('A' for Active; 'I' for Inactive)
REMARK       I    between atoms: C_4  and  N_5 
REMARK    1  A    between atoms: C_4  and  C_10 
REMARK    2  A    between atoms: N_5  and  C_18 
REMARK    3  A    between atoms: C_9  and  C_18 
REMARK    4  A    between atoms: C_10  and  C_20 
REMARK    5  A    between atoms: C_10  and  N_14 
REMARK    6  A    between atoms: C_11  and  S_12 
REMARK    7  A    between atoms: C_11  and  C_17 
REMARK    8  A    between atoms: C_17  and  C_18 
REMARK    9  A    between atoms: C_20  and  C_21 
ROOT
HETATM    1  C           1     -21.234  -4.761  -6.604  0.00  0.00     0.280 C 
ENDROOT
BRANCH   1   2
HETATM    2  C           1     -21.831  -5.754  -5.638  0.00  0.00     0.249 C 
HETATM    3  N           1     -21.014  -6.526  -4.857  0.00  0.00    -0.345 N 
HETATM    4  H           1     -20.009  -6.430  -4.927  0.00  0.00     0.163 HD
HETATM    5  O           1     -23.031  -5.869  -5.556  0.00  0.00    -0.271 OA
BRANCH   3   6
HETATM    6  C           1     -21.589  -7.481  -3.930  0.00  0.00     0.186 C 
BRANCH   6   7
HETATM    7  C           1     -21.562  -6.905  -2.535  0.00  0.00     0.196 C 
HETATM    8  O           1     -20.810  -7.401  -1.668  0.00  0.00    -0.646 OA
HETATM    9  O           1     -22.291  -5.931  -2.246  0.00  0.00    -0.646 OA
ENDBRANCH   6   7
BRANCH   6  10
HETATM   10  C           1     -20.780  -8.771  -3.960  0.00  0.00     0.046 C 
BRANCH  10  11
HETATM   11  C           1     -19.579  -8.596  -4.881  0.00  0.00     0.076 C 
BRANCH  11  12
HETATM   12  S           1     -18.395  -9.941  -4.594  0.00  0.00    -0.173 SA
HETATM   13  C           1     -17.915  -9.429  -2.920  0.00  0.00     0.089 C 
ENDBRANCH  11  12
ENDBRANCH  10  11
ENDBRANCH   6  10
ENDBRANCH   3   6
ENDBRANCH   1   2
BRANCH   1  14
HETATM   14  C           1     -21.361  -5.292  -8.025  0.00  0.00     0.101 C 
BRANCH  14  15
HETATM   15  C           1     -22.419  -4.523  -8.753  0.00  0.00     0.028 A 
HETATM   16  C           1     -22.344  -4.149 -10.074  0.00  0.00     0.114 A 
HETATM   17  N           1     -23.509  -3.476 -10.318  0.00  0.00    -0.360 N 
HETATM   18  C           1     -24.229  -3.470  -9.158  0.00  0.00     0.180 A 
HETATM   19  H           1     -23.796  -3.044 -11.231  0.00  0.00     0.166 HD
HETATM   20  N           1     -23.596  -4.096  -8.195  0.00  0.00    -0.355 N 
ATOM     21  HN          1     -23.912  -4.235  -7.235  1.00  0.00     0.166 HD
ENDBRANCH  14  15
ENDBRANCH   1  14
BRANCH   1  22
HETATM   22  N           1     -19.784  -4.554  -6.276  0.00  0.00    -0.066 N 
HETATM   23  H           1     -19.224  -5.351  -6.654  0.00  0.00     0.275 HD
HETATM   24  H           1     -19.454  -3.662  -6.708  0.00  0.00     0.275 HD
HETATM   25  H           1     -19.665  -4.506  -5.240  0.00  0.00     0.275 HD
ENDBRANCH   1  22
TORSDOF 9
ENDMDL
MODEL 4
REMARK VINA RESULT:      -5.7     14.068     16.503
REMARK  9 active torsions:
REMARK  status: ('A' for Active; 'I' for Inactive)
REMARK       I    between atoms: C_4  and  N_5 
REMARK    1  A    between atoms: C_4  and  C_10 
REMARK    2  A    between atoms: N_5  and  C_18 
REMARK    3  A    between atoms: C_9  and  C_18 
REMARK    4  A    between atoms: C_10  and  C_20 
REMARK    5  A    between atoms: C_10  and  N_14 
REMARK    6  A    between atoms: C_11  and  S_12 
REMARK    7  A    between atoms: C_11  and  C_17 
REMARK    8  A    between atoms: C_17  and  C_18 
REMARK    9  A    between atoms: C_20  and  C_21 
ROOT
HETATM    1  C           1     -22.131  -4.852  -7.590  0.00  0.00     0.280 C 
ENDROOT
BRANCH   1   2
HETATM    2  C           1     -21.357  -5.251  -6.358  0.00  0.00     0.249 C 
HETATM    3  N           1     -21.544  -6.488  -5.803  0.00  0.00    -0.345 N 
HETATM    4  H           1     -22.200  -7.135  -6.219  0.00  0.00     0.163 HD
HETATM    5  O           1     -20.573  -4.477  -5.860  0.00  0.00    -0.271 OA
BRANCH   3   6
HETATM    6  C           1     -20.799  -6.871  -4.619  0.00  0.00     0.186 C 
BRANCH   6   7
HETATM    7  C           1     -19.879  -8.020  -4.953  0.00  0.00     0.196 C 
HETATM    8  O           1     -19.385  -8.111  -6.097  0.00  0.00    -0.646 OA
HETATM    9  O           1     -19.611  -8.878  -4.085  0.00  0.00    -0.646 OA
ENDBRANCH   6   7
BRANCH   6  10
HETATM   10  C           1     -21.769  -7.300  -3.525  0.00  0.00     0.046 C 
BRANCH  10  11
HETATM   11  C           1     -21.782  -6.253  -2.418  0.00  0.00     0.076 C 
BRANCH  11  12
HETATM   12  S           1     -22.296  -7.027  -0.859  0.00  0.00    -0.173 SA
HETATM   13  C           1     -21.791  -8.714  -1.298  0.00  0.00     0.089 C 
ENDBRANCH  11  12
ENDBRANCH  10  11
ENDBRANCH   6  10
ENDBRANCH   3   6
ENDBRANCH   1   2
BRANCH   1  14
HETATM   14  C           1     -21.383  -3.747  -8.325  0.00  0.00     0.101 C 
BRANCH  14  15
HETATM   15  C           1     -21.517  -3.952  -9.802  0.00  0.00     0.028 A 
HETATM   16  C           1     -20.558  -3.616 -10.728  0.00  0.00     0.114 A 
HETATM   17  N           1     -21.092  -3.971 -11.935  0.00  0.00    -0.360 N 
HETATM   18  C           1     -22.329  -4.498 -11.698  0.00  0.00     0.180 A 
HETATM   19  H           1     -20.633  -3.859 -12.873  0.00  0.00     0.166 HD
HETATM   20  N           1     -22.614  -4.500 -10.417  0.00  0.00    -0.355 N 
ATOM     21  HN          1     -23.468  -4.838  -9.974  1.00  0.00     0.166 HD
ENDBRANCH  14  15
ENDBRANCH   1  14
BRANCH   1  22
HETATM   22  N           1     -23.488  -4.353  -7.188  0.00  0.00    -0.066 N 
HETATM   23  H           1     -24.223  -4.894  -7.697  0.00  0.00     0.275 HD
HETATM   24  H           1     -23.613  -4.480  -6.158  0.00  0.00     0.275 HD
HETATM   25  H           1     -23.572  -3.340  -7.427  0.00  0.00     0.275 HD
ENDBRANCH   1  22
TORSDOF 9
ENDMDL
MODEL 5
REMARK VINA RESULT:      -5.3     14.467     17.126
REMARK  9 active torsions:
REMARK  status: ('A' for Active; 'I' for Inactive)
REMARK       I    between atoms: C_4  and  N_5 
REMARK    1  A    between atoms: C_4  and  C_10 
REMARK    2  A    between atoms: N_5  and  C_18 
REMARK    3  A    between atoms: C_9  and  C_18 
REMARK    4  A    between atoms: C_10  and  C_20 
REMARK    5  A    between atoms: C_10  and  N_14 
REMARK    6  A    between atoms: C_11  and  S_12 
REMARK    7  A    between atoms: C_11  and  C_17 
REMARK    8  A    between atoms: C_17  and  C_18 
REMARK    9  A    between atoms: C_20  and  C_21 
ROOT
HETATM    1  C           1     -21.950  -6.117  -6.196  0.00  0.00     0.280 C 
ENDROOT
BRANCH   1   2
HETATM    2  C           1     -20.736  -6.945  -5.853  0.00  0.00     0.249 C 
HETATM    3  N           1     -20.795  -7.858  -4.835  0.00  0.00    -0.345 N 
HETATM    4  H           1     -21.654  -7.978  -4.313  0.00  0.00     0.163 HD
HETATM    5  O           1     -19.711  -6.801  -6.476  0.00  0.00    -0.271 OA
BRANCH   3   6
HETATM    6  C           1     -19.628  -8.653  -4.506  0.00  0.00     0.186 C 
BRANCH   6   7
HETATM    7  C           1     -19.699  -9.974  -5.232  0.00  0.00     0.196 C 
HETATM    8  O           1     -18.741 -10.775  -5.168  0.00  0.00    -0.646 OA
HETATM    9  O           1     -20.716 -10.268  -5.897  0.00  0.00    -0.646 OA
ENDBRANCH   6   7
BRANCH   6  10
HETATM   10  C           1     -19.590  -8.903  -3.004  0.00  0.00     0.046 C 
BRANCH  10  11
HETATM   11  C           1     -21.013  -8.983  -2.465  0.00  0.00     0.076 C 
BRANCH  11  12
HETATM   12  S           1     -21.085  -8.209  -0.825  0.00  0.00    -0.173 SA
HETATM   13  C           1     -22.208  -6.861  -1.291  0.00  0.00     0.089 C 
ENDBRANCH  11  12
ENDBRANCH  10  11
ENDBRANCH   6  10
ENDBRANCH   3   6
ENDBRANCH   1   2
BRANCH   1  14
HETATM   14  C           1     -21.511  -4.720  -6.616  0.00  0.00     0.101 C 
BRANCH  14  15
HETATM   15  C           1     -22.263  -4.309  -7.843  0.00  0.00     0.028 A 
HETATM   16  C           1     -21.688  -4.074  -9.070  0.00  0.00     0.114 A 
HETATM   17  N           1     -22.727  -3.728  -9.888  0.00  0.00    -0.360 N 
HETATM   18  C           1     -23.869  -3.766  -9.139  0.00  0.00     0.180 A 
HETATM   19  H           1     -22.660  -3.479 -10.906  0.00  0.00     0.166 HD
HETATM   20  N           1     -23.619  -4.115  -7.899  0.00  0.00    -0.355 N 
ATOM     21  HN          1     -24.291  -4.219  -7.139  1.00  0.00     0.166 HD
ENDBRANCH  14  15
ENDBRANCH   1  14
BRANCH   1  22
HETATM   22  N           1     -22.844  -6.019  -4.996  0.00  0.00    -0.066 N 
HETATM   23  H           1     -22.851  -5.035  -4.644  0.00  0.00     0.275 HD
HETATM   24  H           1     -23.815  -6.300  -5.262  0.00  0.00     0.275 HD
HETATM   25  H           1     -22.490  -6.654  -4.246  0.00  0.00     0.275 HD
ENDBRANCH   1  22
TORSDOF 9
ENDMDL
MODEL 6
REMARK VINA RESULT:      -5.0     13.465     15.239
REMARK  9 active torsions:
REMARK  status: ('A' for Active; 'I' for Inactive)
REMARK       I    between atoms: C_4  and  N_5 
REMARK    1  A    between atoms: C_4  and  C_10 
REMARK    2  A    between atoms: N_5  and  C_18 
REMARK    3  A    between atoms: C_9  and  C_18 
REMARK    4  A    between atoms: C_10  and  C_20 
REMARK    5  A    between atoms: C_10  and  N_14 
REMARK    6  A    between atoms: C_11  and  S_12 
REMARK    7  A    between atoms: C_11  and  C_17 
REMARK    8  A    between atoms: C_17  and  C_18 
REMARK    9  A    between atoms: C_20  and  C_21 
ROOT
HETATM    1  C           1     -20.501  -5.977  -5.078  0.00  0.00     0.280 C 
ENDROOT
BRANCH   1   2
HETATM    2  C           1     -20.407  -5.999  -6.583  0.00  0.00     0.249 C 
HETATM    3  N           1     -21.180  -5.152  -7.331  0.00  0.00    -0.345 N 
HETATM    4  H           1     -21.814  -4.510  -6.873  0.00  0.00     0.163 HD
HETATM    5  O           1     -19.650  -6.767  -7.129  0.00  0.00    -0.271 OA
BRANCH   3   6
HETATM    6  C           1     -21.090  -5.175  -8.778  0.00  0.00     0.186 C 
BRANCH   6   7
HETATM    7  C           1     -20.242  -4.018  -9.246  0.00  0.00     0.196 C 
HETATM    8  O           1     -19.498  -3.421  -8.438  0.00  0.00    -0.646 OA
HETATM    9  O           1     -20.283  -3.657 -10.442  0.00  0.00    -0.646 OA
ENDBRANCH   6   7
BRANCH   6  10
HETATM   10  C           1     -22.485  -5.056  -9.376  0.00  0.00     0.046 C 
BRANCH  10  11
HETATM   11  C           1     -23.286  -4.020  -8.598  0.00  0.00     0.076 C 
BRANCH  11  12
HETATM   12  S           1     -24.640  -3.398  -9.634  0.00  0.00    -0.173 SA
HETATM   13  C           1     -24.094  -4.191 -11.172  0.00  0.00     0.089 C 
ENDBRANCH  11  12
ENDBRANCH  10  11
ENDBRANCH   6  10
ENDBRANCH   3   6
ENDBRANCH   1   2
BRANCH   1  14
HETATM   14  C           1     -21.914  -6.347  -4.650  0.00  0.00     0.101 C 
BRANCH  14  15
HETATM   15  C           1     -21.913  -6.733  -3.203  0.00  0.00     0.028 A 
HETATM   16  C           1     -21.363  -7.889  -2.703  0.00  0.00     0.114 A 
HETATM   17  N           1     -21.585  -7.833  -1.355  0.00  0.00    -0.360 N 
HETATM   18  C           1     -22.248  -6.667  -1.097  0.00  0.00     0.180 A 
HETATM   19  H           1     -21.297  -8.554  -0.648  0.00  0.00     0.166 HD
HETATM   20  N           1     -22.460  -5.981  -2.195  0.00  0.00    -0.355 N 
ATOM     21  HN          1     -22.930  -5.080  -2.280  1.00  0.00     0.166 HD
ENDBRANCH  14  15
ENDBRANCH   1  14
BRANCH   1  22
HETATM   22  N           1     -20.172  -4.601  -4.577  0.00  0.00    -0.066 N 
HETATM   23  H           1     -21.004  -4.199  -4.088  0.00  0.00     0.275 HD
HETATM   24  H           1     -19.370  -4.656  -3.910  0.00  0.00     0.275 HD
HETATM   25  H           1     -19.914  -3.990  -5.384  0.00  0.00     0.275 HD
ENDBRANCH   1  22
TORSDOF 9
ENDMDL
MODEL 7
REMARK VINA RESULT:      -5.0     15.095     17.838
REMARK  9 active torsions:
REMARK  status: ('A' for Active; 'I' for Inactive)
REMARK       I    between atoms: C_4  and  N_5 
REMARK    1  A    between atoms: C_4  and  C_10 
REMARK    2  A    between atoms: N_5  and  C_18 
REMARK    3  A    between atoms: C_9  and  C_18 
REMARK    4  A    between atoms: C_10  and  C_20 
REMARK    5  A    between atoms: C_10  and  N_14 
REMARK    6  A    between atoms: C_11  and  S_12 
REMARK    7  A    between atoms: C_11  and  C_17 
REMARK    8  A    between atoms: C_17  and  C_18 
REMARK    9  A    between atoms: C_20  and  C_21 
ROOT
HETATM    1  C           1     -21.732  -6.363  -5.520  0.00  0.00     0.280 C 
ENDROOT
BRANCH   1   2
HETATM    2  C           1     -20.825  -7.569  -5.496  0.00  0.00     0.249 C 
HETATM    3  N           1     -21.196  -8.691  -4.805  0.00  0.00    -0.345 N 
HETATM    4  H           1     -22.079  -8.713  -4.312  0.00  0.00     0.163 HD
HETATM    5  O           1     -19.770  -7.543  -6.085  0.00  0.00    -0.271 OA
BRANCH   3   6
HETATM    6  C           1     -20.323  -9.849  -4.782  0.00  0.00     0.186 C 
BRANCH   6   7
HETATM    7  C           1     -20.964 -10.977  -5.554  0.00  0.00     0.196 C 
HETATM    8  O           1     -21.933 -11.597  -5.065  0.00  0.00    -0.646 OA
HETATM    9  O           1     -20.527 -11.290  -6.682  0.00  0.00    -0.646 OA
ENDBRANCH   6   7
BRANCH   6  10
HETATM   10  C           1     -20.096 -10.287  -3.341  0.00  0.00     0.046 C 
BRANCH  10  11
HETATM   11  C           1     -18.809  -9.663  -2.817  0.00  0.00     0.076 C 
BRANCH  11  12
HETATM   12  S           1     -17.500  -9.839  -4.060  0.00  0.00    -0.173 SA
HETATM   13  C           1     -16.112  -9.531  -2.933  0.00  0.00     0.089 C 
ENDBRANCH  11  12
ENDBRANCH  10  11
ENDBRANCH   6  10
ENDBRANCH   3   6
ENDBRANCH   1   2
BRANCH   1  14
HETATM   14  C           1     -20.933  -5.134  -5.931  0.00  0.00     0.101 C 
BRANCH  14  15
HETATM   15  C           1     -21.438  -4.627  -7.246  0.00  0.00     0.028 A 
HETATM   16  C           1     -20.702  -4.598  -8.407  0.00  0.00     0.114 A 
HETATM   17  N           1     -21.542  -4.066  -9.345  0.00  0.00    -0.360 N 
HETATM   18  C           1     -22.731  -3.800  -8.728  0.00  0.00     0.180 A 
HETATM   19  H           1     -21.315  -3.895 -10.356  0.00  0.00     0.166 HD
HETATM   20  N           1     -22.698  -4.129  -7.458  0.00  0.00    -0.355 N 
ATOM     21  HN          1     -23.450  -4.035  -6.775  1.00  0.00     0.166 HD
ENDBRANCH  14  15
ENDBRANCH   1  14
BRANCH   1  22
HETATM   22  N           1     -22.313  -6.148  -4.154  0.00  0.00    -0.066 N 
HETATM   23  H           1     -23.283  -5.769  -4.243  0.00  0.00     0.275 HD
HETATM   24  H           1     -22.340  -7.057  -3.641  0.00  0.00     0.275 HD
HETATM   25  H           1     -21.721  -5.468  -3.627  0.00  0.00     0.275 HD
ENDBRANCH   1  22
TORSDOF 9
ENDMDL
MODEL 8
REMARK VINA RESULT:      -4.9     15.142     17.509
REMARK  9 active torsions:
REMARK  status: ('A' for Active; 'I' for Inactive)
REMARK       I    between atoms: C_4  and  N_5 
REMARK    1  A    between atoms: C_4  and  C_10 
REMARK    2  A    between atoms: N_5  and  C_18 
REMARK    3  A    between atoms: C_9  and  C_18 
REMARK    4  A    between atoms: C_10  and  C_20 
REMARK    5  A    between atoms: C_10  and  N_14 
REMARK    6  A    between atoms: C_11  and  S_12 
REMARK    7  A    between atoms: C_11  and  C_17 
REMARK    8  A    between atoms: C_17  and  C_18 
REMARK    9  A    between atoms: C_20  and  C_21 
ROOT
HETATM    1  C           1     -21.602  -6.540  -5.654  0.00  0.00     0.280 C 
ENDROOT
BRANCH   1   2
HETATM    2  C           1     -20.846  -7.546  -4.821  0.00  0.00     0.249 C 
HETATM    3  N           1     -21.437  -8.104  -3.720  0.00  0.00    -0.345 N 
HETATM    4  H           1     -22.380  -7.844  -3.465  0.00  0.00     0.163 HD
HETATM    5  O           1     -19.719  -7.856  -5.126  0.00  0.00    -0.271 OA
BRANCH   3   6
HETATM    6  C           1     -20.709  -9.070  -2.919  0.00  0.00     0.186 C 
BRANCH   6   7
HETATM    7  C           1     -21.357 -10.427  -3.058  0.00  0.00     0.196 C 
HETATM    8  O           1     -22.372 -10.564  -3.775  0.00  0.00    -0.646 OA
HETATM    9  O           1     -20.878 -11.413  -2.458  0.00  0.00    -0.646 OA
ENDBRANCH   6   7
BRANCH   6  10
HETATM   10  C           1     -20.736  -8.644  -1.458  0.00  0.00     0.046 C 
BRANCH  10  11
HETATM   11  C           1     -21.918  -7.711  -1.222  0.00  0.00     0.076 C 
BRANCH  11  12
HETATM   12  S           1     -22.707  -8.121   0.360  0.00  0.00    -0.173 SA
HETATM   13  C           1     -23.291  -9.768  -0.130  0.00  0.00     0.089 C 
ENDBRANCH  11  12
ENDBRANCH  10  11
ENDBRANCH   6  10
ENDBRANCH   3   6
ENDBRANCH   1   2
BRANCH   1  14
HETATM   14  C           1     -20.727  -5.316  -5.893  0.00  0.00     0.101 C 
BRANCH  14  15
HETATM   15  C           1     -20.931  -4.822  -7.291  0.00  0.00     0.028 A 
HETATM   16  C           1     -22.065  -4.187  -7.738  0.00  0.00     0.114 A 
HETATM   17  N           1     -21.823  -3.915  -9.055  0.00  0.00    -0.360 N 
HETATM   18  C           1     -20.576  -4.387  -9.349  0.00  0.00     0.180 A 
HETATM   19  H           1     -22.477  -3.430  -9.719  0.00  0.00     0.166 HD
HETATM   20  N           1     -20.011  -4.940  -8.302  0.00  0.00    -0.355 N 
ATOM     21  HN          1     -19.086  -5.366  -8.250  1.00  0.00     0.166 HD
ENDBRANCH  14  15
ENDBRANCH   1  14
BRANCH   1  22
HETATM   22  N           1     -22.850  -6.128  -4.930  0.00  0.00    -0.066 N 
HETATM   23  H           1     -23.264  -5.290  -5.397  0.00  0.00     0.275 HD
HETATM   24  H           1     -23.538  -6.914  -4.951  0.00  0.00     0.275 HD
HETATM   25  H           1     -22.616  -5.894  -3.940  0.00  0.00     0.275 HD
ENDBRANCH   1  22
TORSDOF 9
ENDMDL
MODEL 9
REMARK VINA RESULT:      -4.9     16.831     18.655
REMARK  9 active torsions:
REMARK  status: ('A' for Active; 'I' for Inactive)
REMARK       I    between atoms: C_4  and  N_5 
REMARK    1  A    between atoms: C_4  and  C_10 
REMARK    2  A    between atoms: N_5  and  C_18 
REMARK    3  A    between atoms: C_9  and  C_18 
REMARK    4  A    between atoms: C_10  and  C_20 
REMARK    5  A    between atoms: C_10  and  N_14 
REMARK    6  A    between atoms: C_11  and  S_12 
REMARK    7  A    between atoms: C_11  and  C_17 
REMARK    8  A    between atoms: C_17  and  C_18 
REMARK    9  A    between atoms: C_20  and  C_21 
ROOT
HETATM    1  C           1     -20.493  -8.394  -3.743  0.00  0.00     0.280 C 
ENDROOT
BRANCH   1   2
HETATM    2  C           1     -21.176  -8.243  -2.406  0.00  0.00     0.249 C 
HETATM    3  N           1     -21.634  -9.350  -1.743  0.00  0.00    -0.345 N 
HETATM    4  H           1     -21.515 -10.268  -2.149  0.00  0.00     0.163 HD
HETATM    5  O           1     -21.318  -7.146  -1.921  0.00  0.00    -0.271 OA
BRANCH   3   6
HETATM    6  C           1     -22.290  -9.204  -0.458  0.00  0.00     0.186 C 
BRANCH   6   7
HETATM    7  C           1     -21.280  -9.400   0.647  0.00  0.00     0.196 C 
HETATM    8  O           1     -21.103  -8.502   1.498  0.00  0.00    -0.646 OA
HETATM    9  O           1     -20.622 -10.461   0.710  0.00  0.00    -0.646 OA
ENDBRANCH   6   7
BRANCH   6  10
HETATM   10  C           1     -23.391 -10.248  -0.327  0.00  0.00     0.046 C 
BRANCH  10  11
HETATM   11  C           1     -23.422 -11.114  -1.580  0.00  0.00     0.076 C 
BRANCH  11  12
HETATM   12  S           1     -22.968 -12.818  -1.150  0.00  0.00    -0.173 SA
HETATM   13  C           1     -23.351 -12.685   0.619  0.00  0.00     0.089 C 
ENDBRANCH  11  12
ENDBRANCH  10  11
ENDBRANCH   6  10
ENDBRANCH   3   6
ENDBRANCH   1   2
BRANCH   1  14
HETATM   14  C           1     -21.429  -7.922  -4.848  0.00  0.00     0.101 C 
BRANCH  14  15
HETATM   15  C           1     -20.828  -6.739  -5.540  0.00  0.00     0.028 A 
HETATM   16  C           1     -20.821  -5.459  -5.037  0.00  0.00     0.114 A 
HETATM   17  N           1     -20.179  -4.710  -5.984  0.00  0.00    -0.360 N 
HETATM   18  C           1     -19.829  -5.549  -7.003  0.00  0.00     0.180 A 
HETATM   19  H           1     -19.990  -3.678  -5.935  0.00  0.00     0.166 HD
HETATM   20  N           1     -20.208  -6.782  -6.763  0.00  0.00    -0.355 N 
ATOM     21  HN          1     -20.069  -7.599  -7.358  1.00  0.00     0.166 HD
ENDBRANCH  14  15
ENDBRANCH   1  14
BRANCH   1  22
HETATM   22  N           1     -20.144  -9.835  -3.967  0.00  0.00    -0.066 N 
HETATM   23  H           1     -19.413 -10.128  -3.280  0.00  0.00     0.275 HD
HETATM   24  H           1     -20.998 -10.424  -3.838  0.00  0.00     0.275 HD
HETATM   25  H           1     -19.779  -9.959  -4.937  0.00  0.00     0.275 HD
ENDBRANCH   1  22
TORSDOF 9
ENDMDL
