MODEL 1
REMARK VINA RESULT:      -5.6      0.000      0.000
REMARK  10 active torsions:
REMARK  status: ('A' for Active; 'I' for Inactive)
REMARK    1  A    between atoms: C_1  and  C_13 
REMARK    2  A    between atoms: C_1  and  S_10 
REMARK    3  A    between atoms: C_2  and  C_11 
REMARK    4  A    between atoms: C_2  and  C_20 
REMARK    5  A    between atoms: N_3  and  C_14 
REMARK    6  A    between atoms: Se_5  and  C_11 
REMARK    7  A    between atoms: N_6  and  C_20 
REMARK       I    between atoms: N_6  and  C_7 
REMARK    8  A    between atoms: C_7  and  C_14 
REMARK    9  A    between atoms: C_13  and  C_14 
REMARK   10  A    between atoms: C_19  and  C_20 
ROOT
HETATM    1  N           1     -26.421  -6.678 -18.291  0.00  0.00    -0.345 N 
HETATM    2  C           1     -25.263  -6.954 -18.967  0.00  0.00     0.249 C 
HETATM    3  O           1     -24.199  -6.622 -18.503  0.00  0.00    -0.271 OA
HETATM    4  H           1     -27.313  -6.957 -18.679  0.00  0.00     0.163 HD
ENDROOT
BRANCH   2   5
HETATM    5  C           1     -25.317  -7.675 -20.292  0.00  0.00     0.275 C 
BRANCH   5   6
HETATM    6  N           1     -26.748  -7.941 -20.658  0.00  0.00    -0.066 N 
HETATM    7  H           1     -26.790  -8.711 -21.363  0.00  0.00     0.275 HD
HETATM    8  H           1     -27.279  -8.222 -19.803  0.00  0.00     0.275 HD
HETATM    9  H           1     -27.171  -7.075 -21.061  0.00  0.00     0.275 HD
ENDBRANCH   5   6
BRANCH   5  10
HETATM   10  C           1     -24.672  -6.810 -21.366  0.00  0.00     0.053 C 
BRANCH  10  11
HETATM   11  C           1     -23.897  -7.695 -22.334  0.00  0.00     0.076 C 
BRANCH  11  12
HETATM   12  S           1     -22.511  -8.478 -21.462  0.00  0.00    -0.173 SA
HETATM   13  C           1     -21.880  -9.408 -22.887  0.00  0.00     0.089 C 
ENDBRANCH  11  12
ENDBRANCH  10  11
ENDBRANCH   5  10
ENDBRANCH   2   5
BRANCH   1  14
HETATM   14  C           1     -26.369  -5.986 -17.017  0.00  0.00     0.185 C 
BRANCH  14  15
HETATM   15  C           1     -27.588  -5.085 -16.880  0.00  0.00     0.036 C 
BRANCH  15  16
HETATM   16  C           1     -28.507  -5.284 -18.079  0.00  0.00     0.003 C 
BRANCH  16  17
HETATM   17 Se           1     -30.169  -6.117 -17.494  0.00  0.00     0.000 Se
HETATM   18  C           1     -29.838  -7.804 -18.411  0.00  0.00     0.000 C 
ENDBRANCH  16  17
ENDBRANCH  15  16
ENDBRANCH  14  15
BRANCH  14  19
HETATM   19  C           1     -26.363  -6.997 -15.897  0.00  0.00     0.196 C 
HETATM   20  O           1     -27.441  -7.441 -15.448  0.00  0.00    -0.646 OA
HETATM   21  O           1     -25.277  -7.391 -15.417  0.00  0.00    -0.646 OA
ENDBRANCH  14  19
ENDBRANCH   1  14
TORSDOF 10
ENDMDL
MODEL 2
REMARK VINA RESULT:      -5.2     11.691     13.651
REMARK  10 active torsions:
REMARK  status: ('A' for Active; 'I' for Inactive)
REMARK    1  A    between atoms: C_1  and  C_13 
REMARK    2  A    between atoms: C_1  and  S_10 
REMARK    3  A    between atoms: C_2  and  C_11 
REMARK    4  A    between atoms: C_2  and  C_20 
REMARK    5  A    between atoms: N_3  and  C_14 
REMARK    6  A    between atoms: Se_5  and  C_11 
REMARK    7  A    between atoms: N_6  and  C_20 
REMARK       I    between atoms: N_6  and  C_7 
REMARK    8  A    between atoms: C_7  and  C_14 
REMARK    9  A    between atoms: C_13  and  C_14 
REMARK   10  A    between atoms: C_19  and  C_20 
ROOT
HETATM    1  N           1     -35.330  -1.029 -12.030  0.00  0.00    -0.345 N 
HETATM    2  C           1     -34.502  -2.082 -12.311  0.00  0.00     0.249 C 
HETATM    3  O           1     -34.663  -2.725 -13.321  0.00  0.00    -0.271 OA
HETATM    4  H           1     -35.194  -0.490 -11.184  0.00  0.00     0.163 HD
ENDROOT
BRANCH   2   5
HETATM    5  C           1     -33.387  -2.440 -11.359  0.00  0.00     0.275 C 
BRANCH   5   6
HETATM    6  N           1     -33.787  -2.075  -9.960  0.00  0.00    -0.066 N 
HETATM    7  H           1     -32.956  -1.708  -9.444  0.00  0.00     0.275 HD
HETATM    8  H           1     -34.530  -1.340  -9.992  0.00  0.00     0.275 HD
HETATM    9  H           1     -34.156  -2.922  -9.471  0.00  0.00     0.275 HD
ENDBRANCH   5   6
BRANCH   5  10
HETATM   10  C           1     -33.115  -3.936 -11.434  0.00  0.00     0.053 C 
BRANCH  10  11
HETATM   11  C           1     -34.075  -4.674 -10.510  0.00  0.00     0.076 C 
BRANCH  11  12
HETATM   12  S           1     -34.712  -6.151 -11.350  0.00  0.00    -0.173 SA
HETATM   13  C           1     -34.841  -7.186  -9.865  0.00  0.00     0.089 C 
ENDBRANCH  11  12
ENDBRANCH  10  11
ENDBRANCH   5  10
ENDBRANCH   2   5
BRANCH   1  14
HETATM   14  C           1     -36.401  -0.685 -12.945  0.00  0.00     0.185 C 
BRANCH  14  15
HETATM   15  C           1     -37.591  -0.156 -12.156  0.00  0.00     0.036 C 
BRANCH  15  16
HETATM   16  C           1     -37.463  -0.578 -10.697  0.00  0.00     0.003 C 
BRANCH  16  17
HETATM   17 Se           1     -37.858   0.942  -9.543  0.00  0.00     0.000 Se
HETATM   18  C           1     -36.692   0.355  -8.096  0.00  0.00     0.000 C 
ENDBRANCH  16  17
ENDBRANCH  15  16
ENDBRANCH  14  15
BRANCH  14  19
HETATM   19  C           1     -35.921   0.377 -13.903  0.00  0.00     0.196 C 
HETATM   20  O           1     -34.920   1.070 -13.620  0.00  0.00    -0.646 OA
HETATM   21  O           1     -36.525   0.564 -14.982  0.00  0.00    -0.646 OA
ENDBRANCH  14  19
ENDBRANCH   1  14
TORSDOF 10
ENDMDL
MODEL 3
REMARK VINA RESULT:      -5.1      2.195      3.435
REMARK  10 active torsions:
REMARK  status: ('A' for Active; 'I' for Inactive)
REMARK    1  A    between atoms: C_1  and  C_13 
REMARK    2  A    between atoms: C_1  and  S_10 
REMARK    3  A    between atoms: C_2  and  C_11 
REMARK    4  A    between atoms: C_2  and  C_20 
REMARK    5  A    between atoms: N_3  and  C_14 
REMARK    6  A    between atoms: Se_5  and  C_11 
REMARK    7  A    between atoms: N_6  and  C_20 
REMARK       I    between atoms: N_6  and  C_7 
REMARK    8  A    between atoms: C_7  and  C_14 
REMARK    9  A    between atoms: C_13  and  C_14 
REMARK   10  A    between atoms: C_19  and  C_20 
ROOT
HETATM    1  N           1     -27.276  -6.658 -17.090  0.00  0.00    -0.345 N 
HETATM    2  C           1     -26.133  -6.979 -16.409  0.00  0.00     0.249 C 
HETATM    3  O           1     -26.203  -7.464 -15.305  0.00  0.00    -0.271 OA
HETATM    4  H           1     -27.218  -6.252 -18.015  0.00  0.00     0.163 HD
ENDROOT
BRANCH   2   5
HETATM    5  C           1     -24.785  -6.726 -17.038  0.00  0.00     0.275 C 
BRANCH   5   6
HETATM    6  N           1     -23.841  -7.829 -16.658  0.00  0.00    -0.066 N 
HETATM    7  H           1     -23.321  -8.151 -17.505  0.00  0.00     0.275 HD
HETATM    8  H           1     -23.163  -7.476 -15.945  0.00  0.00     0.275 HD
HETATM    9  H           1     -24.384  -8.627 -16.256  0.00  0.00     0.275 HD
ENDBRANCH   5   6
BRANCH   5  10
HETATM   10  C           1     -24.930  -6.683 -18.553  0.00  0.00     0.053 C 
BRANCH  10  11
HETATM   11  C           1     -23.767  -7.427 -19.196  0.00  0.00     0.076 C 
BRANCH  11  12
HETATM   12  S           1     -24.218  -7.912 -20.886  0.00  0.00    -0.173 SA
HETATM   13  C           1     -25.994  -7.573 -20.724  0.00  0.00     0.089 C 
ENDBRANCH  11  12
ENDBRANCH  10  11
ENDBRANCH   5  10
ENDBRANCH   2   5
BRANCH   1  14
HETATM   14  C           1     -28.572  -6.901 -16.486  0.00  0.00     0.185 C 
BRANCH  14  15
HETATM   15  C           1     -29.104  -5.606 -15.888  0.00  0.00     0.036 C 
BRANCH  15  16
HETATM   16  C           1     -28.605  -4.424 -16.708  0.00  0.00     0.003 C 
BRANCH  16  17
HETATM   17 Se           1     -30.010  -3.836 -17.925  0.00  0.00     0.000 Se
HETATM   18  C           1     -31.473  -4.436 -16.786  0.00  0.00     0.000 C 
ENDBRANCH  16  17
ENDBRANCH  15  16
ENDBRANCH  14  15
BRANCH  14  19
HETATM   19  C           1     -29.531  -7.400 -17.539  0.00  0.00     0.196 C 
HETATM   20  O           1     -29.178  -7.443 -18.737  0.00  0.00    -0.646 OA
HETATM   21  O           1     -30.680  -7.772 -17.213  0.00  0.00    -0.646 OA
ENDBRANCH  14  19
ENDBRANCH   1  14
TORSDOF 10
ENDMDL
MODEL 4
REMARK VINA RESULT:      -4.9      2.103      2.720
REMARK  10 active torsions:
REMARK  status: ('A' for Active; 'I' for Inactive)
REMARK    1  A    between atoms: C_1  and  C_13 
REMARK    2  A    between atoms: C_1  and  S_10 
REMARK    3  A    between atoms: C_2  and  C_11 
REMARK    4  A    between atoms: C_2  and  C_20 
REMARK    5  A    between atoms: N_3  and  C_14 
REMARK    6  A    between atoms: Se_5  and  C_11 
REMARK    7  A    between atoms: N_6  and  C_20 
REMARK       I    between atoms: N_6  and  C_7 
REMARK    8  A    between atoms: C_7  and  C_14 
REMARK    9  A    between atoms: C_13  and  C_14 
REMARK   10  A    between atoms: C_19  and  C_20 
ROOT
HETATM    1  N           1     -26.789  -6.225 -17.076  0.00  0.00    -0.345 N 
HETATM    2  C           1     -25.480  -6.190 -16.680  0.00  0.00     0.249 C 
HETATM    3  O           1     -25.167  -5.593 -15.677  0.00  0.00    -0.271 OA
HETATM    4  H           1     -27.051  -6.725 -17.916  0.00  0.00     0.163 HD
ENDROOT
BRANCH   2   5
HETATM    5  C           1     -24.426  -6.897 -17.496  0.00  0.00     0.275 C 
BRANCH   5   6
HETATM    6  N           1     -24.090  -8.209 -16.850  0.00  0.00    -0.066 N 
HETATM    7  H           1     -23.278  -8.644 -17.344  0.00  0.00     0.275 HD
HETATM    8  H           1     -23.842  -8.048 -15.847  0.00  0.00     0.275 HD
HETATM    9  H           1     -24.916  -8.847 -16.907  0.00  0.00     0.275 HD
ENDBRANCH   5   6
BRANCH   5  10
HETATM   10  C           1     -24.954  -7.147 -18.902  0.00  0.00     0.053 C 
BRANCH  10  11
HETATM   11  C           1     -23.811  -7.596 -19.803  0.00  0.00     0.076 C 
BRANCH  11  12
HETATM   12  S           1     -24.445  -7.917 -21.473  0.00  0.00    -0.173 SA
HETATM   13  C           1     -26.198  -7.998 -21.009  0.00  0.00     0.089 C 
ENDBRANCH  11  12
ENDBRANCH  10  11
ENDBRANCH   5  10
ENDBRANCH   2   5
BRANCH   1  14
HETATM   14  C           1     -27.802  -5.545 -16.292  0.00  0.00     0.185 C 
BRANCH  14  15
HETATM   15  C           1     -28.934  -5.095 -17.205  0.00  0.00     0.036 C 
BRANCH  15  16
HETATM   16  C           1     -28.880  -5.882 -18.509  0.00  0.00     0.003 C 
BRANCH  16  17
HETATM   17 Se           1     -29.913  -7.524 -18.322  0.00  0.00     0.000 Se
HETATM   18  C           1     -31.398  -6.676 -17.387  0.00  0.00     0.000 C 
ENDBRANCH  16  17
ENDBRANCH  15  16
ENDBRANCH  14  15
BRANCH  14  19
HETATM   19  C           1     -28.343  -6.488 -15.246  0.00  0.00     0.196 C 
HETATM   20  O           1     -27.826  -7.615 -15.091  0.00  0.00    -0.646 OA
HETATM   21  O           1     -29.311  -6.142 -14.533  0.00  0.00    -0.646 OA
ENDBRANCH  14  19
ENDBRANCH   1  14
TORSDOF 10
ENDMDL
MODEL 5
REMARK VINA RESULT:      -4.7     12.486     14.716
REMARK  10 active torsions:
REMARK  status: ('A' for Active; 'I' for Inactive)
REMARK    1  A    between atoms: C_1  and  C_13 
REMARK    2  A    between atoms: C_1  and  S_10 
REMARK    3  A    between atoms: C_2  and  C_11 
REMARK    4  A    between atoms: C_2  and  C_20 
REMARK    5  A    between atoms: N_3  and  C_14 
REMARK    6  A    between atoms: Se_5  and  C_11 
REMARK    7  A    between atoms: N_6  and  C_20 
REMARK       I    between atoms: N_6  and  C_7 
REMARK    8  A    between atoms: C_7  and  C_14 
REMARK    9  A    between atoms: C_13  and  C_14 
REMARK   10  A    between atoms: C_19  and  C_20 
ROOT
HETATM    1  N           1     -20.935  -6.635  -4.926  0.00  0.00    -0.345 N 
HETATM    2  C           1     -21.497  -5.707  -5.760  0.00  0.00     0.249 C 
HETATM    3  O           1     -22.690  -5.519  -5.739  0.00  0.00    -0.271 OA
HETATM    4  H           1     -19.936  -6.792  -4.942  0.00  0.00     0.163 HD
ENDROOT
BRANCH   2   5
HETATM    5  C           1     -20.625  -4.916  -6.705  0.00  0.00     0.275 C 
BRANCH   5   6
HETATM    6  N           1     -20.136  -5.814  -7.803  0.00  0.00    -0.066 N 
HETATM    7  H           1     -19.904  -6.754  -7.408  0.00  0.00     0.275 HD
HETATM    8  H           1     -20.883  -5.915  -8.527  0.00  0.00     0.275 HD
HETATM    9  H           1     -19.282  -5.398  -8.238  0.00  0.00     0.275 HD
ENDBRANCH   5   6
BRANCH   5  10
HETATM   10  C           1     -21.433  -3.774  -7.306  0.00  0.00     0.053 C 
BRANCH  10  11
HETATM   11  C           1     -21.759  -4.092  -8.759  0.00  0.00     0.076 C 
BRANCH  11  12
HETATM   12  S           1     -23.554  -3.995  -9.012  0.00  0.00    -0.173 SA
HETATM   13  C           1     -23.575  -4.845 -10.615  0.00  0.00     0.089 C 
ENDBRANCH  11  12
ENDBRANCH  10  11
ENDBRANCH   5  10
ENDBRANCH   2   5
BRANCH   1  14
HETATM   14  C           1     -21.773  -7.395  -4.018  0.00  0.00     0.185 C 
BRANCH  14  15
HETATM   15  C           1     -21.343  -8.855  -4.033  0.00  0.00     0.036 C 
BRANCH  15  16
HETATM   16  C           1     -20.211  -9.043  -5.034  0.00  0.00     0.003 C 
BRANCH  16  17
HETATM   17 Se           1     -18.559  -9.445  -4.081  0.00  0.00     0.000 Se
HETATM   18  C           1     -17.541  -9.864  -5.689  0.00  0.00     0.000 C 
ENDBRANCH  16  17
ENDBRANCH  15  16
ENDBRANCH  14  15
BRANCH  14  19
HETATM   19  C           1     -21.629  -6.842  -2.621  0.00  0.00     0.196 C 
HETATM   20  O           1     -20.813  -7.356  -1.826  0.00  0.00    -0.646 OA
HETATM   21  O           1     -22.326  -5.870  -2.258  0.00  0.00    -0.646 OA
ENDBRANCH  14  19
ENDBRANCH   1  14
TORSDOF 10
ENDMDL
MODEL 6
REMARK VINA RESULT:      -4.7     12.235     14.341
REMARK  10 active torsions:
REMARK  status: ('A' for Active; 'I' for Inactive)
REMARK    1  A    between atoms: C_1  and  C_13 
REMARK    2  A    between atoms: C_1  and  S_10 
REMARK    3  A    between atoms: C_2  and  C_11 
REMARK    4  A    between atoms: C_2  and  C_20 
REMARK    5  A    between atoms: N_3  and  C_14 
REMARK    6  A    between atoms: Se_5  and  C_11 
REMARK    7  A    between atoms: N_6  and  C_20 
REMARK       I    between atoms: N_6  and  C_7 
REMARK    8  A    between atoms: C_7  and  C_14 
REMARK    9  A    between atoms: C_13  and  C_14 
REMARK   10  A    between atoms: C_19  and  C_20 
ROOT
HETATM    1  N           1     -21.292  -6.012  -5.869  0.00  0.00    -0.345 N 
HETATM    2  C           1     -20.672  -4.817  -6.117  0.00  0.00     0.249 C 
HETATM    3  O           1     -19.851  -4.390  -5.341  0.00  0.00    -0.271 OA
HETATM    4  H           1     -21.979  -6.370  -6.519  0.00  0.00     0.163 HD
ENDROOT
BRANCH   2   5
HETATM    5  C           1     -21.016  -4.033  -7.360  0.00  0.00     0.275 C 
BRANCH   5   6
HETATM    6  N           1     -19.912  -4.182  -8.365  0.00  0.00    -0.066 N 
HETATM    7  H           1     -18.998  -4.283  -7.869  0.00  0.00     0.275 HD
HETATM    8  H           1     -20.087  -5.031  -8.950  0.00  0.00     0.275 HD
HETATM    9  H           1     -19.884  -3.337  -8.979  0.00  0.00     0.275 HD
ENDBRANCH   5   6
BRANCH   5  10
HETATM   10  C           1     -22.315  -4.562  -7.952  0.00  0.00     0.053 C 
BRANCH  10  11
HETATM   11  C           1     -22.782  -3.634  -9.065  0.00  0.00     0.076 C 
BRANCH  11  12
HETATM   12  S           1     -23.350  -4.621 -10.478  0.00  0.00    -0.173 SA
HETATM   13  C           1     -21.876  -4.367 -11.505  0.00  0.00     0.089 C 
ENDBRANCH  11  12
ENDBRANCH  10  11
ENDBRANCH   5  10
ENDBRANCH   2   5
BRANCH   1  14
HETATM   14  C           1     -20.962  -6.765  -4.674  0.00  0.00     0.185 C 
BRANCH  14  15
HETATM   15  C           1     -22.122  -6.691  -3.691  0.00  0.00     0.036 C 
BRANCH  15  16
HETATM   16  C           1     -21.648  -6.052  -2.392  0.00  0.00     0.003 C 
BRANCH  16  17
HETATM   17 Se           1     -22.314  -7.085  -0.879  0.00  0.00     0.000 Se
HETATM   18  C           1     -20.860  -8.383  -0.915  0.00  0.00     0.000 C 
ENDBRANCH  16  17
ENDBRANCH  15  16
ENDBRANCH  14  15
BRANCH  14  19
HETATM   19  C           1     -20.707  -8.206  -5.044  0.00  0.00     0.196 C 
HETATM   20  O           1     -21.187  -8.676  -6.098  0.00  0.00    -0.646 OA
HETATM   21  O           1     -20.015  -8.931  -4.296  0.00  0.00    -0.646 OA
ENDBRANCH  14  19
ENDBRANCH   1  14
TORSDOF 10
ENDMDL
MODEL 7
REMARK VINA RESULT:      -4.7     12.908     15.477
REMARK  10 active torsions:
REMARK  status: ('A' for Active; 'I' for Inactive)
REMARK    1  A    between atoms: C_1  and  C_13 
REMARK    2  A    between atoms: C_1  and  S_10 
REMARK    3  A    between atoms: C_2  and  C_11 
REMARK    4  A    between atoms: C_2  and  C_20 
REMARK    5  A    between atoms: N_3  and  C_14 
REMARK    6  A    between atoms: Se_5  and  C_11 
REMARK    7  A    between atoms: N_6  and  C_20 
REMARK       I    between atoms: N_6  and  C_7 
REMARK    8  A    between atoms: C_7  and  C_14 
REMARK    9  A    between atoms: C_13  and  C_14 
REMARK   10  A    between atoms: C_19  and  C_20 
ROOT
HETATM    1  N           1     -21.313  -5.512  -4.902  0.00  0.00    -0.345 N 
HETATM    2  C           1     -21.302  -6.625  -4.105  0.00  0.00     0.249 C 
HETATM    3  O           1     -21.328  -7.725  -4.603  0.00  0.00    -0.271 OA
HETATM    4  H           1     -21.290  -4.591  -4.485  0.00  0.00     0.163 HD
ENDROOT
BRANCH   2   5
HETATM    5  C           1     -21.257  -6.477  -2.604  0.00  0.00     0.275 C 
BRANCH   5   6
HETATM    6  N           1     -22.561  -5.914  -2.119  0.00  0.00    -0.066 N 
HETATM    7  H           1     -22.722  -4.979  -2.557  0.00  0.00     0.275 HD
HETATM    8  H           1     -23.338  -6.561  -2.381  0.00  0.00     0.275 HD
HETATM    9  H           1     -22.529  -5.811  -1.079  0.00  0.00     0.275 HD
ENDBRANCH   5   6
BRANCH   5  10
HETATM   10  C           1     -21.026  -7.840  -1.966  0.00  0.00     0.053 C 
BRANCH  10  11
HETATM   11  C           1     -21.757  -7.908  -0.632  0.00  0.00     0.076 C 
BRANCH  11  12
HETATM   12  S           1     -22.585  -9.516  -0.476  0.00  0.00    -0.173 SA
HETATM   13  C           1     -22.095 -10.151  -2.103  0.00  0.00     0.089 C 
ENDBRANCH  11  12
ENDBRANCH  10  11
ENDBRANCH   5  10
ENDBRANCH   2   5
BRANCH   1  14
HETATM   14  C           1     -21.355  -5.654  -6.345  0.00  0.00     0.185 C 
BRANCH  14  15
HETATM   15  C           1     -22.163  -4.511  -6.943  0.00  0.00     0.036 C 
BRANCH  15  16
HETATM   16  C           1     -22.138  -4.610  -8.463  0.00  0.00     0.003 C 
BRANCH  16  17
HETATM   17 Se           1     -23.791  -3.877  -9.191  0.00  0.00     0.000 Se
HETATM   18  C           1     -23.688  -4.871 -10.864  0.00  0.00     0.000 C 
ENDBRANCH  16  17
ENDBRANCH  15  16
ENDBRANCH  14  15
BRANCH  14  19
HETATM   19  C           1     -19.950  -5.619  -6.894  0.00  0.00     0.196 C 
HETATM   20  O           1     -19.477  -6.624  -7.467  0.00  0.00    -0.646 OA
HETATM   21  O           1     -19.259  -4.584  -6.776  0.00  0.00    -0.646 OA
ENDBRANCH  14  19
ENDBRANCH   1  14
TORSDOF 10
ENDMDL
MODEL 8
REMARK VINA RESULT:      -4.6      2.512      6.547
REMARK  10 active torsions:
REMARK  status: ('A' for Active; 'I' for Inactive)
REMARK    1  A    between atoms: C_1  and  C_13 
REMARK    2  A    between atoms: C_1  and  S_10 
REMARK    3  A    between atoms: C_2  and  C_11 
REMARK    4  A    between atoms: C_2  and  C_20 
REMARK    5  A    between atoms: N_3  and  C_14 
REMARK    6  A    between atoms: Se_5  and  C_11 
REMARK    7  A    between atoms: N_6  and  C_20 
REMARK       I    between atoms: N_6  and  C_7 
REMARK    8  A    between atoms: C_7  and  C_14 
REMARK    9  A    between atoms: C_13  and  C_14 
REMARK   10  A    between atoms: C_19  and  C_20 
ROOT
HETATM    1  N           1     -26.858  -6.766 -19.007  0.00  0.00    -0.345 N 
HETATM    2  C           1     -27.705  -5.895 -18.378  0.00  0.00     0.249 C 
HETATM    3  O           1     -28.482  -5.233 -19.024  0.00  0.00    -0.271 OA
HETATM    4  H           1     -26.208  -7.321 -18.465  0.00  0.00     0.163 HD
ENDROOT
BRANCH   2   5
HETATM    5  C           1     -27.669  -5.760 -16.875  0.00  0.00     0.275 C 
BRANCH   5   6
HETATM    6  N           1     -27.719  -4.307 -16.502  0.00  0.00    -0.066 N 
HETATM    7  H           1     -27.367  -3.730 -17.300  0.00  0.00     0.275 HD
HETATM    8  H           1     -28.705  -4.038 -16.285  0.00  0.00     0.275 HD
HETATM    9  H           1     -27.120  -4.143 -15.662  0.00  0.00     0.275 HD
ENDBRANCH   5   6
BRANCH   5  10
HETATM   10  C           1     -28.867  -6.479 -16.271  0.00  0.00     0.053 C 
BRANCH  10  11
HETATM   11  C           1     -29.832  -5.457 -15.685  0.00  0.00     0.076 C 
BRANCH  11  12
HETATM   12  S           1     -31.232  -5.226 -16.817  0.00  0.00    -0.173 SA
HETATM   13  C           1     -31.208  -6.903 -17.509  0.00  0.00     0.089 C 
ENDBRANCH  11  12
ENDBRANCH  10  11
ENDBRANCH   5  10
ENDBRANCH   2   5
BRANCH   1  14
HETATM   14  C           1     -26.894  -6.896 -20.451  0.00  0.00     0.185 C 
BRANCH  14  15
HETATM   15  C           1     -25.481  -6.772 -21.006  0.00  0.00     0.036 C 
BRANCH  15  16
HETATM   16  C           1     -24.496  -7.419 -20.041  0.00  0.00     0.003 C 
BRANCH  16  17
HETATM   17 Se           1     -23.136  -8.384 -21.049  0.00  0.00     0.000 Se
HETATM   18  C           1     -23.753  -7.763 -22.790  0.00  0.00     0.000 C 
ENDBRANCH  16  17
ENDBRANCH  15  16
ENDBRANCH  14  15
BRANCH  14  19
HETATM   19  C           1     -27.462  -8.244 -20.820  0.00  0.00     0.196 C 
HETATM   20  O           1     -26.876  -8.963 -21.658  0.00  0.00    -0.646 OA
HETATM   21  O           1     -28.521  -8.643 -20.287  0.00  0.00    -0.646 OA
ENDBRANCH  14  19
ENDBRANCH   1  14
TORSDOF 10
ENDMDL
MODEL 9
REMARK VINA RESULT:      -4.5     13.070     15.161
REMARK  10 active torsions:
REMARK  status: ('A' for Active; 'I' for Inactive)
REMARK    1  A    between atoms: C_1  and  C_13 
REMARK    2  A    between atoms: C_1  and  S_10 
REMARK    3  A    between atoms: C_2  and  C_11 
REMARK    4  A    between atoms: C_2  and  C_20 
REMARK    5  A    between atoms: N_3  and  C_14 
REMARK    6  A    between atoms: Se_5  and  C_11 
REMARK    7  A    between atoms: N_6  and  C_20 
REMARK       I    between atoms: N_6  and  C_7 
REMARK    8  A    between atoms: C_7  and  C_14 
REMARK    9  A    between atoms: C_13  and  C_14 
REMARK   10  A    between atoms: C_19  and  C_20 
ROOT
HETATM    1  N           1     -20.795  -7.038  -4.546  0.00  0.00    -0.345 N 
HETATM    2  C           1     -21.451  -6.120  -5.322  0.00  0.00     0.249 C 
HETATM    3  O           1     -22.650  -6.006  -5.238  0.00  0.00    -0.271 OA
HETATM    4  H           1     -19.790  -7.133  -4.616  0.00  0.00     0.163 HD
ENDROOT
BRANCH   2   5
HETATM    5  C           1     -20.675  -5.251  -6.281  0.00  0.00     0.275 C 
BRANCH   5   6
HETATM    6  N           1     -19.914  -6.120  -7.238  0.00  0.00    -0.066 N 
HETATM    7  H           1     -20.131  -7.124  -7.047  0.00  0.00     0.275 HD
HETATM    8  H           1     -20.191  -5.884  -8.218  0.00  0.00     0.275 HD
HETATM    9  H           1     -18.889  -5.956  -7.117  0.00  0.00     0.275 HD
ENDBRANCH   5   6
BRANCH   5  10
HETATM   10  C           1     -21.640  -4.366  -7.058  0.00  0.00     0.053 C 
BRANCH  10  11
HETATM   11  C           1     -21.659  -4.794  -8.519  0.00  0.00     0.076 C 
BRANCH  11  12
HETATM   12  S           1     -22.870  -3.793  -9.429  0.00  0.00    -0.173 SA
HETATM   13  C           1     -21.886  -3.618 -10.943  0.00  0.00     0.089 C 
ENDBRANCH  11  12
ENDBRANCH  10  11
ENDBRANCH   5  10
ENDBRANCH   2   5
BRANCH   1  14
HETATM   14  C           1     -21.540  -7.873  -3.624  0.00  0.00     0.185 C 
BRANCH  14  15
HETATM   15  C           1     -20.998  -9.295  -3.676  0.00  0.00     0.036 C 
BRANCH  15  16
HETATM   16  C           1     -22.107 -10.276  -3.320  0.00  0.00     0.003 C 
BRANCH  16  17
HETATM   17 Se           1     -21.684 -11.151  -1.631  0.00  0.00     0.000 Se
HETATM   18  C           1     -23.113 -10.279  -0.633  0.00  0.00     0.000 C 
ENDBRANCH  16  17
ENDBRANCH  15  16
ENDBRANCH  14  15
BRANCH  14  19
HETATM   19  C           1     -21.393  -7.329  -2.224  0.00  0.00     0.196 C 
HETATM   20  O           1     -22.223  -6.505  -1.782  0.00  0.00    -0.646 OA
HETATM   21  O           1     -20.441  -7.703  -1.505  0.00  0.00    -0.646 OA
ENDBRANCH  14  19
ENDBRANCH   1  14
TORSDOF 10
ENDMDL
