MODEL 1
REMARK VINA RESULT:      -6.0      0.000      0.000
REMARK  8 active torsions:
REMARK  status: ('A' for Active; 'I' for Inactive)
REMARK    1  A    between atoms: C_4  and  C_10 
REMARK    2  A    between atoms: C_4  and  C_20 
REMARK    3  A    between atoms: C_4  and  N_19 
REMARK    4  A    between atoms: Se_9  and  C_10 
REMARK    5  A    between atoms: C_11  and  C_18 
REMARK    6  A    between atoms: C_11  and  C_12 
REMARK    7  A    between atoms: C_11  and  N_16 
REMARK    8  A    between atoms: C_12  and  C_14 
REMARK       I    between atoms: C_18  and  N_19 
ROOT
HETATM    1  H           1     -33.982  -1.195 -14.337  0.00  0.00     0.163 HD
HETATM    2  O           1     -36.444  -1.514 -12.420  0.00  0.00    -0.271 OA
HETATM    3  C           1     -35.292  -1.572 -12.781  0.00  0.00     0.249 C 
HETATM    4  N           1     -34.946  -1.145 -14.035  0.00  0.00    -0.345 N 
ENDROOT
BRANCH   3   5
HETATM    5  C           1     -34.237  -2.114 -11.849  0.00  0.00     0.278 C 
BRANCH   5   6
HETATM    6  C           1     -34.152  -3.627 -11.999  0.00  0.00     0.021 C 
HETATM    7  C           1     -32.698  -4.067 -11.904  0.00  0.00     0.012 C 
BRANCH   6   8
HETATM    8  C           1     -34.956  -4.292 -10.890  0.00  0.00     0.002 C 
HETATM    9  C           1     -34.274  -5.591 -10.477  0.00  0.00     0.005 C 
ENDBRANCH   6   8
ENDBRANCH   5   6
BRANCH   5  10
HETATM   10  N           1     -34.596  -1.772 -10.435  0.00  0.00    -0.066 N 
HETATM   11  H           1     -35.636  -1.760 -10.332  0.00  0.00     0.275 HD
HETATM   12  H           1     -34.212  -0.831 -10.195  0.00  0.00     0.275 HD
HETATM   13  H           1     -34.192  -2.488  -9.790  0.00  0.00     0.275 HD
ENDBRANCH   5  10
ENDBRANCH   3   5
BRANCH   4  14
HETATM   14  C           1     -35.961  -0.625 -14.930  0.00  0.00     0.185 C 
BRANCH  14  15
HETATM   15  C           1     -35.798   0.884 -15.058  0.00  0.00     0.039 C 
BRANCH  15  16
HETATM   16 Se           1     -34.541   1.518 -13.710  0.00  0.00     0.000 Se
HETATM   17  H           1     -33.654   2.179 -14.681  0.00  0.00     0.000 HD
ENDBRANCH  15  16
ENDBRANCH  14  15
BRANCH  14  18
HETATM   18  C           1     -35.810  -1.265 -16.288  0.00  0.00     0.196 C 
HETATM   19  O           1     -36.494  -0.856 -17.251  0.00  0.00    -0.646 OA
HETATM   20  O           1     -35.001  -2.204 -16.451  0.00  0.00    -0.646 OA
ENDBRANCH  14  18
ENDBRANCH   4  14
TORSDOF 8
ENDMDL
MODEL 2
REMARK VINA RESULT:      -5.6     10.264     11.573
REMARK  8 active torsions:
REMARK  status: ('A' for Active; 'I' for Inactive)
REMARK    1  A    between atoms: C_4  and  C_10 
REMARK    2  A    between atoms: C_4  and  C_20 
REMARK    3  A    between atoms: C_4  and  N_19 
REMARK    4  A    between atoms: Se_9  and  C_10 
REMARK    5  A    between atoms: C_11  and  C_18 
REMARK    6  A    between atoms: C_11  and  C_12 
REMARK    7  A    between atoms: C_11  and  N_16 
REMARK    8  A    between atoms: C_12  and  C_14 
REMARK       I    between atoms: C_18  and  N_19 
ROOT
HETATM    1  H           1     -27.627  -6.940 -19.701  0.00  0.00     0.163 HD
HETATM    2  O           1     -26.210  -5.910 -17.099  0.00  0.00    -0.271 OA
HETATM    3  C           1     -26.308  -6.345 -18.222  0.00  0.00     0.249 C 
HETATM    4  N           1     -27.545  -6.576 -18.761  0.00  0.00    -0.345 N 
ENDROOT
BRANCH   3   5
HETATM    5  C           1     -25.066  -6.634 -19.030  0.00  0.00     0.278 C 
BRANCH   5   6
HETATM    6  C           1     -25.463  -7.139 -20.410  0.00  0.00     0.021 C 
HETATM    7  C           1     -25.498  -5.973 -21.388  0.00  0.00     0.012 C 
BRANCH   6   8
HETATM    8  C           1     -24.445  -8.168 -20.885  0.00  0.00     0.002 C 
HETATM    9  C           1     -24.021  -7.842 -22.311  0.00  0.00     0.005 C 
ENDBRANCH   6   8
ENDBRANCH   5   6
BRANCH   5  10
HETATM   10  N           1     -24.248  -7.678 -18.332  0.00  0.00    -0.066 N 
HETATM   11  H           1     -23.276  -7.321 -18.186  0.00  0.00     0.275 HD
HETATM   12  H           1     -24.217  -8.543 -18.916  0.00  0.00     0.275 HD
HETATM   13  H           1     -24.679  -7.897 -17.406  0.00  0.00     0.275 HD
ENDBRANCH   5  10
ENDBRANCH   3   5
BRANCH   4  14
HETATM   14  C           1     -28.738  -6.298 -17.984  0.00  0.00     0.185 C 
BRANCH  14  15
HETATM   15  C           1     -29.350  -4.983 -18.448  0.00  0.00     0.039 C 
BRANCH  15  16
HETATM   16 Se           1     -28.894  -3.572 -17.183  0.00  0.00     0.000 Se
HETATM   17  H           1     -28.538  -4.500 -16.098  0.00  0.00     0.000 HD
ENDBRANCH  15  16
ENDBRANCH  14  15
BRANCH  14  18
HETATM   18  C           1     -29.734  -7.414 -18.177  0.00  0.00     0.196 C 
HETATM   19  O           1     -29.494  -8.334 -18.988  0.00  0.00    -0.646 OA
HETATM   20  O           1     -30.802  -7.419 -17.526  0.00  0.00    -0.646 OA
ENDBRANCH  14  18
ENDBRANCH   4  14
TORSDOF 8
ENDMDL
MODEL 3
REMARK VINA RESULT:      -5.5     12.961     14.497
REMARK  8 active torsions:
REMARK  status: ('A' for Active; 'I' for Inactive)
REMARK    1  A    between atoms: C_4  and  C_10 
REMARK    2  A    between atoms: C_4  and  C_20 
REMARK    3  A    between atoms: C_4  and  N_19 
REMARK    4  A    between atoms: Se_9  and  C_10 
REMARK    5  A    between atoms: C_11  and  C_18 
REMARK    6  A    between atoms: C_11  and  C_12 
REMARK    7  A    between atoms: C_11  and  N_16 
REMARK    8  A    between atoms: C_12  and  C_14 
REMARK       I    between atoms: C_18  and  N_19 
ROOT
HETATM    1  H           1     -22.174  -5.629  -9.616  0.00  0.00     0.163 HD
HETATM    2  O           1     -21.743  -3.623  -7.244  0.00  0.00    -0.271 OA
HETATM    3  C           1     -21.682  -4.665  -7.853  0.00  0.00     0.249 C 
HETATM    4  N           1     -22.225  -4.757  -9.107  0.00  0.00    -0.345 N 
ENDROOT
BRANCH   3   5
HETATM    5  C           1     -21.006  -5.863  -7.233  0.00  0.00     0.278 C 
BRANCH   5   6
HETATM    6  C           1     -21.635  -6.157  -5.877  0.00  0.00     0.021 C 
HETATM    7  C           1     -21.633  -7.660  -5.632  0.00  0.00     0.012 C 
BRANCH   6   8
HETATM    8  C           1     -20.831  -5.465  -4.784  0.00  0.00     0.002 C 
HETATM    9  C           1     -21.235  -6.023  -3.426  0.00  0.00     0.005 C 
ENDBRANCH   6   8
ENDBRANCH   5   6
BRANCH   5  10
HETATM   10  N           1     -19.546  -5.575  -7.054  0.00  0.00    -0.066 N 
HETATM   11  H           1     -19.364  -5.296  -6.064  0.00  0.00     0.275 HD
HETATM   12  H           1     -19.263  -4.799  -7.693  0.00  0.00     0.275 HD
HETATM   13  H           1     -18.992  -6.432  -7.280  0.00  0.00     0.275 HD
ENDBRANCH   5  10
ENDBRANCH   3   5
BRANCH   4  14
HETATM   14  C           1     -22.875  -3.606  -9.702  0.00  0.00     0.185 C 
BRANCH  14  15
HETATM   15  C           1     -22.094  -3.164 -10.933  0.00  0.00     0.039 C 
BRANCH  15  16
HETATM   16 Se           1     -20.446  -4.197 -11.062  0.00  0.00     0.000 Se
HETATM   17  H           1     -20.152  -4.128  -9.622  0.00  0.00     0.000 HD
ENDBRANCH  15  16
ENDBRANCH  14  15
BRANCH  14  18
HETATM   18  C           1     -24.281  -3.973 -10.103  0.00  0.00     0.196 C 
HETATM   19  O           1     -24.757  -5.081  -9.773  0.00  0.00    -0.646 OA
HETATM   20  O           1     -24.974  -3.168 -10.764  0.00  0.00    -0.646 OA
ENDBRANCH  14  18
ENDBRANCH   4  14
TORSDOF 8
ENDMDL
MODEL 4
REMARK VINA RESULT:      -5.2     15.864     17.254
REMARK  8 active torsions:
REMARK  status: ('A' for Active; 'I' for Inactive)
REMARK    1  A    between atoms: C_4  and  C_10 
REMARK    2  A    between atoms: C_4  and  C_20 
REMARK    3  A    between atoms: C_4  and  N_19 
REMARK    4  A    between atoms: Se_9  and  C_10 
REMARK    5  A    between atoms: C_11  and  C_18 
REMARK    6  A    between atoms: C_11  and  C_12 
REMARK    7  A    between atoms: C_11  and  N_16 
REMARK    8  A    between atoms: C_12  and  C_14 
REMARK       I    between atoms: C_18  and  N_19 
ROOT
HETATM    1  H           1     -20.588  -4.655  -4.398  0.00  0.00     0.163 HD
HETATM    2  O           1     -21.961  -7.455  -4.730  0.00  0.00    -0.271 OA
HETATM    3  C           1     -21.451  -6.520  -4.160  0.00  0.00     0.249 C 
HETATM    4  N           1     -21.015  -5.437  -4.876  0.00  0.00    -0.345 N 
ENDROOT
BRANCH   3   5
HETATM    5  C           1     -21.298  -6.544  -2.659  0.00  0.00     0.278 C 
BRANCH   5   6
HETATM    6  C           1     -21.446  -7.973  -2.155  0.00  0.00     0.021 C 
HETATM    7  C           1     -20.067  -8.588  -1.958  0.00  0.00     0.012 C 
BRANCH   6   8
HETATM    8  C           1     -22.193  -7.968  -0.826  0.00  0.00     0.002 C 
HETATM    9  C           1     -21.289  -8.525   0.266  0.00  0.00     0.005 C 
ENDBRANCH   6   8
ENDBRANCH   5   6
BRANCH   5  10
HETATM   10  N           1     -22.355  -5.683  -2.035  0.00  0.00    -0.066 N 
HETATM   11  H           1     -21.934  -4.774  -1.736  0.00  0.00     0.275 HD
HETATM   12  H           1     -22.756  -6.171  -1.203  0.00  0.00     0.275 HD
HETATM   13  H           1     -23.113  -5.502  -2.732  0.00  0.00     0.275 HD
ENDBRANCH   5  10
ENDBRANCH   3   5
BRANCH   4  14
HETATM   14  C           1     -21.162  -5.415  -6.318  0.00  0.00     0.185 C 
BRANCH  14  15
HETATM   15  C           1     -21.641  -4.037  -6.757  0.00  0.00     0.039 C 
BRANCH  15  16
HETATM   16 Se           1     -22.617  -4.193  -8.437  0.00  0.00     0.000 Se
HETATM   17  H           1     -23.207  -2.848  -8.353  0.00  0.00     0.000 HD
ENDBRANCH  15  16
ENDBRANCH  14  15
BRANCH  14  18
HETATM   18  C           1     -19.833  -5.716  -6.964  0.00  0.00     0.196 C 
HETATM   19  O           1     -19.145  -4.787  -7.441  0.00  0.00    -0.646 OA
HETATM   20  O           1     -19.417  -6.894  -7.022  0.00  0.00    -0.646 OA
ENDBRANCH  14  18
ENDBRANCH   4  14
TORSDOF 8
ENDMDL
MODEL 5
REMARK VINA RESULT:      -5.2     10.678     12.161
REMARK  8 active torsions:
REMARK  status: ('A' for Active; 'I' for Inactive)
REMARK    1  A    between atoms: C_4  and  C_10 
REMARK    2  A    between atoms: C_4  and  C_20 
REMARK    3  A    between atoms: C_4  and  N_19 
REMARK    4  A    between atoms: Se_9  and  C_10 
REMARK    5  A    between atoms: C_11  and  C_18 
REMARK    6  A    between atoms: C_11  and  C_12 
REMARK    7  A    between atoms: C_11  and  N_16 
REMARK    8  A    between atoms: C_12  and  C_14 
REMARK       I    between atoms: C_18  and  N_19 
ROOT
HETATM    1  H           1     -26.100  -6.865 -17.563  0.00  0.00     0.163 HD
HETATM    2  O           1     -26.877  -5.865 -20.433  0.00  0.00    -0.271 OA
HETATM    3  C           1     -26.204  -6.381 -19.572  0.00  0.00     0.249 C 
HETATM    4  N           1     -26.664  -6.434 -18.283  0.00  0.00    -0.345 N 
ENDROOT
BRANCH   3   5
HETATM    5  C           1     -24.857  -6.968 -19.918  0.00  0.00     0.278 C 
BRANCH   5   6
HETATM    6  C           1     -25.034  -8.071 -20.952  0.00  0.00     0.021 C 
HETATM    7  C           1     -26.518  -8.311 -21.191  0.00  0.00     0.012 C 
BRANCH   6   8
HETATM    8  C           1     -24.373  -7.651 -22.259  0.00  0.00     0.002 C 
HETATM    9  C           1     -23.037  -8.368 -22.405  0.00  0.00     0.005 C 
ENDBRANCH   6   8
ENDBRANCH   5   6
BRANCH   5  10
HETATM   10  N           1     -24.229  -7.538 -18.682  0.00  0.00    -0.066 N 
HETATM   11  H           1     -23.795  -6.768 -18.124  0.00  0.00     0.275 HD
HETATM   12  H           1     -23.493  -8.229 -18.953  0.00  0.00     0.275 HD
HETATM   13  H           1     -24.960  -8.014 -18.107  0.00  0.00     0.275 HD
ENDBRANCH   5  10
ENDBRANCH   3   5
BRANCH   4  14
HETATM   14  C           1     -27.958  -5.870 -17.952  0.00  0.00     0.185 C 
BRANCH  14  15
HETATM   15  C           1     -28.937  -6.996 -17.643  0.00  0.00     0.039 C 
BRANCH  15  16
HETATM   16 Se           1     -30.690  -6.242 -17.248  0.00  0.00     0.000 Se
HETATM   17  H           1     -31.431  -7.437 -17.683  0.00  0.00     0.000 HD
ENDBRANCH  15  16
ENDBRANCH  14  15
BRANCH  14  18
HETATM   18  C           1     -27.823  -4.975 -16.745  0.00  0.00     0.196 C 
HETATM   19  O           1     -27.479  -5.457 -15.644  0.00  0.00    -0.646 OA
HETATM   20  O           1     -28.053  -3.750 -16.846  0.00  0.00    -0.646 OA
ENDBRANCH  14  18
ENDBRANCH   4  14
TORSDOF 8
ENDMDL
MODEL 6
REMARK VINA RESULT:      -5.1     15.456     17.451
REMARK  8 active torsions:
REMARK  status: ('A' for Active; 'I' for Inactive)
REMARK    1  A    between atoms: C_4  and  C_10 
REMARK    2  A    between atoms: C_4  and  C_20 
REMARK    3  A    between atoms: C_4  and  N_19 
REMARK    4  A    between atoms: Se_9  and  C_10 
REMARK    5  A    between atoms: C_11  and  C_18 
REMARK    6  A    between atoms: C_11  and  C_12 
REMARK    7  A    between atoms: C_11  and  N_16 
REMARK    8  A    between atoms: C_12  and  C_14 
REMARK       I    between atoms: C_18  and  N_19 
ROOT
HETATM    1  H           1     -20.636  -5.148  -4.381  0.00  0.00     0.163 HD
HETATM    2  O           1     -21.293  -6.991  -6.832  0.00  0.00    -0.271 OA
HETATM    3  C           1     -20.962  -5.990  -6.242  0.00  0.00     0.249 C 
HETATM    4  N           1     -20.913  -5.986  -4.874  0.00  0.00    -0.345 N 
ENDROOT
BRANCH   3   5
HETATM    5  C           1     -20.600  -4.745  -7.015  0.00  0.00     0.278 C 
BRANCH   5   6
HETATM    6  C           1     -21.201  -4.820  -8.412  0.00  0.00     0.021 C 
HETATM    7  C           1     -22.299  -3.775  -8.549  0.00  0.00     0.012 C 
BRANCH   6   8
HETATM    8  C           1     -20.115  -4.551  -9.446  0.00  0.00     0.002 C 
HETATM    9  C           1     -20.759  -4.251 -10.793  0.00  0.00     0.005 C 
ENDBRANCH   6   8
ENDBRANCH   5   6
BRANCH   5  10
HETATM   10  N           1     -19.108  -4.638  -7.118  0.00  0.00    -0.066 N 
HETATM   11  H           1     -18.786  -5.082  -8.007  0.00  0.00     0.275 HD
HETATM   12  H           1     -18.667  -5.124  -6.306  0.00  0.00     0.275 HD
HETATM   13  H           1     -18.830  -3.630  -7.113  0.00  0.00     0.275 HD
ENDBRANCH   5  10
ENDBRANCH   3   5
BRANCH   4  14
HETATM   14  C           1     -21.261  -7.182  -4.133  0.00  0.00     0.185 C 
BRANCH  14  15
HETATM   15  C           1     -20.076  -8.139  -4.131  0.00  0.00     0.039 C 
BRANCH  15  16
HETATM   16 Se           1     -20.659  -9.897  -4.738  0.00  0.00     0.000 Se
HETATM   17  H           1     -22.025  -9.459  -5.069  0.00  0.00     0.000 HD
ENDBRANCH  15  16
ENDBRANCH  14  15
BRANCH  14  18
HETATM   18  C           1     -21.611  -6.811  -2.714  0.00  0.00     0.196 C 
HETATM   19  O           1     -22.460  -5.921  -2.491  0.00  0.00    -0.646 OA
HETATM   20  O           1     -21.052  -7.394  -1.759  0.00  0.00    -0.646 OA
ENDBRANCH  14  18
ENDBRANCH   4  14
TORSDOF 8
ENDMDL
MODEL 7
REMARK VINA RESULT:      -4.9     15.309     17.057
REMARK  8 active torsions:
REMARK  status: ('A' for Active; 'I' for Inactive)
REMARK    1  A    between atoms: C_4  and  C_10 
REMARK    2  A    between atoms: C_4  and  C_20 
REMARK    3  A    between atoms: C_4  and  N_19 
REMARK    4  A    between atoms: Se_9  and  C_10 
REMARK    5  A    between atoms: C_11  and  C_18 
REMARK    6  A    between atoms: C_11  and  C_12 
REMARK    7  A    between atoms: C_11  and  N_16 
REMARK    8  A    between atoms: C_12  and  C_14 
REMARK       I    between atoms: C_18  and  N_19 
ROOT
HETATM    1  H           1     -22.529  -5.602  -4.971  0.00  0.00     0.163 HD
HETATM    2  O           1     -20.540  -7.876  -5.816  0.00  0.00    -0.271 OA
HETATM    3  C           1     -21.349  -7.294  -5.132  0.00  0.00     0.249 C 
HETATM    4  N           1     -21.852  -6.089  -5.544  0.00  0.00    -0.345 N 
ENDROOT
BRANCH   3   5
HETATM    5  C           1     -21.805  -7.896  -3.826  0.00  0.00     0.278 C 
BRANCH   5   6
HETATM    6  C           1     -21.155  -7.151  -2.668  0.00  0.00     0.021 C 
HETATM    7  C           1     -22.189  -6.258  -1.995  0.00  0.00     0.012 C 
BRANCH   6   8
HETATM    8  C           1     -20.620  -8.156  -1.655  0.00  0.00     0.002 C 
HETATM    9  C           1     -21.410  -8.041  -0.359  0.00  0.00     0.005 C 
ENDBRANCH   6   8
ENDBRANCH   5   6
BRANCH   5  10
HETATM   10  N           1     -21.407  -9.341  -3.777  0.00  0.00    -0.066 N 
HETATM   11  H           1     -20.479  -9.432  -3.304  0.00  0.00     0.275 HD
HETATM   12  H           1     -21.340  -9.717  -4.749  0.00  0.00     0.275 HD
HETATM   13  H           1     -22.124  -9.882  -3.242  0.00  0.00     0.275 HD
ENDBRANCH   5  10
ENDBRANCH   3   5
BRANCH   4  14
HETATM   14  C           1     -21.413  -5.510  -6.799  0.00  0.00     0.185 C 
BRANCH  14  15
HETATM   15  C           1     -22.462  -4.524  -7.295  0.00  0.00     0.039 C 
BRANCH  15  16
HETATM   16 Se           1     -22.456  -4.494  -9.244  0.00  0.00     0.000 Se
HETATM   17  H           1     -21.042  -4.102  -9.350  0.00  0.00     0.000 HD
ENDBRANCH  15  16
ENDBRANCH  14  15
BRANCH  14  18
HETATM   18  C           1     -20.104  -4.791  -6.591  0.00  0.00     0.196 C 
HETATM   19  O           1     -19.316  -4.637  -7.549  0.00  0.00    -0.646 OA
HETATM   20  O           1     -19.806  -4.349  -5.460  0.00  0.00    -0.646 OA
ENDBRANCH  14  18
ENDBRANCH   4  14
TORSDOF 8
ENDMDL
MODEL 8
REMARK VINA RESULT:      -4.9     17.143     18.702
REMARK  8 active torsions:
REMARK  status: ('A' for Active; 'I' for Inactive)
REMARK    1  A    between atoms: C_4  and  C_10 
REMARK    2  A    between atoms: C_4  and  C_20 
REMARK    3  A    between atoms: C_4  and  N_19 
REMARK    4  A    between atoms: Se_9  and  C_10 
REMARK    5  A    between atoms: C_11  and  C_18 
REMARK    6  A    between atoms: C_11  and  C_12 
REMARK    7  A    between atoms: C_11  and  N_16 
REMARK    8  A    between atoms: C_12  and  C_14 
REMARK       I    between atoms: C_18  and  N_19 
ROOT
HETATM    1  H           1     -22.419  -7.688  -3.099  0.00  0.00     0.163 HD
HETATM    2  O           1     -19.514  -8.418  -2.168  0.00  0.00    -0.271 OA
HETATM    3  C           1     -20.687  -8.146  -2.064  0.00  0.00     0.249 C 
HETATM    4  N           1     -21.438  -7.916  -3.186  0.00  0.00    -0.345 N 
ENDROOT
BRANCH   3   5
HETATM    5  C           1     -21.324  -8.063  -0.699  0.00  0.00     0.278 C 
BRANCH   5   6
HETATM    6  C           1     -21.800  -9.446  -0.274  0.00  0.00     0.021 C 
HETATM    7  C           1     -20.995  -9.913   0.931  0.00  0.00     0.012 C 
BRANCH   6   8
HETATM    8  C           1     -23.276  -9.382   0.098  0.00  0.00     0.002 C 
HETATM    9  C           1     -23.926 -10.732  -0.173  0.00  0.00     0.005 C 
ENDBRANCH   6   8
ENDBRANCH   5   6
BRANCH   5  10
HETATM   10  N           1     -22.493  -7.126  -0.749  0.00  0.00    -0.066 N 
HETATM   11  H           1     -22.808  -6.908   0.223  0.00  0.00     0.275 HD
HETATM   12  H           1     -23.276  -7.575  -1.276  0.00  0.00     0.275 HD
HETATM   13  H           1     -22.211  -6.242  -1.229  0.00  0.00     0.275 HD
ENDBRANCH   5  10
ENDBRANCH   3   5
BRANCH   4  14
HETATM   14  C           1     -20.825  -7.996  -4.498  0.00  0.00     0.185 C 
BRANCH  14  15
HETATM   15  C           1     -21.108  -9.363  -5.105  0.00  0.00     0.039 C 
BRANCH  15  16
HETATM   16 Se           1     -19.452 -10.386  -5.203  0.00  0.00     0.000 Se
HETATM   17  H           1     -18.655  -9.266  -5.729  0.00  0.00     0.000 HD
ENDBRANCH  15  16
ENDBRANCH  14  15
BRANCH  14  18
HETATM   18  C           1     -21.398  -6.921  -5.387  0.00  0.00     0.196 C 
HETATM   19  O           1     -21.113  -6.897  -6.604  0.00  0.00    -0.646 OA
HETATM   20  O           1     -22.161  -6.053  -4.908  0.00  0.00    -0.646 OA
ENDBRANCH  14  18
ENDBRANCH   4  14
TORSDOF 8
ENDMDL
MODEL 9
REMARK VINA RESULT:      -4.9      8.940     10.434
REMARK  8 active torsions:
REMARK  status: ('A' for Active; 'I' for Inactive)
REMARK    1  A    between atoms: C_4  and  C_10 
REMARK    2  A    between atoms: C_4  and  C_20 
REMARK    3  A    between atoms: C_4  and  N_19 
REMARK    4  A    between atoms: Se_9  and  C_10 
REMARK    5  A    between atoms: C_11  and  C_18 
REMARK    6  A    between atoms: C_11  and  C_12 
REMARK    7  A    between atoms: C_11  and  N_16 
REMARK    8  A    between atoms: C_12  and  C_14 
REMARK       I    between atoms: C_18  and  N_19 
ROOT
HETATM    1  H           1     -26.874  -5.057 -17.764  0.00  0.00     0.163 HD
HETATM    2  O           1     -28.074  -7.240 -15.858  0.00  0.00    -0.271 OA
HETATM    3  C           1     -27.995  -6.184 -16.440  0.00  0.00     0.249 C 
HETATM    4  N           1     -26.940  -5.941 -17.278  0.00  0.00    -0.345 N 
ENDROOT
BRANCH   3   5
HETATM    5  C           1     -29.061  -5.134 -16.244  0.00  0.00     0.278 C 
BRANCH   5   6
HETATM    6  C           1     -30.384  -5.641 -16.802  0.00  0.00     0.021 C 
HETATM    7  C           1     -31.399  -4.506 -16.813  0.00  0.00     0.012 C 
BRANCH   6   8
HETATM    8  C           1     -30.175  -6.147 -18.224  0.00  0.00     0.002 C 
HETATM    9  C           1     -30.661  -7.587 -18.327  0.00  0.00     0.005 C 
ENDBRANCH   6   8
ENDBRANCH   5   6
BRANCH   5  10
HETATM   10  N           1     -28.664  -3.880 -16.963  0.00  0.00    -0.066 N 
HETATM   11  H           1     -28.052  -4.121 -17.775  0.00  0.00     0.275 HD
HETATM   12  H           1     -28.144  -3.253 -16.309  0.00  0.00     0.275 HD
HETATM   13  H           1     -29.521  -3.390 -17.308  0.00  0.00     0.275 HD
ENDBRANCH   5  10
ENDBRANCH   3   5
BRANCH   4  14
HETATM   14  C           1     -25.916  -6.951 -17.465  0.00  0.00     0.185 C 
BRANCH  14  15
HETATM   15  C           1     -25.171  -6.681 -18.766  0.00  0.00     0.039 C 
BRANCH  15  16
HETATM   16 Se           1     -26.429  -6.716 -20.255  0.00  0.00     0.000 Se
HETATM   17  H           1     -25.390  -6.909 -21.279  0.00  0.00     0.000 HD
ENDBRANCH  15  16
ENDBRANCH  14  15
BRANCH  14  18
HETATM   18  C           1     -24.947  -6.905 -16.311  0.00  0.00     0.196 C 
HETATM   19  O           1     -24.793  -5.846 -15.665  0.00  0.00    -0.646 OA
HETATM   20  O           1     -24.298  -7.927 -15.998  0.00  0.00    -0.646 OA
ENDBRANCH  14  18
ENDBRANCH   4  14
TORSDOF 8
ENDMDL
