MODEL 1
REMARK VINA RESULT:      -7.2      0.000      0.000
REMARK  10 active torsions:
REMARK  status: ('A' for Active; 'I' for Inactive)
REMARK    1  A    between atoms: C_2  and  C_21 
REMARK    2  A    between atoms: C_2  and  C_3 
REMARK    3  A    between atoms: C_3  and  C_23 
REMARK    4  A    between atoms: C_3  and  N_14 
REMARK    5  A    between atoms: C_4  and  C_15 
REMARK    6  A    between atoms: C_4  and  C_5 
REMARK       I    between atoms: N_14  and  C_22 
REMARK    7  A    between atoms: C_15  and  C_22 
REMARK    8  A    between atoms: C_15  and  N_18 
REMARK    9  A    between atoms: C_17  and  O_19 
REMARK   10  A    between atoms: C_21  and  Se_26 
ROOT
HETATM    1  C           1     -22.189  -5.193  -6.656  0.00  0.00     0.278 C 
ENDROOT
BRANCH   1   2
HETATM    2  C           1     -21.537  -3.917  -7.172  0.00  0.00     0.081 C 
BRANCH   2   3
HETATM    3  C           1     -21.576  -3.905  -8.669  0.00  0.00    -0.056 A 
HETATM    4  C           1     -22.775  -3.647  -9.332  0.00  0.00     0.010 A 
HETATM    5  C           1     -22.812  -3.636 -10.727  0.00  0.00     0.037 A 
HETATM    6  C           1     -21.649  -3.882 -11.457  0.00  0.00     0.065 A 
HETATM    7  C           1     -20.450  -4.139 -10.793  0.00  0.00     0.037 A 
HETATM    8  C           1     -20.413  -4.150  -9.399  0.00  0.00     0.010 A 
BRANCH   6   9
HETATM    9  O           1     -21.685  -3.871 -12.812  0.00  0.00    -0.361 OA
HETATM   10  H           1     -21.656  -4.793 -13.120  0.00  0.00     0.217 HD
ENDBRANCH   6   9
ENDBRANCH   2   3
ENDBRANCH   1   2
BRANCH   1  11
HETATM   11  C           1     -21.426  -5.698  -5.455  0.00  0.00     0.249 C 
HETATM   12  O           1     -20.227  -5.567  -5.403  0.00  0.00    -0.271 OA
HETATM   13  N           1     -22.094  -6.305  -4.426  0.00  0.00    -0.345 N 
HETATM   14  H           1     -23.099  -6.415  -4.471  0.00  0.00     0.163 HD
BRANCH  13  15
HETATM   15  C           1     -21.363  -6.791  -3.272  0.00  0.00     0.185 C 
BRANCH  15  16
HETATM   16  C           1     -22.242  -6.688  -2.033  0.00  0.00     0.036 C 
BRANCH  16  17
HETATM   17  C           1     -21.581  -7.427  -0.878  0.00  0.00     0.003 C 
BRANCH  17  18
HETATM   18 Se           1     -22.950  -8.071   0.351  0.00  0.00     0.000 Se
HETATM   19  C           1     -23.029  -9.862  -0.415  0.00  0.00     0.000 C 
ENDBRANCH  17  18
ENDBRANCH  16  17
ENDBRANCH  15  16
BRANCH  15  20
HETATM   20  C           1     -20.973  -8.231  -3.494  0.00  0.00     0.196 C 
HETATM   21  O           1     -21.855  -9.092  -3.701  0.00  0.00    -0.646 OA
HETATM   22  O           1     -19.768  -8.563  -3.471  0.00  0.00    -0.646 OA
ENDBRANCH  15  20
ENDBRANCH  13  15
ENDBRANCH   1  11
BRANCH   1  23
HETATM   23  N           1     -23.606  -4.905  -6.262  0.00  0.00    -0.066 N 
HETATM   24  H           1     -23.993  -4.152  -6.875  0.00  0.00     0.275 HD
HETATM   25  H           1     -24.181  -5.771  -6.372  0.00  0.00     0.275 HD
HETATM   26  H           1     -23.635  -4.591  -5.266  0.00  0.00     0.275 HD
ENDBRANCH   1  23
TORSDOF 10
ENDMDL
MODEL 2
REMARK VINA RESULT:      -7.1     13.826     14.936
REMARK  10 active torsions:
REMARK  status: ('A' for Active; 'I' for Inactive)
REMARK    1  A    between atoms: C_2  and  C_21 
REMARK    2  A    between atoms: C_2  and  C_3 
REMARK    3  A    between atoms: C_3  and  C_23 
REMARK    4  A    between atoms: C_3  and  N_14 
REMARK    5  A    between atoms: C_4  and  C_15 
REMARK    6  A    between atoms: C_4  and  C_5 
REMARK       I    between atoms: N_14  and  C_22 
REMARK    7  A    between atoms: C_15  and  C_22 
REMARK    8  A    between atoms: C_15  and  N_18 
REMARK    9  A    between atoms: C_17  and  O_19 
REMARK   10  A    between atoms: C_21  and  Se_26 
ROOT
HETATM    1  C           1     -33.099  -4.432 -16.748  0.00  0.00     0.278 C 
ENDROOT
BRANCH   1   2
HETATM    2  C           1     -31.608  -4.480 -16.441  0.00  0.00     0.081 C 
BRANCH   2   3
HETATM    3  C           1     -30.979  -5.610 -17.195  0.00  0.00    -0.056 A 
HETATM    4  C           1     -29.622  -5.566 -17.513  0.00  0.00     0.010 A 
HETATM    5  C           1     -29.035  -6.619 -18.215  0.00  0.00     0.037 A 
HETATM    6  C           1     -29.807  -7.716 -18.599  0.00  0.00     0.065 A 
HETATM    7  C           1     -31.163  -7.761 -18.281  0.00  0.00     0.037 A 
HETATM    8  C           1     -31.750  -6.708 -17.578  0.00  0.00     0.010 A 
BRANCH   6   9
HETATM    9  O           1     -29.237  -8.739 -19.281  0.00  0.00    -0.361 OA
HETATM   10  H           1     -29.858  -9.487 -19.274  0.00  0.00     0.217 HD
ENDBRANCH   6   9
ENDBRANCH   2   3
ENDBRANCH   1   2
BRANCH   1  11
HETATM   11  C           1     -33.880  -4.477 -15.457  0.00  0.00     0.249 C 
HETATM   12  O           1     -34.996  -4.939 -15.442  0.00  0.00    -0.271 OA
HETATM   13  N           1     -33.324  -3.992 -14.304  0.00  0.00    -0.345 N 
HETATM   14  H           1     -32.390  -3.604 -14.317  0.00  0.00     0.163 HD
BRANCH  13  15
HETATM   15  C           1     -34.074  -4.034 -13.063  0.00  0.00     0.185 C 
BRANCH  15  16
HETATM   16  C           1     -33.110  -4.158 -11.891  0.00  0.00     0.036 C 
BRANCH  16  17
HETATM   17  C           1     -33.175  -5.571 -11.326  0.00  0.00     0.003 C 
BRANCH  17  18
HETATM   18 Se           1     -34.796  -5.773 -10.264  0.00  0.00     0.000 Se
HETATM   19  C           1     -34.679  -7.715 -10.153  0.00  0.00     0.000 C 
ENDBRANCH  17  18
ENDBRANCH  16  17
ENDBRANCH  15  16
BRANCH  15  20
HETATM   20  C           1     -34.880  -2.766 -12.920  0.00  0.00     0.196 C 
HETATM   21  O           1     -34.799  -1.873 -13.789  0.00  0.00    -0.646 OA
HETATM   22  O           1     -35.628  -2.611 -11.930  0.00  0.00    -0.646 OA
ENDBRANCH  15  20
ENDBRANCH  13  15
ENDBRANCH   1  11
BRANCH   1  23
HETATM   23  N           1     -33.417  -3.162 -17.479  0.00  0.00    -0.066 N 
HETATM   24  H           1     -34.432  -2.939 -17.367  0.00  0.00     0.275 HD
HETATM   25  H           1     -32.845  -2.381 -17.085  0.00  0.00     0.275 HD
HETATM   26  H           1     -33.197  -3.279 -18.494  0.00  0.00     0.275 HD
ENDBRANCH   1  23
TORSDOF 10
ENDMDL
MODEL 3
REMARK VINA RESULT:      -7.0      1.179      1.782
REMARK  10 active torsions:
REMARK  status: ('A' for Active; 'I' for Inactive)
REMARK    1  A    between atoms: C_2  and  C_21 
REMARK    2  A    between atoms: C_2  and  C_3 
REMARK    3  A    between atoms: C_3  and  C_23 
REMARK    4  A    between atoms: C_3  and  N_14 
REMARK    5  A    between atoms: C_4  and  C_15 
REMARK    6  A    between atoms: C_4  and  C_5 
REMARK       I    between atoms: N_14  and  C_22 
REMARK    7  A    between atoms: C_15  and  C_22 
REMARK    8  A    between atoms: C_15  and  N_18 
REMARK    9  A    between atoms: C_17  and  O_19 
REMARK   10  A    between atoms: C_21  and  Se_26 
ROOT
HETATM    1  C           1     -22.126  -5.299  -6.706  0.00  0.00     0.278 C 
ENDROOT
BRANCH   1   2
HETATM    2  C           1     -21.507  -3.996  -7.195  0.00  0.00     0.081 C 
BRANCH   2   3
HETATM    3  C           1     -21.552  -3.953  -8.692  0.00  0.00    -0.056 A 
HETATM    4  C           1     -20.402  -4.230  -9.431  0.00  0.00     0.010 A 
HETATM    5  C           1     -20.442  -4.191 -10.825  0.00  0.00     0.037 A 
HETATM    6  C           1     -21.634  -3.875 -11.478  0.00  0.00     0.065 A 
HETATM    7  C           1     -22.783  -3.599 -10.740  0.00  0.00     0.037 A 
HETATM    8  C           1     -22.743  -3.638  -9.345  0.00  0.00     0.010 A 
BRANCH   6   9
HETATM    9  O           1     -21.673  -3.837 -12.833  0.00  0.00    -0.361 OA
HETATM   10  H           1     -20.786  -4.057 -13.165  0.00  0.00     0.217 HD
ENDBRANCH   6   9
ENDBRANCH   2   3
ENDBRANCH   1   2
BRANCH   1  11
HETATM   11  C           1     -21.271  -5.880  -5.606  0.00  0.00     0.249 C 
HETATM   12  O           1     -20.588  -5.153  -4.925  0.00  0.00    -0.271 OA
HETATM   13  N           1     -21.268  -7.230  -5.382  0.00  0.00    -0.345 N 
HETATM   14  H           1     -21.840  -7.839  -5.954  0.00  0.00     0.163 HD
BRANCH  13  15
HETATM   15  C           1     -20.447  -7.790  -4.326  0.00  0.00     0.185 C 
BRANCH  15  16
HETATM   16  C           1     -21.339  -8.282  -3.195  0.00  0.00     0.036 C 
BRANCH  16  17
HETATM   17  C           1     -20.817  -7.751  -1.867  0.00  0.00     0.003 C 
BRANCH  17  18
HETATM   18 Se           1     -22.308  -7.100  -0.794  0.00  0.00     0.000 Se
HETATM   19  C           1     -21.867  -8.177   0.770  0.00  0.00     0.000 C 
ENDBRANCH  17  18
ENDBRANCH  16  17
ENDBRANCH  15  16
BRANCH  15  20
HETATM   20  C           1     -19.644  -8.945  -4.873  0.00  0.00     0.196 C 
HETATM   21  O           1     -18.492  -9.164  -4.443  0.00  0.00    -0.646 OA
HETATM   22  O           1     -20.134  -9.682  -5.756  0.00  0.00    -0.646 OA
ENDBRANCH  15  20
ENDBRANCH  13  15
ENDBRANCH   1  11
BRANCH   1  23
HETATM   23  N           1     -23.503  -5.030  -6.177  0.00  0.00    -0.066 N 
HETATM   24  H           1     -24.213  -5.422  -6.836  0.00  0.00     0.275 HD
HETATM   25  H           1     -23.611  -5.482  -5.241  0.00  0.00     0.275 HD
HETATM   26  H           1     -23.646  -3.999  -6.085  0.00  0.00     0.275 HD
ENDBRANCH   1  23
TORSDOF 10
ENDMDL
MODEL 4
REMARK VINA RESULT:      -6.6      2.287      2.920
REMARK  10 active torsions:
REMARK  status: ('A' for Active; 'I' for Inactive)
REMARK    1  A    between atoms: C_2  and  C_21 
REMARK    2  A    between atoms: C_2  and  C_3 
REMARK    3  A    between atoms: C_3  and  C_23 
REMARK    4  A    between atoms: C_3  and  N_14 
REMARK    5  A    between atoms: C_4  and  C_15 
REMARK    6  A    between atoms: C_4  and  C_5 
REMARK       I    between atoms: N_14  and  C_22 
REMARK    7  A    between atoms: C_15  and  C_22 
REMARK    8  A    between atoms: C_15  and  N_18 
REMARK    9  A    between atoms: C_17  and  O_19 
REMARK   10  A    between atoms: C_21  and  Se_26 
ROOT
HETATM    1  C           1     -20.429  -5.048  -6.623  0.00  0.00     0.278 C 
ENDROOT
BRANCH   1   2
HETATM    2  C           1     -21.145  -3.806  -7.140  0.00  0.00     0.081 C 
BRANCH   2   3
HETATM    3  C           1     -21.507  -4.001  -8.580  0.00  0.00    -0.056 A 
HETATM    4  C           1     -22.814  -4.336  -8.931  0.00  0.00     0.010 A 
HETATM    5  C           1     -23.152  -4.517 -10.272  0.00  0.00     0.037 A 
HETATM    6  C           1     -22.181  -4.363 -11.262  0.00  0.00     0.065 A 
HETATM    7  C           1     -20.874  -4.027 -10.911  0.00  0.00     0.037 A 
HETATM    8  C           1     -20.536  -3.846  -9.570  0.00  0.00     0.010 A 
BRANCH   6   9
HETATM    9  O           1     -22.509  -4.538 -12.565  0.00  0.00    -0.361 OA
HETATM   10  H           1     -21.826  -5.097 -12.973  0.00  0.00     0.217 HD
ENDBRANCH   6   9
ENDBRANCH   2   3
ENDBRANCH   1   2
BRANCH   1  11
HETATM   11  C           1     -21.343  -5.802  -5.687  0.00  0.00     0.249 C 
HETATM   12  O           1     -22.525  -5.557  -5.670  0.00  0.00    -0.271 OA
HETATM   13  N           1     -20.830  -6.762  -4.857  0.00  0.00    -0.345 N 
HETATM   14  H           1     -19.839  -6.967  -4.872  0.00  0.00     0.163 HD
BRANCH  13  15
HETATM   15  C           1     -21.707  -7.487  -3.958  0.00  0.00     0.185 C 
BRANCH  15  16
HETATM   16  C           1     -21.285  -8.949  -3.906  0.00  0.00     0.036 C 
BRANCH  16  17
HETATM   17  C           1     -20.043  -9.151  -4.764  0.00  0.00     0.003 C 
BRANCH  17  18
HETATM   18 Se           1     -18.500  -9.457  -3.614  0.00  0.00     0.000 Se
HETATM   19  C           1     -17.325 -10.021  -5.063  0.00  0.00     0.000 C 
ENDBRANCH  17  18
ENDBRANCH  16  17
ENDBRANCH  15  16
BRANCH  15  20
HETATM   20  C           1     -21.614  -6.888  -2.576  0.00  0.00     0.196 C 
HETATM   21  O           1     -20.830  -7.376  -1.734  0.00  0.00    -0.646 OA
HETATM   22  O           1     -22.323  -5.904  -2.274  0.00  0.00    -0.646 OA
ENDBRANCH  15  20
ENDBRANCH  13  15
ENDBRANCH   1  11
BRANCH   1  23
HETATM   23  N           1     -20.062  -5.929  -7.779  0.00  0.00    -0.066 N 
HETATM   24  H           1     -19.542  -5.370  -8.493  0.00  0.00     0.275 HD
HETATM   25  H           1     -19.456  -6.711  -7.441  0.00  0.00     0.275 HD
HETATM   26  H           1     -20.930  -6.321  -8.209  0.00  0.00     0.275 HD
ENDBRANCH   1  23
TORSDOF 10
ENDMDL
MODEL 5
REMARK VINA RESULT:      -6.6      1.828      2.115
REMARK  10 active torsions:
REMARK  status: ('A' for Active; 'I' for Inactive)
REMARK    1  A    between atoms: C_2  and  C_21 
REMARK    2  A    between atoms: C_2  and  C_3 
REMARK    3  A    between atoms: C_3  and  C_23 
REMARK    4  A    between atoms: C_3  and  N_14 
REMARK    5  A    between atoms: C_4  and  C_15 
REMARK    6  A    between atoms: C_4  and  C_5 
REMARK       I    between atoms: N_14  and  C_22 
REMARK    7  A    between atoms: C_15  and  C_22 
REMARK    8  A    between atoms: C_15  and  N_18 
REMARK    9  A    between atoms: C_17  and  O_19 
REMARK   10  A    between atoms: C_21  and  Se_26 
ROOT
HETATM    1  C           1     -20.364  -5.237  -6.473  0.00  0.00     0.278 C 
ENDROOT
BRANCH   1   2
HETATM    2  C           1     -21.098  -3.987  -6.940  0.00  0.00     0.081 C 
BRANCH   2   3
HETATM    3  C           1     -21.395  -4.100  -8.403  0.00  0.00    -0.056 A 
HETATM    4  C           1     -22.692  -4.383  -8.830  0.00  0.00     0.010 A 
HETATM    5  C           1     -22.971  -4.487 -10.193  0.00  0.00     0.037 A 
HETATM    6  C           1     -21.951  -4.308 -11.128  0.00  0.00     0.065 A 
HETATM    7  C           1     -20.655  -4.024 -10.701  0.00  0.00     0.037 A 
HETATM    8  C           1     -20.376  -3.920  -9.338  0.00  0.00     0.010 A 
BRANCH   6   9
HETATM    9  O           1     -22.222  -4.410 -12.452  0.00  0.00    -0.361 OA
HETATM   10  H           1     -22.933  -3.781 -12.662  0.00  0.00     0.217 HD
ENDBRANCH   6   9
ENDBRANCH   2   3
ENDBRANCH   1   2
BRANCH   1  11
HETATM   11  C           1     -21.247  -6.016  -5.528  0.00  0.00     0.249 C 
HETATM   12  O           1     -22.442  -5.836  -5.532  0.00  0.00    -0.271 OA
HETATM   13  N           1     -20.694  -6.925  -4.667  0.00  0.00    -0.345 N 
HETATM   14  H           1     -19.694  -7.075  -4.664  0.00  0.00     0.163 HD
BRANCH  13  15
HETATM   15  C           1     -21.542  -7.673  -3.759  0.00  0.00     0.185 C 
BRANCH  15  16
HETATM   16  C           1     -20.984  -9.078  -3.584  0.00  0.00     0.036 C 
BRANCH  16  17
HETATM   17  C           1     -22.131 -10.078  -3.531  0.00  0.00     0.003 C 
BRANCH  17  18
HETATM   18 Se           1     -21.913 -11.237  -1.979  0.00  0.00     0.000 Se
HETATM   19  C           1     -22.980 -10.121  -0.789  0.00  0.00     0.000 C 
ENDBRANCH  17  18
ENDBRANCH  16  17
ENDBRANCH  15  16
BRANCH  15  20
HETATM   20  C           1     -21.580  -6.977  -2.420  0.00  0.00     0.196 C 
HETATM   21  O           1     -22.330  -5.993  -2.248  0.00  0.00    -0.646 OA
HETATM   22  O           1     -20.861  -7.387  -1.483  0.00  0.00    -0.646 OA
ENDBRANCH  15  20
ENDBRANCH  13  15
ENDBRANCH   1  11
BRANCH   1  23
HETATM   23  N           1     -20.028  -6.091  -7.659  0.00  0.00    -0.066 N 
HETATM   24  H           1     -19.066  -5.859  -7.995  0.00  0.00     0.275 HD
HETATM   25  H           1     -20.066  -7.099  -7.384  0.00  0.00     0.275 HD
HETATM   26  H           1     -20.716  -5.911  -8.425  0.00  0.00     0.275 HD
ENDBRANCH   1  23
TORSDOF 10
ENDMDL
MODEL 6
REMARK VINA RESULT:      -6.4      1.954      2.772
REMARK  10 active torsions:
REMARK  status: ('A' for Active; 'I' for Inactive)
REMARK    1  A    between atoms: C_2  and  C_21 
REMARK    2  A    between atoms: C_2  and  C_3 
REMARK    3  A    between atoms: C_3  and  C_23 
REMARK    4  A    between atoms: C_3  and  N_14 
REMARK    5  A    between atoms: C_4  and  C_15 
REMARK    6  A    between atoms: C_4  and  C_5 
REMARK       I    between atoms: N_14  and  C_22 
REMARK    7  A    between atoms: C_15  and  C_22 
REMARK    8  A    between atoms: C_15  and  N_18 
REMARK    9  A    between atoms: C_17  and  O_19 
REMARK   10  A    between atoms: C_21  and  Se_26 
ROOT
HETATM    1  C           1     -21.484  -6.402  -5.705  0.00  0.00     0.278 C 
ENDROOT
BRANCH   1   2
HETATM    2  C           1     -20.508  -5.344  -6.203  0.00  0.00     0.081 C 
BRANCH   2   3
HETATM    3  C           1     -20.983  -4.807  -7.518  0.00  0.00    -0.056 A 
HETATM    4  C           1     -20.135  -4.825  -8.625  0.00  0.00     0.010 A 
HETATM    5  C           1     -20.576  -4.326  -9.851  0.00  0.00     0.037 A 
HETATM    6  C           1     -21.866  -3.808  -9.968  0.00  0.00     0.065 A 
HETATM    7  C           1     -22.714  -3.791  -8.861  0.00  0.00     0.037 A 
HETATM    8  C           1     -22.273  -4.290  -7.636  0.00  0.00     0.010 A 
BRANCH   6   9
HETATM    9  O           1     -22.295  -3.323 -11.158  0.00  0.00    -0.361 OA
HETATM   10  H           1     -22.194  -4.026 -11.823  0.00  0.00     0.217 HD
ENDBRANCH   6   9
ENDBRANCH   2   3
ENDBRANCH   1   2
BRANCH   1  11
HETATM   11  C           1     -20.747  -7.701  -5.482  0.00  0.00     0.249 C 
HETATM   12  O           1     -19.641  -7.855  -5.944  0.00  0.00    -0.271 OA
HETATM   13  N           1     -21.331  -8.703  -4.757  0.00  0.00    -0.345 N 
HETATM   14  H           1     -22.258  -8.574  -4.370  0.00  0.00     0.163 HD
BRANCH  13  15
HETATM   15  C           1     -20.624  -9.951  -4.542  0.00  0.00     0.185 C 
BRANCH  15  16
HETATM   16  C           1     -20.696 -10.329  -3.069  0.00  0.00     0.036 C 
BRANCH  16  17
HETATM   17  C           1     -21.734  -9.460  -2.371  0.00  0.00     0.003 C 
BRANCH  17  18
HETATM   18 Se           1     -20.855  -8.328  -1.051  0.00  0.00     0.000 Se
HETATM   19  C           1     -22.341  -7.076  -0.893  0.00  0.00     0.000 C 
ENDBRANCH  17  18
ENDBRANCH  16  17
ENDBRANCH  15  16
BRANCH  15  20
HETATM   20  C           1     -21.262 -11.039  -5.372  0.00  0.00     0.196 C 
HETATM   21  O           1     -21.184 -11.001  -6.618  0.00  0.00    -0.646 OA
HETATM   22  O           1     -21.867 -11.978  -4.810  0.00  0.00    -0.646 OA
ENDBRANCH  15  20
ENDBRANCH  13  15
ENDBRANCH   1  11
BRANCH   1  23
HETATM   23  N           1     -22.096  -5.948  -4.414  0.00  0.00    -0.066 N 
HETATM   24  H           1     -22.992  -5.448  -4.609  0.00  0.00     0.275 HD
HETATM   25  H           1     -22.286  -6.778  -3.808  0.00  0.00     0.275 HD
HETATM   26  H           1     -21.437  -5.301  -3.924  0.00  0.00     0.275 HD
ENDBRANCH   1  23
TORSDOF 10
ENDMDL
MODEL 7
REMARK VINA RESULT:      -6.3      3.476      8.338
REMARK  10 active torsions:
REMARK  status: ('A' for Active; 'I' for Inactive)
REMARK    1  A    between atoms: C_2  and  C_21 
REMARK    2  A    between atoms: C_2  and  C_3 
REMARK    3  A    between atoms: C_3  and  C_23 
REMARK    4  A    between atoms: C_3  and  N_14 
REMARK    5  A    between atoms: C_4  and  C_15 
REMARK    6  A    between atoms: C_4  and  C_5 
REMARK       I    between atoms: N_14  and  C_22 
REMARK    7  A    between atoms: C_15  and  C_22 
REMARK    8  A    between atoms: C_15  and  N_18 
REMARK    9  A    between atoms: C_17  and  O_19 
REMARK   10  A    between atoms: C_21  and  Se_26 
ROOT
HETATM    1  C           1     -21.241  -7.880  -4.964  0.00  0.00     0.278 C 
ENDROOT
BRANCH   1   2
HETATM    2  C           1     -20.349  -8.065  -3.743  0.00  0.00     0.081 C 
BRANCH   2   3
HETATM    3  C           1     -21.189  -8.048  -2.503  0.00  0.00    -0.056 A 
HETATM    4  C           1     -21.660  -6.837  -1.997  0.00  0.00     0.010 A 
HETATM    5  C           1     -22.443  -6.820  -0.842  0.00  0.00     0.037 A 
HETATM    6  C           1     -22.755  -8.016  -0.196  0.00  0.00     0.065 A 
HETATM    7  C           1     -22.286  -9.227  -0.703  0.00  0.00     0.037 A 
HETATM    8  C           1     -21.503  -9.244  -1.857  0.00  0.00     0.010 A 
BRANCH   6   9
HETATM    9  O           1     -23.516  -8.001   0.925  0.00  0.00    -0.361 OA
HETATM   10  H           1     -24.449  -7.944   0.655  0.00  0.00     0.217 HD
ENDBRANCH   6   9
ENDBRANCH   2   3
ENDBRANCH   1   2
BRANCH   1  11
HETATM   11  C           1     -20.887  -6.586  -5.655  0.00  0.00     0.249 C 
HETATM   12  O           1     -20.377  -5.687  -5.029  0.00  0.00    -0.271 OA
HETATM   13  N           1     -21.146  -6.430  -6.990  0.00  0.00    -0.345 N 
HETATM   14  H           1     -21.574  -7.183  -7.513  0.00  0.00     0.163 HD
BRANCH  13  15
HETATM   15  C           1     -20.806  -5.186  -7.655  0.00  0.00     0.185 C 
BRANCH  15  16
HETATM   16  C           1     -20.831  -5.393  -9.163  0.00  0.00     0.036 C 
BRANCH  16  17
HETATM   17  C           1     -20.319  -4.138  -9.857  0.00  0.00     0.003 C 
BRANCH  17  18
HETATM   18 Se           1     -21.339  -3.835 -11.490  0.00  0.00     0.000 Se
HETATM   19  C           1     -22.983  -4.627 -10.805  0.00  0.00     0.000 C 
ENDBRANCH  17  18
ENDBRANCH  16  17
ENDBRANCH  15  16
BRANCH  15  20
HETATM   20  C           1     -21.810  -4.124  -7.276  0.00  0.00     0.196 C 
HETATM   21  O           1     -21.417  -2.999  -6.900  0.00  0.00    -0.646 OA
HETATM   22  O           1     -23.033  -4.372  -7.340  0.00  0.00    -0.646 OA
ENDBRANCH  15  20
ENDBRANCH  13  15
ENDBRANCH   1  11
BRANCH   1  23
HETATM   23  N           1     -21.034  -9.024  -5.911  0.00  0.00    -0.066 N 
HETATM   24  H           1     -21.144  -9.927  -5.397  0.00  0.00     0.275 HD
HETATM   25  H           1     -21.741  -8.973  -6.679  0.00  0.00     0.275 HD
HETATM   26  H           1     -20.072  -8.971  -6.317  0.00  0.00     0.275 HD
ENDBRANCH   1  23
TORSDOF 10
ENDMDL
MODEL 8
REMARK VINA RESULT:      -6.3      2.747      3.143
REMARK  10 active torsions:
REMARK  status: ('A' for Active; 'I' for Inactive)
REMARK    1  A    between atoms: C_2  and  C_21 
REMARK    2  A    between atoms: C_2  and  C_3 
REMARK    3  A    between atoms: C_3  and  C_23 
REMARK    4  A    between atoms: C_3  and  N_14 
REMARK    5  A    between atoms: C_4  and  C_15 
REMARK    6  A    between atoms: C_4  and  C_5 
REMARK       I    between atoms: N_14  and  C_22 
REMARK    7  A    between atoms: C_15  and  C_22 
REMARK    8  A    between atoms: C_15  and  N_18 
REMARK    9  A    between atoms: C_17  and  O_19 
REMARK   10  A    between atoms: C_21  and  Se_26 
ROOT
HETATM    1  C           1     -21.262  -6.113  -5.647  0.00  0.00     0.278 C 
ENDROOT
BRANCH   1   2
HETATM    2  C           1     -20.597  -4.808  -6.067  0.00  0.00     0.081 C 
BRANCH   2   3
HETATM    3  C           1     -21.036  -4.447  -7.452  0.00  0.00    -0.056 A 
HETATM    4  C           1     -22.362  -4.090  -7.692  0.00  0.00     0.010 A 
HETATM    5  C           1     -22.771  -3.753  -8.983  0.00  0.00     0.037 A 
HETATM    6  C           1     -21.853  -3.773 -10.032  0.00  0.00     0.065 A 
HETATM    7  C           1     -20.526  -4.128  -9.792  0.00  0.00     0.037 A 
HETATM    8  C           1     -20.117  -4.466  -8.501  0.00  0.00     0.010 A 
BRANCH   6   9
HETATM    9  O           1     -22.250  -3.445 -11.286  0.00  0.00    -0.361 OA
HETATM   10  H           1     -23.196  -3.656 -11.366  0.00  0.00     0.217 HD
ENDBRANCH   6   9
ENDBRANCH   2   3
ENDBRANCH   1   2
BRANCH   1  11
HETATM   11  C           1     -20.228  -7.211  -5.598  0.00  0.00     0.249 C 
HETATM   12  O           1     -19.441  -7.341  -6.505  0.00  0.00    -0.271 OA
HETATM   13  N           1     -20.184  -8.061  -4.526  0.00  0.00    -0.345 N 
HETATM   14  H           1     -20.844  -7.953  -3.766  0.00  0.00     0.163 HD
BRANCH  13  15
HETATM   15  C           1     -19.191  -9.117  -4.477  0.00  0.00     0.185 C 
BRANCH  15  16
HETATM   16  C           1     -18.748  -9.333  -3.036  0.00  0.00     0.036 C 
BRANCH  16  17
HETATM   17  C           1     -17.232  -9.470  -2.985  0.00  0.00     0.003 C 
BRANCH  17  18
HETATM   18 Se           1     -16.759 -11.124  -2.069  0.00  0.00     0.000 Se
HETATM   19  C           1     -18.544 -11.429  -1.347  0.00  0.00     0.000 C 
ENDBRANCH  17  18
ENDBRANCH  16  17
ENDBRANCH  15  16
BRANCH  15  20
HETATM   20  C           1     -19.788 -10.394  -5.016  0.00  0.00     0.196 C 
HETATM   21  O           1     -20.428 -11.153  -4.258  0.00  0.00    -0.646 OA
HETATM   22  O           1     -19.643 -10.690  -6.222  0.00  0.00    -0.646 OA
ENDBRANCH  15  20
ENDBRANCH  13  15
ENDBRANCH   1  11
BRANCH   1  23
HETATM   23  N           1     -21.877  -5.946  -4.290  0.00  0.00    -0.066 N 
HETATM   24  H           1     -22.866  -5.620  -4.392  0.00  0.00     0.275 HD
HETATM   25  H           1     -21.864  -6.861  -3.786  0.00  0.00     0.275 HD
HETATM   26  H           1     -21.334  -5.239  -3.745  0.00  0.00     0.275 HD
ENDBRANCH   1  23
TORSDOF 10
ENDMDL
MODEL 9
REMARK VINA RESULT:      -6.2      3.215      8.263
REMARK  10 active torsions:
REMARK  status: ('A' for Active; 'I' for Inactive)
REMARK    1  A    between atoms: C_2  and  C_21 
REMARK    2  A    between atoms: C_2  and  C_3 
REMARK    3  A    between atoms: C_3  and  C_23 
REMARK    4  A    between atoms: C_3  and  N_14 
REMARK    5  A    between atoms: C_4  and  C_15 
REMARK    6  A    between atoms: C_4  and  C_5 
REMARK       I    between atoms: N_14  and  C_22 
REMARK    7  A    between atoms: C_15  and  C_22 
REMARK    8  A    between atoms: C_15  and  N_18 
REMARK    9  A    between atoms: C_17  and  O_19 
REMARK   10  A    between atoms: C_21  and  Se_26 
ROOT
HETATM    1  C           1     -20.723  -6.100  -4.682  0.00  0.00     0.278 C 
ENDROOT
BRANCH   1   2
HETATM    2  C           1     -22.034  -6.352  -3.948  0.00  0.00     0.081 C 
BRANCH   2   3
HETATM    3  C           1     -21.754  -7.045  -2.650  0.00  0.00    -0.056 A 
HETATM    4  C           1     -20.842  -8.098  -2.605  0.00  0.00     0.010 A 
HETATM    5  C           1     -20.581  -8.744  -1.396  0.00  0.00     0.037 A 
HETATM    6  C           1     -21.232  -8.335  -0.233  0.00  0.00     0.065 A 
HETATM    7  C           1     -22.144  -7.281  -0.277  0.00  0.00     0.037 A 
HETATM    8  C           1     -22.405  -6.635  -1.486  0.00  0.00     0.010 A 
BRANCH   6   9
HETATM    9  O           1     -20.978  -8.962   0.941  0.00  0.00    -0.361 OA
HETATM   10  H           1     -20.191  -9.520   0.819  0.00  0.00     0.217 HD
ENDBRANCH   6   9
ENDBRANCH   2   3
ENDBRANCH   1   2
BRANCH   1  11
HETATM   11  C           1     -20.981  -6.045  -6.168  0.00  0.00     0.249 C 
HETATM   12  O           1     -21.097  -7.069  -6.798  0.00  0.00    -0.271 OA
HETATM   13  N           1     -21.082  -4.836  -6.801  0.00  0.00    -0.345 N 
HETATM   14  H           1     -20.985  -3.979  -6.272  0.00  0.00     0.163 HD
BRANCH  13  15
HETATM   15  C           1     -21.330  -4.783  -8.229  0.00  0.00     0.185 C 
BRANCH  15  16
HETATM   16  C           1     -22.272  -3.628  -8.538  0.00  0.00     0.036 C 
BRANCH  16  17
HETATM   17  C           1     -23.711  -4.126  -8.519  0.00  0.00     0.003 C 
BRANCH  17  18
HETATM   18 Se           1     -24.600  -3.614 -10.176  0.00  0.00     0.000 Se
HETATM   19  C           1     -23.550  -4.808 -11.302  0.00  0.00     0.000 C 
ENDBRANCH  17  18
ENDBRANCH  16  17
ENDBRANCH  15  16
BRANCH  15  20
HETATM   20  C           1     -20.024  -4.576  -8.958  0.00  0.00     0.196 C 
HETATM   21  O           1     -19.024  -4.152  -8.340  0.00  0.00    -0.646 OA
HETATM   22  O           1     -19.945  -4.828 -10.179  0.00  0.00    -0.646 OA
ENDBRANCH  15  20
ENDBRANCH  13  15
ENDBRANCH   1  11
BRANCH   1  23
HETATM   23  N           1     -20.141  -4.794  -4.229  0.00  0.00    -0.066 N 
HETATM   24  H           1     -20.090  -4.778  -3.185  0.00  0.00     0.275 HD
HETATM   25  H           1     -19.180  -4.686  -4.625  0.00  0.00     0.275 HD
HETATM   26  H           1     -20.746  -4.009  -4.559  0.00  0.00     0.275 HD
ENDBRANCH   1  23
TORSDOF 10
ENDMDL
