MODEL 1
REMARK VINA RESULT:      -6.9      0.000      0.000
REMARK  8 active torsions:
REMARK  status: ('A' for Active; 'I' for Inactive)
REMARK    1  A    between atoms: N_2  and  C_13 
REMARK       I    between atoms: N_4  and  C_15 
REMARK    2  A    between atoms: N_11  and  C_24 
REMARK       I    between atoms: N_11  and  C_12 
REMARK    3  A    between atoms: C_12  and  C_13 
REMARK    4  A    between atoms: C_13  and  C_14 
REMARK    5  A    between atoms: C_14  and  C_15 
REMARK    6  A    between atoms: C_20  and  C_24 
REMARK    7  A    between atoms: C_24  and  C_25 
REMARK    8  A    between atoms: C_25  and  C_26 
ROOT
HETATM    1  H           1     -28.724  -7.870 -16.052  0.00  0.00     0.163 HD
HETATM    2  N           1     -28.663  -7.332 -16.906  0.00  0.00    -0.344 N 
HETATM    3  C           1     -29.792  -7.087 -17.642  0.00  0.00     0.249 C 
HETATM    4  O           1     -30.127  -7.858 -18.510  0.00  0.00    -0.271 OA
ENDROOT
BRANCH   2   5
HETATM    5  C           1     -27.382  -6.821 -17.351  0.00  0.00     0.191 C 
BRANCH   5   6
HETATM    6  C           1     -26.897  -5.770 -16.383  0.00  0.00     0.197 C 
HETATM    7  O           1     -25.670  -5.579 -16.231  0.00  0.00    -0.646 OA
HETATM    8  O           1     -27.720  -5.091 -15.733  0.00  0.00    -0.646 OA
ENDBRANCH   5   6
BRANCH   5   9
HETATM    9  C           1     -27.535  -6.204 -18.735  0.00  0.00     0.094 C 
BRANCH   9  10
HETATM   10  C           1     -26.608  -6.887 -19.692  0.00  0.00     0.028 A 
HETATM   11  N           1     -26.992  -7.823 -20.615  0.00  0.00    -0.354 N 
HETATM   12  C           1     -25.891  -8.165 -21.243  0.00  0.00     0.180 A 
ATOM     13  HN          1     -27.934  -8.180 -20.780  1.00  0.00     0.166 HD
HETATM   14  N           1     -24.809  -7.484 -20.759  0.00  0.00    -0.360 N 
HETATM   15  H           1     -23.817  -7.579 -21.092  0.00  0.00     0.166 HD
HETATM   16  C           1     -25.253  -6.661 -19.763  0.00  0.00     0.114 A 
ENDBRANCH   9  10
ENDBRANCH   5   9
ENDBRANCH   2   5
BRANCH   3  17
HETATM   17  C           1     -30.616  -5.852 -17.370  0.00  0.00     0.283 C 
BRANCH  17  18
HETATM   18  N           1     -30.558  -5.524 -15.907  0.00  0.00    -0.066 N 
HETATM   19  H           1     -30.315  -4.515 -15.786  0.00  0.00     0.275 HD
HETATM   20  H           1     -31.488  -5.713 -15.471  0.00  0.00     0.275 HD
HETATM   21  H           1     -29.829  -6.116 -15.447  0.00  0.00     0.275 HD
ENDBRANCH  17  18
BRANCH  17  22
HETATM   22  C           1     -30.063  -4.685 -18.175  0.00  0.00     0.145 C 
BRANCH  22  23
HETATM   23  C           1     -30.653  -3.394 -17.662  0.00  0.00     0.217 C 
HETATM   24  O           1     -31.848  -3.290 -17.523  0.00  0.00    -0.274 OA
HETATM   25  N           1     -29.833  -2.341 -17.354  0.00  0.00    -0.370 N 
HETATM   26  H           1     -30.229  -1.475 -17.010  0.00  0.00     0.159 HD
HETATM   27  H           1     -28.832  -2.428 -17.470  0.00  0.00     0.159 HD
ENDBRANCH  22  23
ENDBRANCH  17  22
ENDBRANCH   3  17
TORSDOF 8
ENDMDL
MODEL 2
REMARK VINA RESULT:      -6.7      1.590      2.055
REMARK  8 active torsions:
REMARK  status: ('A' for Active; 'I' for Inactive)
REMARK    1  A    between atoms: N_2  and  C_13 
REMARK       I    between atoms: N_4  and  C_15 
REMARK    2  A    between atoms: N_11  and  C_24 
REMARK       I    between atoms: N_11  and  C_12 
REMARK    3  A    between atoms: C_12  and  C_13 
REMARK    4  A    between atoms: C_13  and  C_14 
REMARK    5  A    between atoms: C_14  and  C_15 
REMARK    6  A    between atoms: C_20  and  C_24 
REMARK    7  A    between atoms: C_24  and  C_25 
REMARK    8  A    between atoms: C_25  and  C_26 
ROOT
HETATM    1  H           1     -26.472  -4.570 -16.965  0.00  0.00     0.163 HD
HETATM    2  N           1     -26.885  -5.493 -16.950  0.00  0.00    -0.344 N 
HETATM    3  C           1     -28.204  -5.648 -16.619  0.00  0.00     0.249 C 
HETATM    4  O           1     -28.523  -5.820 -15.466  0.00  0.00    -0.271 OA
ENDROOT
BRANCH   2   5
HETATM    5  C           1     -26.079  -6.652 -17.279  0.00  0.00     0.191 C 
BRANCH   5   6
HETATM    6  C           1     -25.286  -7.074 -16.067  0.00  0.00     0.197 C 
HETATM    7  O           1     -25.317  -6.380 -15.026  0.00  0.00    -0.646 OA
HETATM    8  O           1     -24.599  -8.117 -16.100  0.00  0.00    -0.646 OA
ENDBRANCH   5   6
BRANCH   5   9
HETATM    9  C           1     -25.124  -6.301 -18.413  0.00  0.00     0.094 C 
BRANCH   9  10
HETATM   10  C           1     -25.454  -7.126 -19.618  0.00  0.00     0.028 A 
HETATM   11  N           1     -26.724  -7.366 -20.074  0.00  0.00    -0.354 N 
HETATM   12  C           1     -26.573  -8.122 -21.137  0.00  0.00     0.180 A 
ATOM     13  HN          1     -27.600  -7.030 -19.672  1.00  0.00     0.166 HD
HETATM   14  N           1     -25.254  -8.380 -21.385  0.00  0.00    -0.360 N 
HETATM   15  H           1     -24.873  -8.958 -22.173  0.00  0.00     0.166 HD
HETATM   16  C           1     -24.524  -7.747 -20.418  0.00  0.00     0.114 A 
ENDBRANCH   9  10
ENDBRANCH   5   9
ENDBRANCH   2   5
BRANCH   3  17
HETATM   17  C           1     -29.262  -5.607 -17.695  0.00  0.00     0.283 C 
BRANCH  17  18
HETATM   18  N           1     -29.478  -6.989 -18.237  0.00  0.00    -0.066 N 
HETATM   19  H           1     -29.450  -7.679 -17.453  0.00  0.00     0.275 HD
HETATM   20  H           1     -30.408  -7.037 -18.709  0.00  0.00     0.275 HD
HETATM   21  H           1     -28.724  -7.214 -18.926  0.00  0.00     0.275 HD
ENDBRANCH  17  18
BRANCH  17  22
HETATM   22  C           1     -30.565  -5.083 -17.108  0.00  0.00     0.145 C 
BRANCH  22  23
HETATM   23  C           1     -30.753  -3.640 -17.507  0.00  0.00     0.217 C 
HETATM   24  O           1     -31.866  -3.192 -17.646  0.00  0.00    -0.274 OA
HETATM   25  N           1     -29.661  -2.838 -17.713  0.00  0.00    -0.370 N 
HETATM   26  H           1     -29.787  -1.870 -17.982  0.00  0.00     0.159 HD
HETATM   27  H           1     -28.729  -3.213 -17.597  0.00  0.00     0.159 HD
ENDBRANCH  22  23
ENDBRANCH  17  22
ENDBRANCH   3  17
TORSDOF 8
ENDMDL
MODEL 3
REMARK VINA RESULT:      -6.2      2.243      2.979
REMARK  8 active torsions:
REMARK  status: ('A' for Active; 'I' for Inactive)
REMARK    1  A    between atoms: N_2  and  C_13 
REMARK       I    between atoms: N_4  and  C_15 
REMARK    2  A    between atoms: N_11  and  C_24 
REMARK       I    between atoms: N_11  and  C_12 
REMARK    3  A    between atoms: C_12  and  C_13 
REMARK    4  A    between atoms: C_13  and  C_14 
REMARK    5  A    between atoms: C_14  and  C_15 
REMARK    6  A    between atoms: C_20  and  C_24 
REMARK    7  A    between atoms: C_24  and  C_25 
REMARK    8  A    between atoms: C_25  and  C_26 
ROOT
HETATM    1  H           1     -28.727  -3.555 -16.401  0.00  0.00     0.163 HD
HETATM    2  N           1     -28.784  -4.553 -16.560  0.00  0.00    -0.344 N 
HETATM    3  C           1     -29.879  -5.253 -16.129  0.00  0.00     0.249 C 
HETATM    4  O           1     -29.889  -5.736 -15.021  0.00  0.00    -0.271 OA
ENDROOT
BRANCH   2   5
HETATM    5  C           1     -27.707  -5.240 -17.245  0.00  0.00     0.191 C 
BRANCH   5   6
HETATM    6  C           1     -28.247  -5.917 -18.480  0.00  0.00     0.197 C 
HETATM    7  O           1     -28.677  -7.090 -18.413  0.00  0.00    -0.646 OA
HETATM    8  O           1     -28.266  -5.306 -19.570  0.00  0.00    -0.646 OA
ENDBRANCH   5   6
BRANCH   5   9
HETATM    9  C           1     -27.101  -6.285 -16.316  0.00  0.00     0.094 C 
BRANCH   9  10
HETATM   10  C           1     -25.789  -6.747 -16.871  0.00  0.00     0.028 A 
HETATM   11  N           1     -25.451  -6.714 -18.198  0.00  0.00    -0.354 N 
HETATM   12  C           1     -24.233  -7.201 -18.258  0.00  0.00     0.180 A 
ATOM     13  HN          1     -26.023  -6.383 -18.976  1.00  0.00     0.166 HD
HETATM   14  N           1     -23.772  -7.548 -17.018  0.00  0.00    -0.360 N 
HETATM   15  H           1     -22.832  -7.960 -16.799  0.00  0.00     0.166 HD
HETATM   16  C           1     -24.761  -7.262 -16.118  0.00  0.00     0.114 A 
ENDBRANCH   9  10
ENDBRANCH   5   9
ENDBRANCH   2   5
BRANCH   3  17
HETATM   17  C           1     -31.071  -5.424 -17.037  0.00  0.00     0.283 C 
BRANCH  17  18
HETATM   18  N           1     -31.421  -6.879 -17.136  0.00  0.00    -0.066 N 
HETATM   19  H           1     -30.548  -7.451 -17.093  0.00  0.00     0.275 HD
HETATM   20  H           1     -32.048  -7.141 -16.342  0.00  0.00     0.275 HD
HETATM   21  H           1     -31.911  -7.058 -18.042  0.00  0.00     0.275 HD
ENDBRANCH  17  18
BRANCH  17  22
HETATM   22  C           1     -32.256  -4.654 -16.470  0.00  0.00     0.145 C 
BRANCH  22  23
HETATM   23  C           1     -32.548  -3.461 -17.348  0.00  0.00     0.217 C 
HETATM   24  O           1     -31.659  -2.946 -17.982  0.00  0.00    -0.274 OA
HETATM   25  N           1     -33.821  -2.963 -17.425  0.00  0.00    -0.370 N 
HETATM   26  H           1     -34.018  -2.163 -18.013  0.00  0.00     0.159 HD
HETATM   27  H           1     -34.567  -3.394 -16.894  0.00  0.00     0.159 HD
ENDBRANCH  22  23
ENDBRANCH  17  22
ENDBRANCH   3  17
TORSDOF 8
ENDMDL
MODEL 4
REMARK VINA RESULT:      -6.1     11.623     13.736
REMARK  8 active torsions:
REMARK  status: ('A' for Active; 'I' for Inactive)
REMARK    1  A    between atoms: N_2  and  C_13 
REMARK       I    between atoms: N_4  and  C_15 
REMARK    2  A    between atoms: N_11  and  C_24 
REMARK       I    between atoms: N_11  and  C_12 
REMARK    3  A    between atoms: C_12  and  C_13 
REMARK    4  A    between atoms: C_13  and  C_14 
REMARK    5  A    between atoms: C_14  and  C_15 
REMARK    6  A    between atoms: C_20  and  C_24 
REMARK    7  A    between atoms: C_24  and  C_25 
REMARK    8  A    between atoms: C_25  and  C_26 
ROOT
HETATM    1  H           1     -22.893  -4.417  -5.988  0.00  0.00     0.163 HD
HETATM    2  N           1     -22.085  -4.967  -6.248  0.00  0.00    -0.344 N 
HETATM    3  C           1     -21.342  -5.590  -5.280  0.00  0.00     0.249 C 
HETATM    4  O           1     -20.409  -5.016  -4.771  0.00  0.00    -0.271 OA
ENDROOT
BRANCH   2   5
HETATM    5  C           1     -21.714  -5.095  -7.642  0.00  0.00     0.191 C 
BRANCH   5   6
HETATM    6  C           1     -20.211  -5.166  -7.758  0.00  0.00     0.197 C 
HETATM    7  O           1     -19.635  -6.277  -7.753  0.00  0.00    -0.646 OA
HETATM    8  O           1     -19.541  -4.116  -7.859  0.00  0.00    -0.646 OA
ENDBRANCH   5   6
BRANCH   5   9
HETATM    9  C           1     -22.227  -3.888  -8.417  0.00  0.00     0.094 C 
BRANCH   9  10
HETATM   10  C           1     -22.503  -4.285  -9.834  0.00  0.00     0.028 A 
HETATM   11  N           1     -23.679  -4.835 -10.274  0.00  0.00    -0.354 N 
HETATM   12  C           1     -23.510  -5.030 -11.562  0.00  0.00     0.180 A 
ATOM     13  HN          1     -24.508  -5.049  -9.719  1.00  0.00     0.166 HD
HETATM   14  N           1     -22.270  -4.627 -11.970  0.00  0.00    -0.360 N 
HETATM   15  H           1     -21.892  -4.678 -12.948  0.00  0.00     0.166 HD
HETATM   16  C           1     -21.612  -4.146 -10.872  0.00  0.00     0.114 A 
ENDBRANCH   9  10
ENDBRANCH   5   9
ENDBRANCH   2   5
BRANCH   3  17
HETATM   17  C           1     -21.688  -6.995  -4.852  0.00  0.00     0.283 C 
BRANCH  17  18
HETATM   18  N           1     -21.326  -7.955  -5.946  0.00  0.00    -0.066 N 
HETATM   19  H           1     -20.998  -7.422  -6.783  0.00  0.00     0.275 HD
HETATM   20  H           1     -20.563  -8.587  -5.616  0.00  0.00     0.275 HD
HETATM   21  H           1     -22.165  -8.524  -6.202  0.00  0.00     0.275 HD
ENDBRANCH  17  18
BRANCH  17  22
HETATM   22  C           1     -20.913  -7.347  -3.590  0.00  0.00     0.145 C 
BRANCH  22  23
HETATM   23  C           1     -21.775  -7.085  -2.380  0.00  0.00     0.217 C 
HETATM   24  O           1     -21.989  -7.973  -1.588  0.00  0.00    -0.274 OA
HETATM   25  N           1     -22.315  -5.843  -2.178  0.00  0.00    -0.370 N 
HETATM   26  H           1     -22.893  -5.668  -1.367  0.00  0.00     0.159 HD
HETATM   27  H           1     -22.135  -5.100  -2.841  0.00  0.00     0.159 HD
ENDBRANCH  22  23
ENDBRANCH  17  22
ENDBRANCH   3  17
TORSDOF 8
ENDMDL
MODEL 5
REMARK VINA RESULT:      -6.0      2.261      3.882
REMARK  8 active torsions:
REMARK  status: ('A' for Active; 'I' for Inactive)
REMARK    1  A    between atoms: N_2  and  C_13 
REMARK       I    between atoms: N_4  and  C_15 
REMARK    2  A    between atoms: N_11  and  C_24 
REMARK       I    between atoms: N_11  and  C_12 
REMARK    3  A    between atoms: C_12  and  C_13 
REMARK    4  A    between atoms: C_13  and  C_14 
REMARK    5  A    between atoms: C_14  and  C_15 
REMARK    6  A    between atoms: C_20  and  C_24 
REMARK    7  A    between atoms: C_24  and  C_25 
REMARK    8  A    between atoms: C_25  and  C_26 
ROOT
HETATM    1  H           1     -30.584  -4.244 -18.813  0.00  0.00     0.163 HD
HETATM    2  N           1     -30.426  -4.595 -17.877  0.00  0.00    -0.344 N 
HETATM    3  C           1     -31.466  -5.126 -17.162  0.00  0.00     0.249 C 
HETATM    4  O           1     -32.138  -4.414 -16.453  0.00  0.00    -0.271 OA
ENDROOT
BRANCH   2   5
HETATM    5  C           1     -29.100  -4.538 -17.295  0.00  0.00     0.191 C 
BRANCH   5   6
HETATM    6  C           1     -28.724  -3.099 -17.044  0.00  0.00     0.197 C 
HETATM    7  O           1     -29.493  -2.179 -17.400  0.00  0.00    -0.646 OA
HETATM    8  O           1     -27.643  -2.824 -16.478  0.00  0.00    -0.646 OA
ENDBRANCH   5   6
BRANCH   5   9
HETATM    9  C           1     -28.097  -5.165 -18.255  0.00  0.00     0.094 C 
BRANCH   9  10
HETATM   10  C           1     -27.051  -5.899 -17.476  0.00  0.00     0.028 A 
HETATM   11  N           1     -27.041  -6.025 -16.111  0.00  0.00    -0.354 N 
HETATM   12  C           1     -25.969  -6.732 -15.836  0.00  0.00     0.180 A 
ATOM     13  HN          1     -27.721  -5.649 -15.450  1.00  0.00     0.166 HD
HETATM   14  N           1     -25.286  -7.067 -16.971  0.00  0.00    -0.360 N 
HETATM   15  H           1     -24.399  -7.626 -17.019  0.00  0.00     0.166 HD
HETATM   16  C           1     -25.968  -6.539 -18.032  0.00  0.00     0.114 A 
ENDBRANCH   9  10
ENDBRANCH   5   9
ENDBRANCH   2   5
BRANCH   3  17
HETATM   17  C           1     -31.772  -6.601 -17.256  0.00  0.00     0.283 C 
BRANCH  17  18
HETATM   18  N           1     -33.251  -6.815 -17.121  0.00  0.00    -0.066 N 
HETATM   19  H           1     -33.645  -7.113 -18.041  0.00  0.00     0.275 HD
HETATM   20  H           1     -33.432  -7.556 -16.408  0.00  0.00     0.275 HD
HETATM   21  H           1     -33.705  -5.922 -16.819  0.00  0.00     0.275 HD
ENDBRANCH  17  18
BRANCH  17  22
HETATM   22  C           1     -31.303  -7.132 -18.604  0.00  0.00     0.145 C 
BRANCH  22  23
HETATM   23  C           1     -30.150  -8.082 -18.397  0.00  0.00     0.217 C 
HETATM   24  O           1     -29.723  -8.725 -19.327  0.00  0.00    -0.274 OA
HETATM   25  N           1     -29.588  -8.218 -17.156  0.00  0.00    -0.370 N 
HETATM   26  H           1     -28.814  -8.856 -17.017  0.00  0.00     0.159 HD
HETATM   27  H           1     -29.946  -7.680 -16.377  0.00  0.00     0.159 HD
ENDBRANCH  22  23
ENDBRANCH  17  22
ENDBRANCH   3  17
TORSDOF 8
ENDMDL
MODEL 6
REMARK VINA RESULT:      -6.0     13.724     15.631
REMARK  8 active torsions:
REMARK  status: ('A' for Active; 'I' for Inactive)
REMARK    1  A    between atoms: N_2  and  C_13 
REMARK       I    between atoms: N_4  and  C_15 
REMARK    2  A    between atoms: N_11  and  C_24 
REMARK       I    between atoms: N_11  and  C_12 
REMARK    3  A    between atoms: C_12  and  C_13 
REMARK    4  A    between atoms: C_13  and  C_14 
REMARK    5  A    between atoms: C_14  and  C_15 
REMARK    6  A    between atoms: C_20  and  C_24 
REMARK    7  A    between atoms: C_24  and  C_25 
REMARK    8  A    between atoms: C_25  and  C_26 
ROOT
HETATM    1  H           1     -21.565  -5.414  -2.807  0.00  0.00     0.163 HD
HETATM    2  N           1     -21.631  -6.225  -3.408  0.00  0.00    -0.344 N 
HETATM    3  C           1     -21.774  -6.064  -4.760  0.00  0.00     0.249 C 
HETATM    4  O           1     -22.877  -5.991  -5.247  0.00  0.00    -0.271 OA
ENDROOT
BRANCH   2   5
HETATM    5  C           1     -21.576  -7.557  -2.838  0.00  0.00     0.191 C 
BRANCH   5   6
HETATM    6  C           1     -21.856  -7.482  -1.358  0.00  0.00     0.197 C 
HETATM    7  O           1     -21.228  -8.217  -0.564  0.00  0.00    -0.646 OA
HETATM    8  O           1     -22.716  -6.685  -0.923  0.00  0.00    -0.646 OA
ENDBRANCH   5   6
BRANCH   5   9
HETATM    9  C           1     -20.190  -8.148  -3.064  0.00  0.00     0.094 C 
BRANCH   9  10
HETATM   10  C           1     -20.252  -9.160  -4.165  0.00  0.00     0.028 A 
HETATM   11  N           1     -21.389  -9.816  -4.558  0.00  0.00    -0.354 N 
HETATM   12  C           1     -21.014 -10.604  -5.539  0.00  0.00     0.180 A 
ATOM     13  HN          1     -22.327  -9.714  -4.170  1.00  0.00     0.166 HD
HETATM   14  N           1     -19.676 -10.483  -5.794  0.00  0.00    -0.360 N 
HETATM   15  H           1     -19.135 -11.004  -6.527  0.00  0.00     0.166 HD
HETATM   16  C           1     -19.173  -9.560  -4.920  0.00  0.00     0.114 A 
ENDBRANCH   9  10
ENDBRANCH   5   9
ENDBRANCH   2   5
BRANCH   3  17
HETATM   17  C           1     -20.552  -5.981  -5.643  0.00  0.00     0.283 C 
BRANCH  17  18
HETATM   18  N           1     -20.792  -6.759  -6.903  0.00  0.00    -0.066 N 
HETATM   19  H           1     -21.773  -7.122  -6.908  0.00  0.00     0.275 HD
HETATM   20  H           1     -20.647  -6.137  -7.729  0.00  0.00     0.275 HD
HETATM   21  H           1     -20.124  -7.562  -6.948  0.00  0.00     0.275 HD
ENDBRANCH  17  18
BRANCH  17  22
HETATM   22  C           1     -20.275  -4.525  -5.990  0.00  0.00     0.145 C 
BRANCH  22  23
HETATM   23  C           1     -20.890  -4.200  -7.329  0.00  0.00     0.217 C 
HETATM   24  O           1     -20.267  -4.399  -8.344  0.00  0.00    -0.274 OA
HETATM   25  N           1     -22.155  -3.680  -7.393  0.00  0.00    -0.370 N 
HETATM   26  H           1     -22.568  -3.461  -8.291  0.00  0.00     0.159 HD
HETATM   27  H           1     -22.678  -3.513  -6.542  0.00  0.00     0.159 HD
ENDBRANCH  22  23
ENDBRANCH  17  22
ENDBRANCH   3  17
TORSDOF 8
ENDMDL
MODEL 7
REMARK VINA RESULT:      -6.0     11.827     13.878
REMARK  8 active torsions:
REMARK  status: ('A' for Active; 'I' for Inactive)
REMARK    1  A    between atoms: N_2  and  C_13 
REMARK       I    between atoms: N_4  and  C_15 
REMARK    2  A    between atoms: N_11  and  C_24 
REMARK       I    between atoms: N_11  and  C_12 
REMARK    3  A    between atoms: C_12  and  C_13 
REMARK    4  A    between atoms: C_13  and  C_14 
REMARK    5  A    between atoms: C_14  and  C_15 
REMARK    6  A    between atoms: C_20  and  C_24 
REMARK    7  A    between atoms: C_24  and  C_25 
REMARK    8  A    between atoms: C_25  and  C_26 
ROOT
HETATM    1  H           1     -19.604  -6.752  -7.100  0.00  0.00     0.163 HD
HETATM    2  N           1     -20.473  -6.389  -6.731  0.00  0.00    -0.344 N 
HETATM    3  C           1     -20.871  -5.117  -7.044  0.00  0.00     0.249 C 
HETATM    4  O           1     -20.540  -4.190  -6.343  0.00  0.00    -0.271 OA
ENDROOT
BRANCH   2   5
HETATM    5  C           1     -21.297  -7.217  -5.872  0.00  0.00     0.191 C 
BRANCH   5   6
HETATM    6  C           1     -22.107  -6.336  -4.953  0.00  0.00     0.197 C 
HETATM    7  O           1     -23.268  -5.997  -5.275  0.00  0.00    -0.646 OA
HETATM    8  O           1     -21.620  -5.946  -3.870  0.00  0.00    -0.646 OA
ENDBRANCH   5   6
BRANCH   5   9
HETATM    9  C           1     -20.405  -8.132  -5.043  0.00  0.00     0.094 C 
BRANCH   9  10
HETATM   10  C           1     -20.982  -9.514  -5.029  0.00  0.00     0.028 A 
HETATM   11  N           1     -20.835 -10.429  -6.039  0.00  0.00    -0.354 N 
HETATM   12  C           1     -21.484 -11.497  -5.636  0.00  0.00     0.180 A 
ATOM     13  HN          1     -20.330 -10.306  -6.917  1.00  0.00     0.166 HD
HETATM   14  N           1     -22.046 -11.305  -4.404  0.00  0.00    -0.360 N 
HETATM   15  H           1     -22.614 -12.005  -3.867  0.00  0.00     0.166 HD
HETATM   16  C           1     -21.732 -10.037  -4.002  0.00  0.00     0.114 A 
ENDBRANCH   9  10
ENDBRANCH   5   9
ENDBRANCH   2   5
BRANCH   3  17
HETATM   17  C           1     -21.727  -4.872  -8.263  0.00  0.00     0.283 C 
BRANCH  17  18
HETATM   18  N           1     -22.917  -4.043  -7.880  0.00  0.00    -0.066 N 
HETATM   19  H           1     -22.698  -3.496  -7.017  0.00  0.00     0.275 HD
HETATM   20  H           1     -23.148  -3.386  -8.659  0.00  0.00     0.275 HD
HETATM   21  H           1     -23.734  -4.670  -7.698  0.00  0.00     0.275 HD
ENDBRANCH  17  18
BRANCH  17  22
HETATM   22  C           1     -20.911  -4.135  -9.316  0.00  0.00     0.145 C 
BRANCH  22  23
HETATM   23  C           1     -21.652  -4.152 -10.630  0.00  0.00     0.217 C 
HETATM   24  O           1     -22.708  -4.733 -10.720  0.00  0.00    -0.274 OA
HETATM   25  N           1     -21.129  -3.510 -11.721  0.00  0.00    -0.370 N 
HETATM   26  H           1     -21.626  -3.522 -12.602  0.00  0.00     0.159 HD
HETATM   27  H           1     -20.244  -3.024 -11.645  0.00  0.00     0.159 HD
ENDBRANCH  22  23
ENDBRANCH  17  22
ENDBRANCH   3  17
TORSDOF 8
ENDMDL
MODEL 8
REMARK VINA RESULT:      -5.8     12.714     14.924
REMARK  8 active torsions:
REMARK  status: ('A' for Active; 'I' for Inactive)
REMARK    1  A    between atoms: N_2  and  C_13 
REMARK       I    between atoms: N_4  and  C_15 
REMARK    2  A    between atoms: N_11  and  C_24 
REMARK       I    between atoms: N_11  and  C_12 
REMARK    3  A    between atoms: C_12  and  C_13 
REMARK    4  A    between atoms: C_13  and  C_14 
REMARK    5  A    between atoms: C_14  and  C_15 
REMARK    6  A    between atoms: C_20  and  C_24 
REMARK    7  A    between atoms: C_24  and  C_25 
REMARK    8  A    between atoms: C_25  and  C_26 
ROOT
HETATM    1  H           1     -19.934  -7.460  -7.615  0.00  0.00     0.163 HD
HETATM    2  N           1     -19.992  -6.792  -6.858  0.00  0.00    -0.344 N 
HETATM    3  C           1     -20.064  -5.452  -7.132  0.00  0.00     0.249 C 
HETATM    4  O           1     -19.051  -4.799  -7.225  0.00  0.00    -0.271 OA
ENDROOT
BRANCH   2   5
HETATM    5  C           1     -20.000  -7.253  -5.484  0.00  0.00     0.191 C 
BRANCH   5   6
HETATM    6  C           1     -19.060  -8.424  -5.341  0.00  0.00     0.197 C 
HETATM    7  O           1     -18.505  -8.908  -6.352  0.00  0.00    -0.646 OA
HETATM    8  O           1     -18.834  -8.911  -4.212  0.00  0.00    -0.646 OA
ENDBRANCH   5   6
BRANCH   5   9
HETATM    9  C           1     -21.410  -7.683  -5.101  0.00  0.00     0.094 C 
BRANCH   9  10
HETATM   10  C           1     -21.677  -7.311  -3.676  0.00  0.00     0.028 A 
HETATM   11  N           1     -22.019  -6.055  -3.250  0.00  0.00    -0.354 N 
HETATM   12  C           1     -22.162  -6.157  -1.948  0.00  0.00     0.180 A 
ATOM     13  HN          1     -22.137  -5.218  -3.822  1.00  0.00     0.166 HD
HETATM   14  N           1     -21.925  -7.432  -1.518  0.00  0.00    -0.360 N 
HETATM   15  H           1     -21.973  -7.770  -0.525  0.00  0.00     0.166 HD
HETATM   16  C           1     -21.612  -8.185  -2.615  0.00  0.00     0.114 A 
ENDBRANCH   9  10
ENDBRANCH   5   9
ENDBRANCH   2   5
BRANCH   3  17
HETATM   17  C           1     -21.408  -4.790  -7.315  0.00  0.00     0.283 C 
BRANCH  17  18
HETATM   18  N           1     -21.314  -3.349  -6.910  0.00  0.00    -0.066 N 
HETATM   19  H           1     -21.681  -3.235  -5.938  0.00  0.00     0.275 HD
HETATM   20  H           1     -20.317  -3.042  -6.944  0.00  0.00     0.275 HD
HETATM   21  H           1     -21.882  -2.766  -7.567  0.00  0.00     0.275 HD
ENDBRANCH  17  18
BRANCH  17  22
HETATM   22  C           1     -21.824  -4.881  -8.776  0.00  0.00     0.145 C 
BRANCH  22  23
HETATM   23  C           1     -23.076  -4.068  -8.995  0.00  0.00     0.217 C 
HETATM   24  O           1     -23.183  -3.378  -9.981  0.00  0.00    -0.274 OA
HETATM   25  N           1     -24.091  -4.112  -8.076  0.00  0.00    -0.370 N 
HETATM   26  H           1     -24.931  -3.566  -8.223  0.00  0.00     0.159 HD
HETATM   27  H           1     -24.001  -4.690  -7.251  0.00  0.00     0.159 HD
ENDBRANCH  22  23
ENDBRANCH  17  22
ENDBRANCH   3  17
TORSDOF 8
ENDMDL
MODEL 9
REMARK VINA RESULT:      -5.7     11.945     14.344
REMARK  8 active torsions:
REMARK  status: ('A' for Active; 'I' for Inactive)
REMARK    1  A    between atoms: N_2  and  C_13 
REMARK       I    between atoms: N_4  and  C_15 
REMARK    2  A    between atoms: N_11  and  C_24 
REMARK       I    between atoms: N_11  and  C_12 
REMARK    3  A    between atoms: C_12  and  C_13 
REMARK    4  A    between atoms: C_13  and  C_14 
REMARK    5  A    between atoms: C_14  and  C_15 
REMARK    6  A    between atoms: C_20  and  C_24 
REMARK    7  A    between atoms: C_24  and  C_25 
REMARK    8  A    between atoms: C_25  and  C_26 
ROOT
HETATM    1  H           1     -23.101  -5.089  -5.542  0.00  0.00     0.163 HD
HETATM    2  N           1     -22.213  -5.528  -5.745  0.00  0.00    -0.344 N 
HETATM    3  C           1     -21.607  -6.313  -4.800  0.00  0.00     0.249 C 
HETATM    4  O           1     -20.839  -5.822  -4.008  0.00  0.00    -0.271 OA
ENDROOT
BRANCH   2   5
HETATM    5  C           1     -21.581  -5.326  -7.033  0.00  0.00     0.191 C 
BRANCH   5   6
HETATM    6  C           1     -20.086  -5.466  -6.888  0.00  0.00     0.197 C 
HETATM    7  O           1     -19.534  -6.560  -7.138  0.00  0.00    -0.646 OA
HETATM    8  O           1     -19.399  -4.490  -6.519  0.00  0.00    -0.646 OA
ENDBRANCH   5   6
BRANCH   5   9
HETATM    9  C           1     -21.914  -3.932  -7.548  0.00  0.00     0.094 C 
BRANCH   9  10
HETATM   10  C           1     -22.864  -4.037  -8.700  0.00  0.00     0.028 A 
HETATM   11  N           1     -24.160  -3.591  -8.684  0.00  0.00    -0.354 N 
HETATM   12  C           1     -24.638  -3.871  -9.874  0.00  0.00     0.180 A 
ATOM     13  HN          1     -24.649  -3.139  -7.911  1.00  0.00     0.166 HD
HETATM   14  N           1     -23.700  -4.482 -10.659  0.00  0.00    -0.360 N 
HETATM   15  H           1     -23.835  -4.805 -11.648  0.00  0.00     0.166 HD
HETATM   16  C           1     -22.556  -4.596  -9.918  0.00  0.00     0.114 A 
ENDBRANCH   9  10
ENDBRANCH   5   9
ENDBRANCH   2   5
BRANCH   3  17
HETATM   17  C           1     -21.898  -7.794  -4.751  0.00  0.00     0.283 C 
BRANCH  17  18
HETATM   18  N           1     -21.157  -8.485  -5.858  0.00  0.00    -0.066 N 
HETATM   19  H           1     -21.714  -8.426  -6.740  0.00  0.00     0.275 HD
HETATM   20  H           1     -20.231  -8.024  -5.998  0.00  0.00     0.275 HD
HETATM   21  H           1     -21.013  -9.489  -5.604  0.00  0.00     0.275 HD
ENDBRANCH  17  18
BRANCH  17  22
HETATM   22  C           1     -21.447  -8.355  -3.410  0.00  0.00     0.145 C 
BRANCH  22  23
HETATM   23  C           1     -20.262  -9.266  -3.617  0.00  0.00     0.217 C 
HETATM   24  O           1     -19.183  -8.799  -3.896  0.00  0.00    -0.274 OA
HETATM   25  N           1     -20.409 -10.622  -3.491  0.00  0.00    -0.370 N 
HETATM   26  H           1     -19.614 -11.233  -3.630  0.00  0.00     0.159 HD
HETATM   27  H           1     -21.312 -11.013  -3.257  0.00  0.00     0.159 HD
ENDBRANCH  22  23
ENDBRANCH  17  22
ENDBRANCH   3  17
TORSDOF 8
ENDMDL
