MODEL 1
REMARK VINA RESULT:      -6.3      0.000      0.000
REMARK  10 active torsions:
REMARK  status: ('A' for Active; 'I' for Inactive)
REMARK       I    between atoms: C_1  and  N_6 
REMARK    1  A    between atoms: C_1  and  C_2 
REMARK    2  A    between atoms: C_2  and  C_26 
REMARK    3  A    between atoms: C_2  and  N_17 
REMARK    4  A    between atoms: N_6  and  C_10 
REMARK    5  A    between atoms: C_7  and  C_16 
REMARK    6  A    between atoms: C_7  and  N_8 
REMARK    7  A    between atoms: C_9  and  C_24 
REMARK    8  A    between atoms: C_9  and  C_10 
REMARK    9  A    between atoms: C_10  and  C_25 
REMARK       I    between atoms: N_13  and  C_24 
REMARK   10  A    between atoms: C_16  and  C_26 
ROOT
HETATM    1  C           1     -34.253  -2.616 -11.830  0.00  0.00     0.249 C 
HETATM    2  H           1     -35.578  -2.213 -13.367  0.00  0.00     0.163 HD
HETATM    3  N           1     -35.037  -1.812 -12.612  0.00  0.00    -0.344 N 
HETATM    4  O           1     -33.607  -2.137 -10.928  0.00  0.00    -0.271 OA
ENDROOT
BRANCH   1   5
HETATM    5  C           1     -34.195  -4.100 -12.093  0.00  0.00     0.274 C 
BRANCH   5   6
HETATM    6  C           1     -34.525  -4.857 -10.813  0.00  0.00     0.044 C 
BRANCH   6   7
HETATM    7  C           1     -33.807  -6.201 -10.817  0.00  0.00     0.030 C 
BRANCH   7   8
HETATM    8  C           1     -34.697  -7.253 -10.169  0.00  0.00     0.230 C 
BRANCH   8   9
HETATM    9  N           1     -34.025  -8.592 -10.243  0.00  0.00    -0.079 N 
HETATM   10  H           1     -34.602  -9.240 -10.825  0.00  0.00     0.274 HD
HETATM   11  H           1     -33.079  -8.485 -10.676  0.00  0.00     0.274 HD
HETATM   12  H           1     -33.924  -8.984  -9.279  0.00  0.00     0.274 HD
ENDBRANCH   8   9
ENDBRANCH   7   8
ENDBRANCH   6   7
ENDBRANCH   5   6
BRANCH   5  13
HETATM   13  N           1     -32.816  -4.473 -12.552  0.00  0.00    -0.067 N 
HETATM   14  H           1     -32.778  -5.499 -12.743  0.00  0.00     0.275 HD
HETATM   15  H           1     -32.125  -4.231 -11.806  0.00  0.00     0.275 HD
HETATM   16  H           1     -32.585  -3.947 -13.424  0.00  0.00     0.275 HD
ENDBRANCH   5  13
ENDBRANCH   1   5
BRANCH   3  17
HETATM   17  C           1     -35.093  -0.385 -12.359  0.00  0.00     0.194 C 
BRANCH  17  18
HETATM   18  C           1     -35.088   0.365 -13.684  0.00  0.00     0.138 C 
BRANCH  18  19
HETATM   19  C           1     -35.811  -0.449 -14.728  0.00  0.00     0.217 C 
HETATM   20  N           1     -37.127  -0.194 -15.006  0.00  0.00    -0.370 N 
HETATM   21  H           1     -37.612  -0.741 -15.706  0.00  0.00     0.159 HD
HETATM   22  H           1     -37.615   0.541 -14.510  0.00  0.00     0.159 HD
HETATM   23  O           1     -35.228  -1.327 -15.319  0.00  0.00    -0.274 OA
ENDBRANCH  18  19
ENDBRANCH  17  18
BRANCH  17  24
HETATM   24  C           1     -36.356  -0.059 -11.600  0.00  0.00     0.197 C 
HETATM   25  O           1     -37.457  -0.495 -12.002  0.00  0.00    -0.646 OA
HETATM   26  O           1     -36.302   0.647 -10.570  0.00  0.00    -0.646 OA
ENDBRANCH  17  24
ENDBRANCH   3  17
TORSDOF 10
ENDMDL
MODEL 2
REMARK VINA RESULT:      -6.3     10.620     12.093
REMARK  10 active torsions:
REMARK  status: ('A' for Active; 'I' for Inactive)
REMARK       I    between atoms: C_1  and  N_6 
REMARK    1  A    between atoms: C_1  and  C_2 
REMARK    2  A    between atoms: C_2  and  C_26 
REMARK    3  A    between atoms: C_2  and  N_17 
REMARK    4  A    between atoms: N_6  and  C_10 
REMARK    5  A    between atoms: C_7  and  C_16 
REMARK    6  A    between atoms: C_7  and  N_8 
REMARK    7  A    between atoms: C_9  and  C_24 
REMARK    8  A    between atoms: C_9  and  C_10 
REMARK    9  A    between atoms: C_10  and  C_25 
REMARK       I    between atoms: N_13  and  C_24 
REMARK   10  A    between atoms: C_16  and  C_26 
ROOT
HETATM    1  C           1     -26.392  -6.520 -19.601  0.00  0.00     0.249 C 
HETATM    2  H           1     -26.304  -6.700 -17.542  0.00  0.00     0.163 HD
HETATM    3  N           1     -26.894  -6.464 -18.329  0.00  0.00    -0.344 N 
HETATM    4  O           1     -27.095  -6.239 -20.542  0.00  0.00    -0.271 OA
ENDROOT
BRANCH   1   5
HETATM    5  C           1     -24.958  -6.933 -19.829  0.00  0.00     0.274 C 
BRANCH   5   6
HETATM    6  C           1     -24.907  -8.035 -20.879  0.00  0.00     0.044 C 
BRANCH   6   7
HETATM    7  C           1     -24.230  -7.508 -22.138  0.00  0.00     0.030 C 
BRANCH   7   8
HETATM    8  C           1     -23.057  -8.409 -22.498  0.00  0.00     0.230 C 
BRANCH   8   9
HETATM    9  N           1     -22.554  -9.095 -21.263  0.00  0.00    -0.079 N 
HETATM   10  H           1     -22.454  -8.397 -20.492  0.00  0.00     0.274 HD
HETATM   11  H           1     -23.231  -9.838 -20.976  0.00  0.00     0.274 HD
HETATM   12  H           1     -21.624  -9.531 -21.462  0.00  0.00     0.274 HD
ENDBRANCH   8   9
ENDBRANCH   7   8
ENDBRANCH   6   7
ENDBRANCH   5   6
BRANCH   5  13
HETATM   13  N           1     -24.374  -7.440 -18.544  0.00  0.00    -0.067 N 
HETATM   14  H           1     -24.354  -8.485 -18.559  0.00  0.00     0.275 HD
HETATM   15  H           1     -24.961  -7.115 -17.743  0.00  0.00     0.275 HD
HETATM   16  H           1     -23.402  -7.075 -18.434  0.00  0.00     0.275 HD
ENDBRANCH   5  13
ENDBRANCH   1   5
BRANCH   3  17
HETATM   17  C           1     -28.271  -6.068 -18.110  0.00  0.00     0.194 C 
BRANCH  17  18
HETATM   18  C           1     -28.976  -7.125 -17.270  0.00  0.00     0.138 C 
BRANCH  18  19
HETATM   19  C           1     -30.351  -7.383 -17.835  0.00  0.00     0.217 C 
HETATM   20  N           1     -31.443  -6.765 -17.288  0.00  0.00    -0.370 N 
HETATM   21  H           1     -32.365  -6.938 -17.667  0.00  0.00     0.159 HD
HETATM   22  H           1     -31.328  -6.134 -16.506  0.00  0.00     0.159 HD
HETATM   23  O           1     -30.488  -8.137 -18.769  0.00  0.00    -0.274 OA
ENDBRANCH  18  19
ENDBRANCH  17  18
BRANCH  17  24
HETATM   24  C           1     -28.304  -4.745 -17.385  0.00  0.00     0.197 C 
HETATM   25  O           1     -29.153  -3.882 -17.698  0.00  0.00    -0.646 OA
HETATM   26  O           1     -27.482  -4.512 -16.473  0.00  0.00    -0.646 OA
ENDBRANCH  17  24
ENDBRANCH   3  17
TORSDOF 10
ENDMDL
MODEL 3
REMARK VINA RESULT:      -6.2     12.534     14.199
REMARK  10 active torsions:
REMARK  status: ('A' for Active; 'I' for Inactive)
REMARK       I    between atoms: C_1  and  N_6 
REMARK    1  A    between atoms: C_1  and  C_2 
REMARK    2  A    between atoms: C_2  and  C_26 
REMARK    3  A    between atoms: C_2  and  N_17 
REMARK    4  A    between atoms: N_6  and  C_10 
REMARK    5  A    between atoms: C_7  and  C_16 
REMARK    6  A    between atoms: C_7  and  N_8 
REMARK    7  A    between atoms: C_9  and  C_24 
REMARK    8  A    between atoms: C_9  and  C_10 
REMARK    9  A    between atoms: C_10  and  C_25 
REMARK       I    between atoms: N_13  and  C_24 
REMARK   10  A    between atoms: C_16  and  C_26 
ROOT
HETATM    1  C           1     -21.684  -4.786  -7.624  0.00  0.00     0.249 C 
HETATM    2  H           1     -22.571  -5.979  -9.063  0.00  0.00     0.163 HD
HETATM    3  N           1     -22.362  -5.028  -8.788  0.00  0.00    -0.344 N 
HETATM    4  O           1     -21.433  -3.651  -7.295  0.00  0.00    -0.271 OA
ENDROOT
BRANCH   1   5
HETATM    5  C           1     -21.250  -5.937  -6.750  0.00  0.00     0.274 C 
BRANCH   5   6
HETATM    6  C           1     -21.309  -5.516  -5.288  0.00  0.00     0.044 C 
BRANCH   6   7
HETATM    7  C           1     -21.974  -6.615  -4.468  0.00  0.00     0.030 C 
BRANCH   7   8
HETATM    8  C           1     -21.404  -6.610  -3.057  0.00  0.00     0.230 C 
BRANCH   8   9
HETATM    9  N           1     -22.319  -5.843  -2.149  0.00  0.00    -0.079 N 
HETATM   10  H           1     -21.752  -5.269  -1.486  0.00  0.00     0.274 HD
HETATM   11  H           1     -22.931  -5.215  -2.719  0.00  0.00     0.274 HD
HETATM   12  H           1     -22.915  -6.512  -1.610  0.00  0.00     0.274 HD
ENDBRANCH   8   9
ENDBRANCH   7   8
ENDBRANCH   6   7
ENDBRANCH   5   6
BRANCH   5  13
HETATM   13  N           1     -19.845  -6.328  -7.101  0.00  0.00    -0.067 N 
HETATM   14  H           1     -19.709  -7.347  -6.914  0.00  0.00     0.275 HD
HETATM   15  H           1     -19.175  -5.775  -6.520  0.00  0.00     0.275 HD
HETATM   16  H           1     -19.670  -6.133  -8.112  0.00  0.00     0.275 HD
ENDBRANCH   5  13
ENDBRANCH   1   5
BRANCH   3  17
HETATM   17  C           1     -22.779  -3.922  -9.628  0.00  0.00     0.194 C 
BRANCH  17  18
HETATM   18  C           1     -22.244  -4.127 -11.039  0.00  0.00     0.138 C 
BRANCH  18  19
HETATM   19  C           1     -20.752  -3.900 -11.051  0.00  0.00     0.217 C 
HETATM   20  N           1     -20.243  -2.707 -11.490  0.00  0.00    -0.370 N 
HETATM   21  H           1     -19.243  -2.556 -11.497  0.00  0.00     0.159 HD
HETATM   22  H           1     -20.868  -1.977 -11.806  0.00  0.00     0.159 HD
HETATM   23  O           1     -20.006  -4.772 -10.673  0.00  0.00    -0.274 OA
ENDBRANCH  18  19
ENDBRANCH  17  18
BRANCH  17  24
HETATM   24  C           1     -24.286  -3.859  -9.664  0.00  0.00     0.197 C 
HETATM   25  O           1     -24.950  -4.905  -9.835  0.00  0.00    -0.646 OA
HETATM   26  O           1     -24.870  -2.763  -9.524  0.00  0.00    -0.646 OA
ENDBRANCH  17  24
ENDBRANCH   3  17
TORSDOF 10
ENDMDL
MODEL 4
REMARK VINA RESULT:      -6.1     11.115     12.625
REMARK  10 active torsions:
REMARK  status: ('A' for Active; 'I' for Inactive)
REMARK       I    between atoms: C_1  and  N_6 
REMARK    1  A    between atoms: C_1  and  C_2 
REMARK    2  A    between atoms: C_2  and  C_26 
REMARK    3  A    between atoms: C_2  and  N_17 
REMARK    4  A    between atoms: N_6  and  C_10 
REMARK    5  A    between atoms: C_7  and  C_16 
REMARK    6  A    between atoms: C_7  and  N_8 
REMARK    7  A    between atoms: C_9  and  C_24 
REMARK    8  A    between atoms: C_9  and  C_10 
REMARK    9  A    between atoms: C_10  and  C_25 
REMARK       I    between atoms: N_13  and  C_24 
REMARK   10  A    between atoms: C_16  and  C_26 
ROOT
HETATM    1  C           1     -25.321  -6.882 -18.941  0.00  0.00     0.249 C 
HETATM    2  H           1     -27.356  -6.962 -18.571  0.00  0.00     0.163 HD
HETATM    3  N           1     -26.460  -6.647 -18.219  0.00  0.00    -0.344 N 
HETATM    4  O           1     -24.252  -6.507 -18.523  0.00  0.00    -0.271 OA
ENDROOT
BRANCH   1   5
HETATM    5  C           1     -25.401  -7.609 -20.261  0.00  0.00     0.274 C 
BRANCH   5   6
HETATM    6  C           1     -24.549  -6.883 -21.294  0.00  0.00     0.044 C 
BRANCH   6   7
HETATM    7  C           1     -24.294  -7.804 -22.481  0.00  0.00     0.030 C 
BRANCH   7   8
HETATM    8  C           1     -22.866  -8.328 -22.419  0.00  0.00     0.230 C 
BRANCH   8   9
HETATM    9  N           1     -22.635  -8.996 -21.096  0.00  0.00    -0.079 N 
HETATM   10  H           1     -21.964  -8.427 -20.531  0.00  0.00     0.274 HD
HETATM   11  H           1     -23.541  -9.078 -20.582  0.00  0.00     0.274 HD
HETATM   12  H           1     -22.237  -9.950 -21.253  0.00  0.00     0.274 HD
ENDBRANCH   8   9
ENDBRANCH   7   8
ENDBRANCH   6   7
ENDBRANCH   5   6
BRANCH   5  13
HETATM   13  N           1     -26.827  -7.646 -20.726  0.00  0.00    -0.067 N 
HETATM   14  H           1     -27.177  -6.669 -20.850  0.00  0.00     0.275 HD
HETATM   15  H           1     -27.412  -8.139 -20.015  0.00  0.00     0.275 HD
HETATM   16  H           1     -26.884  -8.155 -21.637  0.00  0.00     0.275 HD
ENDBRANCH   5  13
ENDBRANCH   1   5
BRANCH   3  17
HETATM   17  C           1     -26.384  -5.948 -16.952  0.00  0.00     0.194 C 
BRANCH  17  18
HETATM   18  C           1     -27.613  -5.065 -16.785  0.00  0.00     0.138 C 
BRANCH  18  19
HETATM   19  C           1     -28.702  -5.534 -17.719  0.00  0.00     0.217 C 
HETATM   20  N           1     -29.652  -6.415 -17.277  0.00  0.00    -0.370 N 
HETATM   21  H           1     -30.381  -6.729 -17.903  0.00  0.00     0.159 HD
HETATM   22  H           1     -29.625  -6.751 -16.322  0.00  0.00     0.159 HD
HETATM   23  O           1     -28.734  -5.132 -18.858  0.00  0.00    -0.274 OA
ENDBRANCH  18  19
ENDBRANCH  17  18
BRANCH  17  24
HETATM   24  C           1     -26.329  -6.953 -15.827  0.00  0.00     0.197 C 
HETATM   25  O           1     -25.224  -7.350 -15.398  0.00  0.00    -0.646 OA
HETATM   26  O           1     -27.388  -7.386 -15.324  0.00  0.00    -0.646 OA
ENDBRANCH  17  24
ENDBRANCH   3  17
TORSDOF 10
ENDMDL
MODEL 5
REMARK VINA RESULT:      -5.8     10.459     12.644
REMARK  10 active torsions:
REMARK  status: ('A' for Active; 'I' for Inactive)
REMARK       I    between atoms: C_1  and  N_6 
REMARK    1  A    between atoms: C_1  and  C_2 
REMARK    2  A    between atoms: C_2  and  C_26 
REMARK    3  A    between atoms: C_2  and  N_17 
REMARK    4  A    between atoms: N_6  and  C_10 
REMARK    5  A    between atoms: C_7  and  C_16 
REMARK    6  A    between atoms: C_7  and  N_8 
REMARK    7  A    between atoms: C_9  and  C_24 
REMARK    8  A    between atoms: C_9  and  C_10 
REMARK    9  A    between atoms: C_10  and  C_25 
REMARK       I    between atoms: N_13  and  C_24 
REMARK   10  A    between atoms: C_16  and  C_26 
ROOT
HETATM    1  C           1     -27.315  -6.234 -19.439  0.00  0.00     0.249 C 
HETATM    2  H           1     -26.238  -7.520 -18.228  0.00  0.00     0.163 HD
HETATM    3  N           1     -26.205  -6.935 -19.053  0.00  0.00    -0.344 N 
HETATM    4  O           1     -27.276  -5.535 -20.424  0.00  0.00    -0.271 OA
ENDROOT
BRANCH   1   5
HETATM    5  C           1     -28.588  -6.335 -18.636  0.00  0.00     0.274 C 
BRANCH   5   6
HETATM    6  C           1     -29.198  -4.948 -18.474  0.00  0.00     0.044 C 
BRANCH   6   7
HETATM    7  C           1     -29.682  -4.769 -17.041  0.00  0.00     0.030 C 
BRANCH   7   8
HETATM    8  C           1     -31.189  -4.555 -17.037  0.00  0.00     0.230 C 
BRANCH   8   9
HETATM    9  N           1     -31.504  -3.198 -17.592  0.00  0.00    -0.079 N 
HETATM   10  H           1     -32.540  -3.069 -17.631  0.00  0.00     0.274 HD
HETATM   11  H           1     -31.084  -2.463 -16.978  0.00  0.00     0.274 HD
HETATM   12  H           1     -31.105  -3.115 -18.555  0.00  0.00     0.274 HD
ENDBRANCH   8   9
ENDBRANCH   7   8
ENDBRANCH   6   7
ENDBRANCH   5   6
BRANCH   5  13
HETATM   13  N           1     -28.281  -6.906 -17.283  0.00  0.00    -0.067 N 
HETATM   14  H           1     -28.876  -7.749 -17.118  0.00  0.00     0.275 HD
HETATM   15  H           1     -28.481  -6.189 -16.550  0.00  0.00     0.275 HD
HETATM   16  H           1     -27.273  -7.176 -17.240  0.00  0.00     0.275 HD
ENDBRANCH   5  13
ENDBRANCH   1   5
BRANCH   3  17
HETATM   17  C           1     -24.981  -6.838 -19.825  0.00  0.00     0.194 C 
BRANCH  17  18
HETATM   18  C           1     -23.784  -7.014 -18.901  0.00  0.00     0.138 C 
BRANCH  18  19
HETATM   19  C           1     -24.259  -7.115 -17.473  0.00  0.00     0.217 C 
HETATM   20  N           1     -23.805  -8.126 -16.668  0.00  0.00    -0.370 N 
HETATM   21  H           1     -24.124  -8.193 -15.711  0.00  0.00     0.159 HD
HETATM   22  H           1     -23.150  -8.806 -17.032  0.00  0.00     0.159 HD
HETATM   23  O           1     -25.041  -6.303 -17.038  0.00  0.00    -0.274 OA
ENDBRANCH  18  19
ENDBRANCH  17  18
BRANCH  17  24
HETATM   24  C           1     -24.966  -7.918 -20.880  0.00  0.00     0.197 C 
HETATM   25  O           1     -23.882  -8.283 -21.384  0.00  0.00    -0.646 OA
HETATM   26  O           1     -26.038  -8.446 -21.248  0.00  0.00    -0.646 OA
ENDBRANCH  17  24
ENDBRANCH   3  17
TORSDOF 10
ENDMDL
MODEL 6
REMARK VINA RESULT:      -5.7     14.138     16.830
REMARK  10 active torsions:
REMARK  status: ('A' for Active; 'I' for Inactive)
REMARK       I    between atoms: C_1  and  N_6 
REMARK    1  A    between atoms: C_1  and  C_2 
REMARK    2  A    between atoms: C_2  and  C_26 
REMARK    3  A    between atoms: C_2  and  N_17 
REMARK    4  A    between atoms: N_6  and  C_10 
REMARK    5  A    between atoms: C_7  and  C_16 
REMARK    6  A    between atoms: C_7  and  N_8 
REMARK    7  A    between atoms: C_9  and  C_24 
REMARK    8  A    between atoms: C_9  and  C_10 
REMARK    9  A    between atoms: C_10  and  C_25 
REMARK       I    between atoms: N_13  and  C_24 
REMARK   10  A    between atoms: C_16  and  C_26 
ROOT
HETATM    1  C           1     -21.400  -5.737  -5.690  0.00  0.00     0.249 C 
HETATM    2  H           1     -19.872  -6.816  -4.806  0.00  0.00     0.163 HD
HETATM    3  N           1     -20.871  -6.659  -4.828  0.00  0.00    -0.344 N 
HETATM    4  O           1     -22.593  -5.548  -5.717  0.00  0.00    -0.271 OA
ENDROOT
BRANCH   1   5
HETATM    5  C           1     -20.492  -4.954  -6.607  0.00  0.00     0.274 C 
BRANCH   5   6
HETATM    6  C           1     -21.275  -3.814  -7.246  0.00  0.00     0.044 C 
BRANCH   6   7
HETATM    7  C           1     -21.450  -4.089  -8.734  0.00  0.00     0.030 C 
BRANCH   7   8
HETATM    8  C           1     -22.884  -3.778  -9.142  0.00  0.00     0.230 C 
BRANCH   8   9
HETATM    9  N           1     -23.804  -4.059  -7.992  0.00  0.00    -0.079 N 
HETATM   10  H           1     -24.197  -5.022  -8.086  0.00  0.00     0.274 HD
HETATM   11  H           1     -23.274  -3.984  -7.094  0.00  0.00     0.274 HD
HETATM   12  H           1     -24.584  -3.362  -7.993  0.00  0.00     0.274 HD
ENDBRANCH   8   9
ENDBRANCH   7   8
ENDBRANCH   6   7
ENDBRANCH   5   6
BRANCH   5  13
HETATM   13  N           1     -19.964  -5.860  -7.680  0.00  0.00    -0.067 N 
HETATM   14  H           1     -19.965  -5.354  -8.594  0.00  0.00     0.275 HD
HETATM   15  H           1     -20.571  -6.707  -7.749  0.00  0.00     0.275 HD
HETATM   16  H           1     -18.988  -6.149  -7.443  0.00  0.00     0.275 HD
ENDBRANCH   5  13
ENDBRANCH   1   5
BRANCH   3  17
HETATM   17  C           1     -21.743  -7.411  -3.947  0.00  0.00     0.194 C 
BRANCH  17  18
HETATM   18  C           1     -21.348  -8.881  -3.977  0.00  0.00     0.138 C 
BRANCH  18  19
HETATM   19  C           1     -19.940  -9.015  -4.503  0.00  0.00     0.217 C 
HETATM   20  N           1     -18.886  -9.070  -3.632  0.00  0.00    -0.370 N 
HETATM   21  H           1     -17.942  -9.160  -3.985  0.00  0.00     0.159 HD
HETATM   22  H           1     -19.051  -9.022  -2.635  0.00  0.00     0.159 HD
HETATM   23  O           1     -19.743  -9.073  -5.693  0.00  0.00    -0.274 OA
ENDBRANCH  18  19
ENDBRANCH  17  18
BRANCH  17  24
HETATM   24  C           1     -21.612  -6.883  -2.540  0.00  0.00     0.197 C 
HETATM   25  O           1     -22.281  -5.890  -2.180  0.00  0.00    -0.646 OA
HETATM   26  O           1     -20.834  -7.439  -1.734  0.00  0.00    -0.646 OA
ENDBRANCH  17  24
ENDBRANCH   3  17
TORSDOF 10
ENDMDL
MODEL 7
REMARK VINA RESULT:      -5.6     14.157     16.160
REMARK  10 active torsions:
REMARK  status: ('A' for Active; 'I' for Inactive)
REMARK       I    between atoms: C_1  and  N_6 
REMARK    1  A    between atoms: C_1  and  C_2 
REMARK    2  A    between atoms: C_2  and  C_26 
REMARK    3  A    between atoms: C_2  and  N_17 
REMARK    4  A    between atoms: N_6  and  C_10 
REMARK    5  A    between atoms: C_7  and  C_16 
REMARK    6  A    between atoms: C_7  and  N_8 
REMARK    7  A    between atoms: C_9  and  C_24 
REMARK    8  A    between atoms: C_9  and  C_10 
REMARK    9  A    between atoms: C_10  and  C_25 
REMARK       I    between atoms: N_13  and  C_24 
REMARK   10  A    between atoms: C_16  and  C_26 
ROOT
HETATM    1  C           1     -21.443  -6.455  -4.222  0.00  0.00     0.249 C 
HETATM    2  H           1     -20.552  -4.602  -4.458  0.00  0.00     0.163 HD
HETATM    3  N           1     -20.982  -5.383  -4.937  0.00  0.00    -0.344 N 
HETATM    4  O           1     -21.956  -7.388  -4.793  0.00  0.00    -0.271 OA
ENDROOT
BRANCH   1   5
HETATM    5  C           1     -21.310  -6.472  -2.719  0.00  0.00     0.274 C 
BRANCH   5   6
HETATM    6  C           1     -21.303  -7.913  -2.226  0.00  0.00     0.044 C 
BRANCH   6   7
HETATM    7  C           1     -21.448  -7.933  -0.710  0.00  0.00     0.030 C 
BRANCH   7   8
HETATM    8  C           1     -22.611  -8.837  -0.322  0.00  0.00     0.230 C 
BRANCH   8   9
HETATM    9  N           1     -23.531  -8.099   0.604  0.00  0.00    -0.079 N 
HETATM   10  H           1     -23.857  -8.745   1.358  0.00  0.00     0.274 HD
HETATM   11  H           1     -23.023  -7.292   1.032  0.00  0.00     0.274 HD
HETATM   12  H           1     -24.356  -7.746   0.067  0.00  0.00     0.274 HD
ENDBRANCH   8   9
ENDBRANCH   7   8
ENDBRANCH   6   7
ENDBRANCH   5   6
BRANCH   5  13
HETATM   13  N           1     -22.467  -5.741  -2.106  0.00  0.00    -0.067 N 
HETATM   14  H           1     -23.234  -6.418  -1.893  0.00  0.00     0.275 HD
HETATM   15  H           1     -22.816  -5.019  -2.776  0.00  0.00     0.275 HD
HETATM   16  H           1     -22.158  -5.276  -1.223  0.00  0.00     0.275 HD
ENDBRANCH   5  13
ENDBRANCH   1   5
BRANCH   3  17
HETATM   17  C           1     -21.110  -5.366  -6.381  0.00  0.00     0.194 C 
BRANCH  17  18
HETATM   18  C           1     -21.549  -3.980  -6.835  0.00  0.00     0.138 C 
BRANCH  18  19
HETATM   19  C           1     -22.479  -4.108  -8.016  0.00  0.00     0.217 C 
HETATM   20  N           1     -23.835  -4.129  -7.822  0.00  0.00    -0.370 N 
HETATM   21  H           1     -24.458  -4.214  -8.614  0.00  0.00     0.159 HD
HETATM   22  H           1     -24.212  -4.059  -6.885  0.00  0.00     0.159 HD
HETATM   23  O           1     -22.029  -4.191  -9.134  0.00  0.00    -0.274 OA
ENDBRANCH  18  19
ENDBRANCH  17  18
BRANCH  17  24
HETATM   24  C           1     -19.779  -5.703  -7.007  0.00  0.00     0.197 C 
HETATM   25  O           1     -19.067  -4.795  -7.489  0.00  0.00    -0.646 OA
HETATM   26  O           1     -19.388  -6.890  -7.044  0.00  0.00    -0.646 OA
ENDBRANCH  17  24
ENDBRANCH   3  17
TORSDOF 10
ENDMDL
MODEL 8
REMARK VINA RESULT:      -5.4      9.193     11.446
REMARK  10 active torsions:
REMARK  status: ('A' for Active; 'I' for Inactive)
REMARK       I    between atoms: C_1  and  N_6 
REMARK    1  A    between atoms: C_1  and  C_2 
REMARK    2  A    between atoms: C_2  and  C_26 
REMARK    3  A    between atoms: C_2  and  N_17 
REMARK    4  A    between atoms: N_6  and  C_10 
REMARK    5  A    between atoms: C_7  and  C_16 
REMARK    6  A    between atoms: C_7  and  N_8 
REMARK    7  A    between atoms: C_9  and  C_24 
REMARK    8  A    between atoms: C_9  and  C_10 
REMARK    9  A    between atoms: C_10  and  C_25 
REMARK       I    between atoms: N_13  and  C_24 
REMARK   10  A    between atoms: C_16  and  C_26 
ROOT
HETATM    1  C           1     -28.131  -6.084 -17.920  0.00  0.00     0.249 C 
HETATM    2  H           1     -27.267  -7.955 -18.108  0.00  0.00     0.163 HD
HETATM    3  N           1     -27.091  -6.958 -18.087  0.00  0.00    -0.344 N 
HETATM    4  O           1     -27.922  -4.894 -17.894  0.00  0.00    -0.271 OA
ENDROOT
BRANCH   1   5
HETATM    5  C           1     -29.539  -6.606 -17.770  0.00  0.00     0.274 C 
BRANCH   5   6
HETATM    6  C           1     -30.259  -5.820 -16.682  0.00  0.00     0.044 C 
BRANCH   6   7
HETATM    7  C           1     -31.629  -5.388 -17.188  0.00  0.00     0.030 C 
BRANCH   7   8
HETATM    8  C           1     -31.724  -3.868 -17.164  0.00  0.00     0.230 C 
BRANCH   8   9
HETATM    9  N           1     -30.635  -3.285 -18.013  0.00  0.00    -0.079 N 
HETATM   10  H           1     -30.336  -2.366 -17.614  0.00  0.00     0.274 HD
HETATM   11  H           1     -29.819  -3.938 -18.034  0.00  0.00     0.274 HD
HETATM   12  H           1     -30.990  -3.143 -18.986  0.00  0.00     0.274 HD
ENDBRANCH   8   9
ENDBRANCH   7   8
ENDBRANCH   6   7
ENDBRANCH   5   6
BRANCH   5  13
HETATM   13  N           1     -29.496  -8.057 -17.393  0.00  0.00    -0.067 N 
HETATM   14  H           1     -28.970  -8.168 -16.497  0.00  0.00     0.275 HD
HETATM   15  H           1     -29.019  -8.599 -18.148  0.00  0.00     0.275 HD
HETATM   16  H           1     -30.471  -8.414 -17.270  0.00  0.00     0.275 HD
ENDBRANCH   5  13
ENDBRANCH   1   5
BRANCH   3  17
HETATM   17  C           1     -25.739  -6.457 -18.231  0.00  0.00     0.194 C 
BRANCH  17  18
HETATM   18  C           1     -24.843  -7.108 -17.185  0.00  0.00     0.138 C 
BRANCH  18  19
HETATM   19  C           1     -25.413  -6.863 -15.810  0.00  0.00     0.217 C 
HETATM   20  N           1     -24.866  -5.902 -15.002  0.00  0.00    -0.370 N 
HETATM   21  H           1     -25.249  -5.738 -14.080  0.00  0.00     0.159 HD
HETATM   22  H           1     -24.079  -5.356 -15.328  0.00  0.00     0.159 HD
HETATM   23  O           1     -26.353  -7.515 -15.421  0.00  0.00    -0.274 OA
ENDBRANCH  18  19
ENDBRANCH  17  18
BRANCH  17  24
HETATM   24  C           1     -25.225  -6.789 -19.610  0.00  0.00     0.197 C 
HETATM   25  O           1     -25.865  -6.422 -20.620  0.00  0.00    -0.646 OA
HETATM   26  O           1     -24.160  -7.429 -19.743  0.00  0.00    -0.646 OA
ENDBRANCH  17  24
ENDBRANCH   3  17
TORSDOF 10
ENDMDL
MODEL 9
REMARK VINA RESULT:      -5.4     12.327     13.979
REMARK  10 active torsions:
REMARK  status: ('A' for Active; 'I' for Inactive)
REMARK       I    between atoms: C_1  and  N_6 
REMARK    1  A    between atoms: C_1  and  C_2 
REMARK    2  A    between atoms: C_2  and  C_26 
REMARK    3  A    between atoms: C_2  and  N_17 
REMARK    4  A    between atoms: N_6  and  C_10 
REMARK    5  A    between atoms: C_7  and  C_16 
REMARK    6  A    between atoms: C_7  and  N_8 
REMARK    7  A    between atoms: C_9  and  C_24 
REMARK    8  A    between atoms: C_9  and  C_10 
REMARK    9  A    between atoms: C_10  and  C_25 
REMARK       I    between atoms: N_13  and  C_24 
REMARK   10  A    between atoms: C_16  and  C_26 
ROOT
HETATM    1  C           1     -21.876  -4.333  -7.512  0.00  0.00     0.249 C 
HETATM    2  H           1     -23.557  -5.372  -8.124  0.00  0.00     0.163 HD
HETATM    3  N           1     -22.908  -4.632  -8.359  0.00  0.00    -0.344 N 
HETATM    4  O           1     -21.101  -3.449  -7.791  0.00  0.00    -0.271 OA
ENDROOT
BRANCH   1   5
HETATM    5  C           1     -21.705  -5.107  -6.228  0.00  0.00     0.274 C 
BRANCH   5   6
HETATM    6  C           1     -20.800  -6.307  -6.474  0.00  0.00     0.044 C 
BRANCH   6   7
HETATM    7  C           1     -21.029  -7.348  -5.386  0.00  0.00     0.030 C 
BRANCH   7   8
HETATM    8  C           1     -19.770  -8.186  -5.213  0.00  0.00     0.230 C 
BRANCH   8   9
HETATM    9  N           1     -19.704  -8.708  -3.808  0.00  0.00    -0.079 N 
HETATM   10  H           1     -19.458  -7.929  -3.158  0.00  0.00     0.274 HD
HETATM   11  H           1     -20.632  -9.107  -3.540  0.00  0.00     0.274 HD
HETATM   12  H           1     -18.975  -9.456  -3.749  0.00  0.00     0.274 HD
ENDBRANCH   8   9
ENDBRANCH   7   8
ENDBRANCH   6   7
ENDBRANCH   5   6
BRANCH   5  13
HETATM   13  N           1     -23.045  -5.581  -5.749  0.00  0.00    -0.067 N 
HETATM   14  H           1     -22.986  -5.825  -4.734  0.00  0.00     0.275 HD
HETATM   15  H           1     -23.330  -6.426  -6.294  0.00  0.00     0.275 HD
HETATM   16  H           1     -23.752  -4.824  -5.885  0.00  0.00     0.275 HD
ENDBRANCH   5  13
ENDBRANCH   1   5
BRANCH   3  17
HETATM   17  C           1     -23.073  -3.888  -9.593  0.00  0.00     0.194 C 
BRANCH  17  18
HETATM   18  C           1     -22.225  -4.525 -10.685  0.00  0.00     0.138 C 
BRANCH  18  19
HETATM   19  C           1     -21.379  -3.467 -11.349  0.00  0.00     0.217 C 
HETATM   20  N           1     -20.054  -3.704 -11.598  0.00  0.00    -0.370 N 
HETATM   21  H           1     -19.487  -2.994 -12.042  0.00  0.00     0.159 HD
HETATM   22  H           1     -19.641  -4.591 -11.336  0.00  0.00     0.159 HD
HETATM   23  O           1     -21.871  -2.408 -11.661  0.00  0.00    -0.274 OA
ENDBRANCH  18  19
ENDBRANCH  17  18
BRANCH  17  24
HETATM   24  C           1     -24.525  -3.912 -10.004  0.00  0.00     0.197 C 
HETATM   25  O           1     -24.960  -3.061 -10.810  0.00  0.00    -0.646 OA
HETATM   26  O           1     -25.291  -4.783  -9.538  0.00  0.00    -0.646 OA
ENDBRANCH  17  24
ENDBRANCH   3  17
TORSDOF 10
ENDMDL
