MODEL 1
REMARK VINA RESULT:      -6.3      0.000      0.000
REMARK  7 active torsions:
REMARK  status: ('A' for Active; 'I' for Inactive)
REMARK    1  A    between atoms: C_5  and  C_7 
REMARK    2  A    between atoms: C_7  and  C_8 
REMARK    3  A    between atoms: C_8  and  C_9 
REMARK    4  A    between atoms: C_9  and  C_10 
REMARK    5  A    between atoms: C_9  and  N_13 
REMARK       I    between atoms: N_13  and  C_14 
REMARK    6  A    between atoms: C_14  and  C_16 
REMARK    7  A    between atoms: C_16  and  N_18 
ROOT
HETATM    1  H           1     -27.102  -7.122 -18.814  0.00  0.00     0.163 HD
HETATM    2  N           1     -27.236  -6.597 -17.960  0.00  0.00    -0.345 N 
HETATM    3  C           1     -26.157  -6.247 -17.195  0.00  0.00     0.248 C 
HETATM    4  O           1     -26.317  -5.619 -16.175  0.00  0.00    -0.271 OA
ENDROOT
BRANCH   2   5
HETATM    5  C           1     -28.572  -6.215 -17.546  0.00  0.00     0.186 C 
BRANCH   5   6
HETATM    6  C           1     -29.062  -5.063 -18.413  0.00  0.00     0.046 C 
BRANCH   6   7
HETATM    7  C           1     -29.450  -3.887 -17.526  0.00  0.00     0.116 C 
BRANCH   7   8
HETATM    8  C           1     -30.949  -3.866 -17.345  0.00  0.00     0.172 C 
HETATM    9  O           1     -31.505  -4.729 -16.633  0.00  0.00    -0.648 OA
HETATM   10  O           1     -31.632  -2.985 -17.908  0.00  0.00    -0.648 OA
ENDBRANCH   7   8
ENDBRANCH   6   7
ENDBRANCH   5   6
BRANCH   5  11
HETATM   11  C           1     -29.502  -7.393 -17.701  0.00  0.00     0.196 C 
HETATM   12  O           1     -29.442  -8.347 -16.895  0.00  0.00    -0.646 OA
HETATM   13  O           1     -30.333  -7.416 -18.634  0.00  0.00    -0.646 OA
ENDBRANCH   5  11
ENDBRANCH   2   5
BRANCH   3  14
HETATM   14  C           1     -24.766  -6.644 -17.625  0.00  0.00     0.270 C 
HETATM   15  C           1     -24.793  -7.097 -19.079  0.00  0.00     0.050 C 
BRANCH  14  16
HETATM   16  N           1     -24.277  -7.768 -16.761  0.00  0.00    -0.067 N 
HETATM   17  H           1     -23.248  -7.664 -16.603  0.00  0.00     0.275 HD
HETATM   18  H           1     -24.466  -8.680 -17.235  0.00  0.00     0.275 HD
HETATM   19  H           1     -24.774  -7.743 -15.841  0.00  0.00     0.275 HD
ENDBRANCH  14  16
ENDBRANCH   3  14
TORSDOF 7
ENDMDL
MODEL 2
REMARK VINA RESULT:      -6.3      8.204     10.030
REMARK  7 active torsions:
REMARK  status: ('A' for Active; 'I' for Inactive)
REMARK    1  A    between atoms: C_5  and  C_7 
REMARK    2  A    between atoms: C_7  and  C_8 
REMARK    3  A    between atoms: C_8  and  C_9 
REMARK    4  A    between atoms: C_9  and  C_10 
REMARK    5  A    between atoms: C_9  and  N_13 
REMARK       I    between atoms: N_13  and  C_14 
REMARK    6  A    between atoms: C_14  and  C_16 
REMARK    7  A    between atoms: C_16  and  N_18 
ROOT
HETATM    1  H           1     -35.867  -2.243 -13.485  0.00  0.00     0.163 HD
HETATM    2  N           1     -35.376  -1.713 -12.778  0.00  0.00    -0.345 N 
HETATM    3  C           1     -34.372  -2.299 -12.056  0.00  0.00     0.248 C 
HETATM    4  O           1     -33.786  -1.665 -11.211  0.00  0.00    -0.271 OA
ENDROOT
BRANCH   2   5
HETATM    5  C           1     -35.738  -0.331 -12.527  0.00  0.00     0.186 C 
BRANCH   5   6
HETATM    6  C           1     -36.349   0.270 -13.787  0.00  0.00     0.046 C 
BRANCH   6   7
HETATM    7  C           1     -35.302   0.308 -14.892  0.00  0.00     0.116 C 
BRANCH   7   8
HETATM    8  C           1     -35.620  -0.747 -15.923  0.00  0.00     0.172 C 
HETATM    9  O           1     -35.144  -1.897 -15.808  0.00  0.00    -0.648 OA
HETATM   10  O           1     -36.358  -0.470 -16.893  0.00  0.00    -0.648 OA
ENDBRANCH   7   8
ENDBRANCH   6   7
ENDBRANCH   5   6
BRANCH   5  11
HETATM   11  C           1     -36.741  -0.270 -11.402  0.00  0.00     0.196 C 
HETATM   12  O           1     -37.806  -0.920 -11.478  0.00  0.00    -0.646 OA
HETATM   13  O           1     -36.509   0.432 -10.395  0.00  0.00    -0.646 OA
ENDBRANCH   5  11
ENDBRANCH   2   5
BRANCH   3  14
HETATM   14  C           1     -33.996  -3.736 -12.316  0.00  0.00     0.270 C 
HETATM   15  C           1     -32.632  -4.025 -11.702  0.00  0.00     0.050 C 
BRANCH  14  16
HETATM   16  N           1     -33.939  -3.978 -13.795  0.00  0.00    -0.067 N 
HETATM   17  H           1     -33.130  -4.604 -14.015  0.00  0.00     0.275 HD
HETATM   18  H           1     -33.819  -3.067 -14.293  0.00  0.00     0.275 HD
HETATM   19  H           1     -34.826  -4.433 -14.109  0.00  0.00     0.275 HD
ENDBRANCH  14  16
ENDBRANCH   3  14
TORSDOF 7
ENDMDL
MODEL 3
REMARK VINA RESULT:      -5.9      9.181     10.804
REMARK  7 active torsions:
REMARK  status: ('A' for Active; 'I' for Inactive)
REMARK    1  A    between atoms: C_5  and  C_7 
REMARK    2  A    between atoms: C_7  and  C_8 
REMARK    3  A    between atoms: C_8  and  C_9 
REMARK    4  A    between atoms: C_9  and  C_10 
REMARK    5  A    between atoms: C_9  and  N_13 
REMARK       I    between atoms: N_13  and  C_14 
REMARK    6  A    between atoms: C_14  and  C_16 
REMARK    7  A    between atoms: C_16  and  N_18 
ROOT
HETATM    1  H           1     -34.939  -0.527 -11.437  0.00  0.00     0.163 HD
HETATM    2  N           1     -35.059  -1.127 -12.243  0.00  0.00    -0.345 N 
HETATM    3  C           1     -34.384  -2.315 -12.319  0.00  0.00     0.248 C 
HETATM    4  O           1     -34.527  -3.030 -13.282  0.00  0.00    -0.271 OA
ENDROOT
BRANCH   2   5
HETATM    5  C           1     -35.945  -0.726 -13.318  0.00  0.00     0.186 C 
BRANCH   5   6
HETATM    6  C           1     -37.133   0.033 -12.741  0.00  0.00     0.046 C 
BRANCH   6   7
HETATM    7  C           1     -37.546  -0.599 -11.418  0.00  0.00     0.116 C 
BRANCH   7   8
HETATM    8  C           1     -37.234   0.351 -10.287  0.00  0.00     0.172 C 
HETATM    9  O           1     -36.136   0.277  -9.693  0.00  0.00    -0.648 OA
HETATM   10  O           1     -38.073   1.211  -9.944  0.00  0.00    -0.648 OA
ENDBRANCH   7   8
ENDBRANCH   6   7
ENDBRANCH   5   6
BRANCH   5  11
HETATM   11  C           1     -35.198   0.165 -14.280  0.00  0.00     0.196 C 
HETATM   12  O           1     -34.863   1.318 -13.931  0.00  0.00    -0.646 OA
HETATM   13  O           1     -34.916  -0.248 -15.425  0.00  0.00    -0.646 OA
ENDBRANCH   5  11
ENDBRANCH   2   5
BRANCH   3  14
HETATM   14  C           1     -33.461  -2.731 -11.200  0.00  0.00     0.270 C 
HETATM   15  C           1     -33.756  -4.174 -10.809  0.00  0.00     0.050 C 
BRANCH  14  16
HETATM   16  N           1     -33.678  -1.838 -10.015  0.00  0.00    -0.067 N 
HETATM   17  H           1     -33.090  -0.979 -10.115  0.00  0.00     0.275 HD
HETATM   18  H           1     -33.408  -2.346  -9.142  0.00  0.00     0.275 HD
HETATM   19  H           1     -34.685  -1.565  -9.962  0.00  0.00     0.275 HD
ENDBRANCH  14  16
ENDBRANCH   3  14
TORSDOF 7
ENDMDL
MODEL 4
REMARK VINA RESULT:      -5.7      2.691      4.693
REMARK  7 active torsions:
REMARK  status: ('A' for Active; 'I' for Inactive)
REMARK    1  A    between atoms: C_5  and  C_7 
REMARK    2  A    between atoms: C_7  and  C_8 
REMARK    3  A    between atoms: C_8  and  C_9 
REMARK    4  A    between atoms: C_9  and  C_10 
REMARK    5  A    between atoms: C_9  and  N_13 
REMARK       I    between atoms: N_13  and  C_14 
REMARK    6  A    between atoms: C_14  and  C_16 
REMARK    7  A    between atoms: C_16  and  N_18 
ROOT
HETATM    1  H           1     -30.752  -5.751 -17.019  0.00  0.00     0.163 HD
HETATM    2  N           1     -29.958  -5.795 -17.644  0.00  0.00    -0.345 N 
HETATM    3  C           1     -29.518  -4.662 -18.272  0.00  0.00     0.248 C 
HETATM    4  O           1     -28.569  -4.715 -19.018  0.00  0.00    -0.271 OA
ENDROOT
BRANCH   2   5
HETATM    5  C           1     -29.287  -7.059 -17.875  0.00  0.00     0.186 C 
BRANCH   5   6
HETATM    6  C           1     -28.952  -7.708 -16.538  0.00  0.00     0.046 C 
BRANCH   6   7
HETATM    7  C           1     -28.336  -6.670 -15.609  0.00  0.00     0.116 C 
BRANCH   7   8
HETATM    8  C           1     -26.858  -6.557 -15.890  0.00  0.00     0.172 C 
HETATM    9  O           1     -26.072  -7.430 -15.463  0.00  0.00    -0.648 OA
HETATM   10  O           1     -26.420  -5.589 -16.548  0.00  0.00    -0.648 OA
ENDBRANCH   7   8
ENDBRANCH   6   7
ENDBRANCH   5   6
BRANCH   5  11
HETATM   11  C           1     -30.191  -7.972 -18.665  0.00  0.00     0.196 C 
HETATM   12  O           1     -31.425  -7.773 -18.675  0.00  0.00    -0.646 OA
HETATM   13  O           1     -29.709  -8.928 -19.308  0.00  0.00    -0.646 OA
ENDBRANCH   5  11
ENDBRANCH   2   5
BRANCH   3  14
HETATM   14  C           1     -30.216  -3.346 -18.032  0.00  0.00     0.270 C 
HETATM   15  C           1     -29.317  -2.437 -17.204  0.00  0.00     0.050 C 
BRANCH  14  16
HETATM   16  N           1     -31.498  -3.589 -17.292  0.00  0.00    -0.067 N 
HETATM   17  H           1     -31.366  -4.376 -16.616  0.00  0.00     0.275 HD
HETATM   18  H           1     -32.252  -3.836 -17.972  0.00  0.00     0.275 HD
HETATM   19  H           1     -31.769  -2.724 -16.770  0.00  0.00     0.275 HD
ENDBRANCH  14  16
ENDBRANCH   3  14
TORSDOF 7
ENDMDL
MODEL 5
REMARK VINA RESULT:      -5.6     10.433     12.264
REMARK  7 active torsions:
REMARK  status: ('A' for Active; 'I' for Inactive)
REMARK    1  A    between atoms: C_5  and  C_7 
REMARK    2  A    between atoms: C_7  and  C_8 
REMARK    3  A    between atoms: C_8  and  C_9 
REMARK    4  A    between atoms: C_9  and  C_10 
REMARK    5  A    between atoms: C_9  and  N_13 
REMARK       I    between atoms: N_13  and  C_14 
REMARK    6  A    between atoms: C_14  and  C_16 
REMARK    7  A    between atoms: C_16  and  N_18 
ROOT
HETATM    1  H           1     -21.328  -4.116  -6.141  0.00  0.00     0.163 HD
HETATM    2  N           1     -21.352  -4.947  -6.718  0.00  0.00    -0.345 N 
HETATM    3  C           1     -21.229  -6.183  -6.144  0.00  0.00     0.248 C 
HETATM    4  O           1     -21.257  -7.174  -6.834  0.00  0.00    -0.271 OA
ENDROOT
BRANCH   2   5
HETATM    5  C           1     -21.516  -4.827  -8.154  0.00  0.00     0.186 C 
BRANCH   5   6
HETATM    6  C           1     -22.480  -3.688  -8.461  0.00  0.00     0.046 C 
BRANCH   6   7
HETATM    7  C           1     -23.786  -4.258  -8.997  0.00  0.00     0.116 C 
BRANCH   7   8
HETATM    8  C           1     -24.001  -3.780 -10.413  0.00  0.00     0.172 C 
HETATM    9  O           1     -23.128  -3.989 -11.283  0.00  0.00    -0.648 OA
HETATM   10  O           1     -25.052  -3.176 -10.714  0.00  0.00    -0.648 OA
ENDBRANCH   7   8
ENDBRANCH   6   7
ENDBRANCH   5   6
BRANCH   5  11
HETATM   11  C           1     -20.178  -4.540  -8.790  0.00  0.00     0.196 C 
HETATM   12  O           1     -19.254  -4.050  -8.107  0.00  0.00    -0.646 OA
HETATM   13  O           1     -19.995  -4.791 -10.000  0.00  0.00    -0.646 OA
ENDBRANCH   5  11
ENDBRANCH   2   5
BRANCH   3  14
HETATM   14  C           1     -21.059  -6.308  -4.650  0.00  0.00     0.270 C 
HETATM   15  C           1     -20.476  -7.675  -4.317  0.00  0.00     0.050 C 
BRANCH  14  16
HETATM   16  N           1     -22.392  -6.156  -3.981  0.00  0.00    -0.067 N 
HETATM   17  H           1     -22.465  -6.840  -3.193  0.00  0.00     0.275 HD
HETATM   18  H           1     -23.153  -6.340  -4.673  0.00  0.00     0.275 HD
HETATM   19  H           1     -22.487  -5.184  -3.608  0.00  0.00     0.275 HD
ENDBRANCH  14  16
ENDBRANCH   3  14
TORSDOF 7
ENDMDL
MODEL 6
REMARK VINA RESULT:      -5.5      9.025     11.259
REMARK  7 active torsions:
REMARK  status: ('A' for Active; 'I' for Inactive)
REMARK    1  A    between atoms: C_5  and  C_7 
REMARK    2  A    between atoms: C_7  and  C_8 
REMARK    3  A    between atoms: C_8  and  C_9 
REMARK    4  A    between atoms: C_9  and  C_10 
REMARK    5  A    between atoms: C_9  and  N_13 
REMARK       I    between atoms: N_13  and  C_14 
REMARK    6  A    between atoms: C_14  and  C_16 
REMARK    7  A    between atoms: C_16  and  N_18 
ROOT
HETATM    1  H           1     -34.049  -1.456 -11.576  0.00  0.00     0.163 HD
HETATM    2  N           1     -34.953  -1.899 -11.487  0.00  0.00    -0.345 N 
HETATM    3  C           1     -35.044  -3.184 -11.023  0.00  0.00     0.248 C 
HETATM    4  O           1     -36.124  -3.713 -10.918  0.00  0.00    -0.271 OA
ENDROOT
BRANCH   2   5
HETATM    5  C           1     -36.155  -1.175 -11.854  0.00  0.00     0.186 C 
BRANCH   5   6
HETATM    6  C           1     -36.405  -0.062 -10.844  0.00  0.00     0.046 C 
BRANCH   6   7
HETATM    7  C           1     -37.406  -0.539  -9.801  0.00  0.00     0.116 C 
BRANCH   7   8
HETATM    8  C           1     -36.993  -0.035  -8.439  0.00  0.00     0.172 C 
HETATM    9  O           1     -35.800   0.267  -8.220  0.00  0.00    -0.648 OA
HETATM   10  O           1     -37.843   0.079  -7.531  0.00  0.00    -0.648 OA
ENDBRANCH   7   8
ENDBRANCH   6   7
ENDBRANCH   5   6
BRANCH   5  11
HETATM   11  C           1     -35.982  -0.578 -13.229  0.00  0.00     0.196 C 
HETATM   12  O           1     -34.925  -0.775 -13.867  0.00  0.00    -0.646 OA
HETATM   13  O           1     -36.894   0.114 -13.729  0.00  0.00    -0.646 OA
ENDBRANCH   5  11
ENDBRANCH   2   5
BRANCH   3  14
HETATM   14  C           1     -33.793  -3.937 -10.641  0.00  0.00     0.270 C 
HETATM   15  C           1     -32.800  -3.892 -11.795  0.00  0.00     0.050 C 
BRANCH  14  16
HETATM   16  N           1     -34.143  -5.364 -10.339  0.00  0.00    -0.067 N 
HETATM   17  H           1     -33.363  -5.807  -9.800  0.00  0.00     0.275 HD
HETATM   18  H           1     -34.287  -5.885 -11.234  0.00  0.00     0.275 HD
HETATM   19  H           1     -35.020  -5.396  -9.772  0.00  0.00     0.275 HD
ENDBRANCH  14  16
ENDBRANCH   3  14
TORSDOF 7
ENDMDL
MODEL 7
REMARK VINA RESULT:      -5.5      2.521      5.439
REMARK  7 active torsions:
REMARK  status: ('A' for Active; 'I' for Inactive)
REMARK    1  A    between atoms: C_5  and  C_7 
REMARK    2  A    between atoms: C_7  and  C_8 
REMARK    3  A    between atoms: C_8  and  C_9 
REMARK    4  A    between atoms: C_9  and  C_10 
REMARK    5  A    between atoms: C_9  and  N_13 
REMARK       I    between atoms: N_13  and  C_14 
REMARK    6  A    between atoms: C_14  and  C_16 
REMARK    7  A    between atoms: C_16  and  N_18 
ROOT
HETATM    1  H           1     -27.706  -4.762 -17.893  0.00  0.00     0.163 HD
HETATM    2  N           1     -27.909  -5.728 -17.674  0.00  0.00    -0.345 N 
HETATM    3  C           1     -29.195  -6.115 -17.412  0.00  0.00     0.248 C 
HETATM    4  O           1     -29.437  -7.270 -17.150  0.00  0.00    -0.271 OA
ENDROOT
BRANCH   2   5
HETATM    5  C           1     -26.836  -6.703 -17.635  0.00  0.00     0.186 C 
BRANCH   5   6
HETATM    6  C           1     -25.860  -6.428 -18.772  0.00  0.00     0.046 C 
BRANCH   6   7
HETATM    7  C           1     -26.565  -6.629 -20.107  0.00  0.00     0.116 C 
BRANCH   7   8
HETATM    8  C           1     -25.947  -7.800 -20.832  0.00  0.00     0.172 C 
HETATM    9  O           1     -26.677  -8.641 -21.399  0.00  0.00    -0.648 OA
HETATM   10  O           1     -24.704  -7.927 -20.866  0.00  0.00    -0.648 OA
ENDBRANCH   7   8
ENDBRANCH   6   7
ENDBRANCH   5   6
BRANCH   5  11
HETATM   11  C           1     -26.112  -6.603 -16.316  0.00  0.00     0.196 C 
HETATM   12  O           1     -26.355  -7.426 -15.406  0.00  0.00    -0.646 OA
HETATM   13  O           1     -25.270  -5.699 -16.130  0.00  0.00    -0.646 OA
ENDBRANCH   5  11
ENDBRANCH   2   5
BRANCH   3  14
HETATM   14  C           1     -30.311  -5.101 -17.451  0.00  0.00     0.270 C 
HETATM   15  C           1     -29.722  -3.700 -17.555  0.00  0.00     0.050 C 
BRANCH  14  16
HETATM   16  N           1     -31.128  -5.208 -16.198  0.00  0.00    -0.067 N 
HETATM   17  H           1     -31.971  -4.594 -16.279  0.00  0.00     0.275 HD
HETATM   18  H           1     -30.553  -4.904 -15.380  0.00  0.00     0.275 HD
HETATM   19  H           1     -31.432  -6.199 -16.062  0.00  0.00     0.275 HD
ENDBRANCH  14  16
ENDBRANCH   3  14
TORSDOF 7
ENDMDL
MODEL 8
REMARK VINA RESULT:      -5.4      8.435      9.978
REMARK  7 active torsions:
REMARK  status: ('A' for Active; 'I' for Inactive)
REMARK    1  A    between atoms: C_5  and  C_7 
REMARK    2  A    between atoms: C_7  and  C_8 
REMARK    3  A    between atoms: C_8  and  C_9 
REMARK    4  A    between atoms: C_9  and  C_10 
REMARK    5  A    between atoms: C_9  and  N_13 
REMARK       I    between atoms: N_13  and  C_14 
REMARK    6  A    between atoms: C_14  and  C_16 
REMARK    7  A    between atoms: C_16  and  N_18 
ROOT
HETATM    1  H           1     -33.484  -2.680 -13.445  0.00  0.00     0.163 HD
HETATM    2  N           1     -34.384  -2.631 -12.987  0.00  0.00    -0.345 N 
HETATM    3  C           1     -34.787  -3.644 -12.160  0.00  0.00     0.248 C 
HETATM    4  O           1     -35.863  -3.585 -11.613  0.00  0.00    -0.271 OA
ENDROOT
BRANCH   2   5
HETATM    5  C           1     -35.249  -1.489 -13.209  0.00  0.00     0.186 C 
BRANCH   5   6
HETATM    6  C           1     -34.873  -0.373 -12.242  0.00  0.00     0.046 C 
BRANCH   6   7
HETATM    7  C           1     -36.137   0.320 -11.750  0.00  0.00     0.116 C 
BRANCH   7   8
HETATM    8  C           1     -36.765  -0.500 -10.650  0.00  0.00     0.172 C 
HETATM    9  O           1     -36.165  -0.655  -9.564  0.00  0.00    -0.648 OA
HETATM   10  O           1     -37.886  -1.024 -10.824  0.00  0.00    -0.648 OA
ENDBRANCH   7   8
ENDBRANCH   6   7
ENDBRANCH   5   6
BRANCH   5  11
HETATM   11  C           1     -35.086  -1.001 -14.627  0.00  0.00     0.196 C 
HETATM   12  O           1     -35.342  -1.765 -15.583  0.00  0.00    -0.646 OA
HETATM   13  O           1     -34.694   0.164 -14.847  0.00  0.00    -0.646 OA
ENDBRANCH   5  11
ENDBRANCH   2   5
BRANCH   3  14
HETATM   14  C           1     -33.888  -4.833 -11.930  0.00  0.00     0.270 C 
HETATM   15  C           1     -34.034  -5.311 -10.491  0.00  0.00     0.050 C 
BRANCH  14  16
HETATM   16  N           1     -32.463  -4.439 -12.183  0.00  0.00    -0.067 N 
HETATM   17  H           1     -32.113  -3.866 -11.381  0.00  0.00     0.275 HD
HETATM   18  H           1     -32.407  -3.878 -13.062  0.00  0.00     0.275 HD
HETATM   19  H           1     -31.875  -5.298 -12.279  0.00  0.00     0.275 HD
ENDBRANCH  14  16
ENDBRANCH   3  14
TORSDOF 7
ENDMDL
MODEL 9
REMARK VINA RESULT:      -5.3      2.608      5.566
REMARK  7 active torsions:
REMARK  status: ('A' for Active; 'I' for Inactive)
REMARK    1  A    between atoms: C_5  and  C_7 
REMARK    2  A    between atoms: C_7  and  C_8 
REMARK    3  A    between atoms: C_8  and  C_9 
REMARK    4  A    between atoms: C_9  and  C_10 
REMARK    5  A    between atoms: C_9  and  N_13 
REMARK       I    between atoms: N_13  and  C_14 
REMARK    6  A    between atoms: C_14  and  C_16 
REMARK    7  A    between atoms: C_16  and  N_18 
ROOT
HETATM    1  H           1     -30.636  -6.065 -17.067  0.00  0.00     0.163 HD
HETATM    2  N           1     -30.252  -5.155 -17.284  0.00  0.00    -0.345 N 
HETATM    3  C           1     -31.037  -4.039 -17.181  0.00  0.00     0.248 C 
HETATM    4  O           1     -30.578  -2.952 -17.440  0.00  0.00    -0.271 OA
ENDROOT
BRANCH   2   5
HETATM    5  C           1     -28.871  -5.033 -17.707  0.00  0.00     0.186 C 
BRANCH   5   6
HETATM    6  C           1     -27.962  -5.061 -16.485  0.00  0.00     0.046 C 
BRANCH   6   7
HETATM    7  C           1     -26.755  -5.946 -16.768  0.00  0.00     0.116 C 
BRANCH   7   8
HETATM    8  C           1     -26.641  -7.000 -15.694  0.00  0.00     0.172 C 
HETATM    9  O           1     -25.516  -7.431 -15.358  0.00  0.00    -0.648 OA
HETATM   10  O           1     -27.670  -7.442 -15.140  0.00  0.00    -0.648 OA
ENDBRANCH   7   8
ENDBRANCH   6   7
ENDBRANCH   5   6
BRANCH   5  11
HETATM   11  C           1     -28.521  -6.181 -18.621  0.00  0.00     0.196 C 
HETATM   12  O           1     -29.125  -7.270 -18.514  0.00  0.00    -0.646 OA
HETATM   13  O           1     -27.627  -6.044 -19.483  0.00  0.00    -0.646 OA
ENDBRANCH   5  11
ENDBRANCH   2   5
BRANCH   3  14
HETATM   14  C           1     -32.475  -4.165 -16.741  0.00  0.00     0.270 C 
HETATM   15  C           1     -32.947  -5.598 -16.952  0.00  0.00     0.050 C 
BRANCH  14  16
HETATM   16  N           1     -33.329  -3.234 -17.549  0.00  0.00    -0.067 N 
HETATM   17  H           1     -33.813  -3.772 -18.304  0.00  0.00     0.275 HD
HETATM   18  H           1     -32.728  -2.495 -17.979  0.00  0.00     0.275 HD
HETATM   19  H           1     -34.042  -2.787 -16.929  0.00  0.00     0.275 HD
ENDBRANCH  14  16
ENDBRANCH   3  14
TORSDOF 7
ENDMDL
