MODEL 1
REMARK VINA RESULT:      -6.6      0.000      0.000
REMARK  8 active torsions:
REMARK  status: ('A' for Active; 'I' for Inactive)
REMARK    1  A    between atoms: C_2  and  S_23 
REMARK    2  A    between atoms: C_2  and  C_12 
REMARK    3  A    between atoms: C_3  and  C_12 
REMARK    4  A    between atoms: N_4  and  C_12 
REMARK       I    between atoms: N_4  and  C_5 
REMARK    5  A    between atoms: C_5  and  C_11 
REMARK    6  A    between atoms: C_11  and  C_22 
REMARK    7  A    between atoms: C_11  and  N_16 
REMARK    8  A    between atoms: C_21  and  C_22 
ROOT
HETATM    1  C           1     -35.966  -0.548 -11.381  0.00  0.00     0.278 C 
ENDROOT
BRANCH   1   2
HETATM    2  C           1     -36.765  -0.535 -12.660  0.00  0.00     0.249 C 
HETATM    3  N           1     -36.124  -0.447 -13.866  0.00  0.00    -0.344 N 
HETATM    4  H           1     -35.114  -0.392 -13.900  0.00  0.00     0.163 HD
HETATM    5  O           1     -37.970  -0.602 -12.621  0.00  0.00    -0.271 OA
BRANCH   3   6
HETATM    6  C           1     -36.892  -0.435 -15.097  0.00  0.00     0.194 C 
BRANCH   6   7
HETATM    7  C           1     -37.177   1.005 -15.504  0.00  0.00     0.106 C 
BRANCH   7   8
HETATM    8  S           1     -35.625   1.948 -15.519  0.00  0.00    -0.180 SA
HETATM    9  H           1     -34.872   0.968 -16.050  0.00  0.00     0.101 HD
ENDBRANCH   7   8
ENDBRANCH   6   7
BRANCH   6  10
HETATM   10  C           1     -36.105  -1.120 -16.187  0.00  0.00     0.197 C 
HETATM   11  O           1     -36.429  -0.964 -17.384  0.00  0.00    -0.646 OA
HETATM   12  O           1     -35.128  -1.841 -15.893  0.00  0.00    -0.646 OA
ENDBRANCH   6  10
ENDBRANCH   3   6
ENDBRANCH   1   2
BRANCH   1  13
HETATM   13  C           1     -36.246  -1.836 -10.618  0.00  0.00     0.081 C 
BRANCH  13  14
HETATM   14  C           1     -35.166  -2.831 -10.904  0.00  0.00    -0.056 A 
HETATM   15  C           1     -33.868  -2.395 -11.171  0.00  0.00     0.007 A 
HETATM   16  C           1     -32.861  -3.322 -11.438  0.00  0.00     0.001 A 
HETATM   17  C           1     -33.152  -4.687 -11.437  0.00  0.00     0.000 A 
HETATM   18  C           1     -34.449  -5.123 -11.170  0.00  0.00     0.001 A 
HETATM   19  C           1     -35.456  -4.195 -10.903  0.00  0.00     0.007 A 
ENDBRANCH  13  14
ENDBRANCH   1  13
BRANCH   1  20
HETATM   20  N           1     -36.358   0.628 -10.535  0.00  0.00    -0.066 N 
HETATM   21  H           1     -35.750   0.666  -9.687  0.00  0.00     0.275 HD
HETATM   22  H           1     -36.243   1.508 -11.088  0.00  0.00     0.275 HD
HETATM   23  H           1     -37.357   0.530 -10.245  0.00  0.00     0.275 HD
ENDBRANCH   1  20
TORSDOF 8
ENDMDL
MODEL 2
REMARK VINA RESULT:      -6.5     13.882     15.748
REMARK  8 active torsions:
REMARK  status: ('A' for Active; 'I' for Inactive)
REMARK    1  A    between atoms: C_2  and  S_23 
REMARK    2  A    between atoms: C_2  and  C_12 
REMARK    3  A    between atoms: C_3  and  C_12 
REMARK    4  A    between atoms: N_4  and  C_12 
REMARK       I    between atoms: N_4  and  C_5 
REMARK    5  A    between atoms: C_5  and  C_11 
REMARK    6  A    between atoms: C_11  and  C_22 
REMARK    7  A    between atoms: C_11  and  N_16 
REMARK    8  A    between atoms: C_21  and  C_22 
ROOT
HETATM    1  C           1     -21.075  -5.715  -6.768  0.00  0.00     0.278 C 
ENDROOT
BRANCH   1   2
HETATM    2  C           1     -21.630  -4.535  -7.527  0.00  0.00     0.249 C 
HETATM    3  N           1     -22.261  -4.728  -8.726  0.00  0.00    -0.344 N 
HETATM    4  H           1     -22.356  -5.661  -9.103  0.00  0.00     0.163 HD
HETATM    5  O           1     -21.516  -3.420  -7.077  0.00  0.00    -0.271 OA
BRANCH   3   6
HETATM    6  C           1     -22.794  -3.593  -9.456  0.00  0.00     0.194 C 
BRANCH   6   7
HETATM    7  C           1     -22.101  -3.486 -10.807  0.00  0.00     0.106 C 
BRANCH   7   8
HETATM    8  S           1     -20.488  -4.315 -10.727  0.00  0.00    -0.180 SA
HETATM    9  H           1     -20.159  -3.864  -9.504  0.00  0.00     0.101 HD
ENDBRANCH   7   8
ENDBRANCH   6   7
BRANCH   6  10
HETATM   10  C           1     -24.277  -3.782  -9.664  0.00  0.00     0.197 C 
HETATM   11  O           1     -24.729  -4.912  -9.945  0.00  0.00    -0.646 OA
HETATM   12  O           1     -25.052  -2.808  -9.555  0.00  0.00    -0.646 OA
ENDBRANCH   6  10
ENDBRANCH   3   6
ENDBRANCH   1   2
BRANCH   1  13
HETATM   13  C           1     -20.745  -5.294  -5.342  0.00  0.00     0.081 C 
BRANCH  13  14
HETATM   14  C           1     -21.082  -6.408  -4.402  0.00  0.00    -0.056 A 
HETATM   15  C           1     -21.287  -6.141  -3.048  0.00  0.00     0.007 A 
HETATM   16  C           1     -21.602  -7.179  -2.171  0.00  0.00     0.001 A 
HETATM   17  C           1     -21.712  -8.485  -2.648  0.00  0.00     0.000 A 
HETATM   18  C           1     -21.508  -8.753  -4.002  0.00  0.00     0.001 A 
HETATM   19  C           1     -21.193  -7.714  -4.878  0.00  0.00     0.007 A 
ENDBRANCH  13  14
ENDBRANCH   1  13
BRANCH   1  20
HETATM   20  N           1     -19.828  -6.203  -7.446  0.00  0.00    -0.066 N 
HETATM   21  H           1     -19.747  -7.237  -7.324  0.00  0.00     0.275 HD
HETATM   22  H           1     -19.872  -5.973  -8.464  0.00  0.00     0.275 HD
HETATM   23  H           1     -18.996  -5.735  -7.020  0.00  0.00     0.275 HD
ENDBRANCH   1  20
TORSDOF 8
ENDMDL
MODEL 3
REMARK VINA RESULT:      -6.4     15.043     17.265
REMARK  8 active torsions:
REMARK  status: ('A' for Active; 'I' for Inactive)
REMARK    1  A    between atoms: C_2  and  S_23 
REMARK    2  A    between atoms: C_2  and  C_12 
REMARK    3  A    between atoms: C_3  and  C_12 
REMARK    4  A    between atoms: N_4  and  C_12 
REMARK       I    between atoms: N_4  and  C_5 
REMARK    5  A    between atoms: C_5  and  C_11 
REMARK    6  A    between atoms: C_11  and  C_22 
REMARK    7  A    between atoms: C_11  and  N_16 
REMARK    8  A    between atoms: C_21  and  C_22 
ROOT
HETATM    1  C           1     -22.283  -5.172  -6.849  0.00  0.00     0.278 C 
ENDROOT
BRANCH   1   2
HETATM    2  C           1     -21.377  -5.646  -5.740  0.00  0.00     0.249 C 
HETATM    3  N           1     -21.510  -6.915  -5.244  0.00  0.00    -0.344 N 
HETATM    4  H           1     -22.214  -7.535  -5.621  0.00  0.00     0.163 HD
HETATM    5  O           1     -20.537  -4.905  -5.289  0.00  0.00    -0.271 OA
BRANCH   3   6
HETATM    6  C           1     -20.639  -7.370  -4.176  0.00  0.00     0.194 C 
BRANCH   6   7
HETATM    7  C           1     -21.480  -7.793  -2.980  0.00  0.00     0.106 C 
BRANCH   7   8
HETATM    8  S           1     -22.022  -6.319  -2.069  0.00  0.00    -0.180 SA
HETATM    9  H           1     -21.699  -6.782  -0.848  0.00  0.00     0.101 HD
ENDBRANCH   7   8
ENDBRANCH   6   7
BRANCH   6  10
HETATM   10  C           1     -19.826  -8.546  -4.660  0.00  0.00     0.197 C 
HETATM   11  O           1     -20.142  -9.133  -5.716  0.00  0.00    -0.646 OA
HETATM   12  O           1     -18.834  -8.931  -4.004  0.00  0.00    -0.646 OA
ENDBRANCH   6  10
ENDBRANCH   3   6
ENDBRANCH   1   2
BRANCH   1  13
HETATM   13  C           1     -21.713  -3.900  -7.464  0.00  0.00     0.081 C 
BRANCH  13  14
HETATM   14  C           1     -21.667  -4.041  -8.953  0.00  0.00    -0.056 A 
HETATM   15  C           1     -20.444  -4.000  -9.620  0.00  0.00     0.007 A 
HETATM   16  C           1     -20.401  -4.132 -11.008  0.00  0.00     0.001 A 
HETATM   17  C           1     -21.583  -4.305 -11.729  0.00  0.00     0.000 A 
HETATM   18  C           1     -22.807  -4.347 -11.061  0.00  0.00     0.001 A 
HETATM   19  C           1     -22.849  -4.215  -9.674  0.00  0.00     0.007 A 
ENDBRANCH  13  14
ENDBRANCH   1  13
BRANCH   1  20
HETATM   20  N           1     -23.648  -4.889  -6.294  0.00  0.00    -0.066 N 
HETATM   21  H           1     -24.199  -4.336  -6.988  0.00  0.00     0.275 HD
HETATM   22  H           1     -24.138  -5.791  -6.098  0.00  0.00     0.275 HD
HETATM   23  H           1     -23.556  -4.344  -5.406  0.00  0.00     0.275 HD
ENDBRANCH   1  20
TORSDOF 8
ENDMDL
MODEL 4
REMARK VINA RESULT:      -6.2     15.396     17.726
REMARK  8 active torsions:
REMARK  status: ('A' for Active; 'I' for Inactive)
REMARK    1  A    between atoms: C_2  and  S_23 
REMARK    2  A    between atoms: C_2  and  C_12 
REMARK    3  A    between atoms: C_3  and  C_12 
REMARK    4  A    between atoms: N_4  and  C_12 
REMARK       I    between atoms: N_4  and  C_5 
REMARK    5  A    between atoms: C_5  and  C_11 
REMARK    6  A    between atoms: C_11  and  C_22 
REMARK    7  A    between atoms: C_11  and  N_16 
REMARK    8  A    between atoms: C_21  and  C_22 
ROOT
HETATM    1  C           1     -21.068  -5.042  -6.189  0.00  0.00     0.278 C 
ENDROOT
BRANCH   1   2
HETATM    2  C           1     -21.721  -6.024  -5.249  0.00  0.00     0.249 C 
HETATM    3  N           1     -20.949  -6.833  -4.459  0.00  0.00    -0.344 N 
HETATM    4  H           1     -19.941  -6.771  -4.506  0.00  0.00     0.163 HD
HETATM    5  O           1     -22.926  -6.098  -5.194  0.00  0.00    -0.271 OA
BRANCH   3   6
HETATM    6  C           1     -21.577  -7.778  -3.556  0.00  0.00     0.194 C 
BRANCH   6   7
HETATM    7  C           1     -20.887  -9.130  -3.673  0.00  0.00     0.106 C 
BRANCH   7   8
HETATM    8  S           1     -19.382  -8.956  -4.674  0.00  0.00    -0.180 SA
HETATM    9  H           1     -18.734  -8.150  -3.815  0.00  0.00     0.101 HD
ENDBRANCH   7   8
ENDBRANCH   6   7
BRANCH   6  10
HETATM   10  C           1     -21.457  -7.273  -2.139  0.00  0.00     0.197 C 
HETATM   11  O           1     -22.209  -6.360  -1.734  0.00  0.00    -0.646 OA
HETATM   12  O           1     -20.606  -7.769  -1.369  0.00  0.00    -0.646 OA
ENDBRANCH   6  10
ENDBRANCH   3   6
ENDBRANCH   1   2
BRANCH   1  13
HETATM   13  C           1     -20.665  -5.757  -7.472  0.00  0.00     0.081 C 
BRANCH  13  14
HETATM   14  C           1     -21.085  -4.939  -8.653  0.00  0.00    -0.056 A 
HETATM   15  C           1     -20.169  -4.655  -9.666  0.00  0.00     0.007 A 
HETATM   16  C           1     -20.559  -3.893 -10.767  0.00  0.00     0.001 A 
HETATM   17  C           1     -21.868  -3.415 -10.856  0.00  0.00     0.000 A 
HETATM   18  C           1     -22.784  -3.701  -9.844  0.00  0.00     0.001 A 
HETATM   19  C           1     -22.392  -4.463  -8.743  0.00  0.00     0.007 A 
ENDBRANCH  13  14
ENDBRANCH   1  13
BRANCH   1  20
HETATM   20  N           1     -19.848  -4.461  -5.537  0.00  0.00    -0.066 N 
HETATM   21  H           1     -19.920  -3.419  -5.530  0.00  0.00     0.275 HD
HETATM   22  H           1     -19.777  -4.813  -4.555  0.00  0.00     0.275 HD
HETATM   23  H           1     -18.997  -4.750  -6.071  0.00  0.00     0.275 HD
ENDBRANCH   1  20
TORSDOF 8
ENDMDL
MODEL 5
REMARK VINA RESULT:      -6.1      2.264      3.160
REMARK  8 active torsions:
REMARK  status: ('A' for Active; 'I' for Inactive)
REMARK    1  A    between atoms: C_2  and  S_23 
REMARK    2  A    between atoms: C_2  and  C_12 
REMARK    3  A    between atoms: C_3  and  C_12 
REMARK    4  A    between atoms: N_4  and  C_12 
REMARK       I    between atoms: N_4  and  C_5 
REMARK    5  A    between atoms: C_5  and  C_11 
REMARK    6  A    between atoms: C_11  and  C_22 
REMARK    7  A    between atoms: C_11  and  N_16 
REMARK    8  A    between atoms: C_21  and  C_22 
ROOT
HETATM    1  C           1     -34.156  -2.943 -11.368  0.00  0.00     0.278 C 
ENDROOT
BRANCH   1   2
HETATM    2  C           1     -34.665  -2.360 -12.664  0.00  0.00     0.249 C 
HETATM    3  N           1     -35.325  -1.161 -12.661  0.00  0.00    -0.344 N 
HETATM    4  H           1     -35.471  -0.665 -11.792  0.00  0.00     0.163 HD
HETATM    5  O           1     -34.490  -2.951 -13.702  0.00  0.00    -0.271 OA
BRANCH   3   6
HETATM    6  C           1     -35.815  -0.600 -13.907  0.00  0.00     0.194 C 
BRANCH   6   7
HETATM    7  C           1     -37.223  -0.059 -13.701  0.00  0.00     0.106 C 
BRANCH   7   8
HETATM    8  S           1     -38.041   0.128 -15.312  0.00  0.00    -0.180 SA
HETATM    9  H           1     -37.972  -1.171 -15.655  0.00  0.00     0.101 HD
ENDBRANCH   7   8
ENDBRANCH   6   7
BRANCH   6  10
HETATM   10  C           1     -34.904   0.520 -14.344  0.00  0.00     0.197 C 
HETATM   11  O           1     -34.781   1.540 -13.633  0.00  0.00    -0.646 OA
HETATM   12  O           1     -34.272   0.428 -15.418  0.00  0.00    -0.646 OA
ENDBRANCH   6  10
ENDBRANCH   3   6
ENDBRANCH   1   2
BRANCH   1  13
HETATM   13  C           1     -35.232  -3.828 -10.752  0.00  0.00     0.081 C 
BRANCH  13  14
HETATM   14  C           1     -34.693  -5.211 -10.562  0.00  0.00    -0.056 A 
HETATM   15  C           1     -35.416  -6.145  -9.820  0.00  0.00     0.007 A 
HETATM   16  C           1     -34.914  -7.435  -9.643  0.00  0.00     0.001 A 
HETATM   17  C           1     -33.688  -7.790 -10.208  0.00  0.00     0.000 A 
HETATM   18  C           1     -32.966  -6.856 -10.950  0.00  0.00     0.001 A 
HETATM   19  C           1     -33.468  -5.567 -11.127  0.00  0.00     0.007 A 
ENDBRANCH  13  14
ENDBRANCH   1  13
BRANCH   1  20
HETATM   20  N           1     -33.819  -1.832 -10.418  0.00  0.00    -0.066 N 
HETATM   21  H           1     -34.264  -0.946 -10.747  0.00  0.00     0.275 HD
HETATM   22  H           1     -34.175  -2.069  -9.465  0.00  0.00     0.275 HD
HETATM   23  H           1     -32.782  -1.709 -10.381  0.00  0.00     0.275 HD
ENDBRANCH   1  20
TORSDOF 8
ENDMDL
MODEL 6
REMARK VINA RESULT:      -6.0      1.518      2.236
REMARK  8 active torsions:
REMARK  status: ('A' for Active; 'I' for Inactive)
REMARK    1  A    between atoms: C_2  and  S_23 
REMARK    2  A    between atoms: C_2  and  C_12 
REMARK    3  A    between atoms: C_3  and  C_12 
REMARK    4  A    between atoms: N_4  and  C_12 
REMARK       I    between atoms: N_4  and  C_5 
REMARK    5  A    between atoms: C_5  and  C_11 
REMARK    6  A    between atoms: C_11  and  C_22 
REMARK    7  A    between atoms: C_11  and  N_16 
REMARK    8  A    between atoms: C_21  and  C_22 
ROOT
HETATM    1  C           1     -34.641  -2.283 -11.911  0.00  0.00     0.278 C 
ENDROOT
BRANCH   1   2
HETATM    2  C           1     -35.529  -1.529 -12.870  0.00  0.00     0.249 C 
HETATM    3  N           1     -35.038  -1.119 -14.079  0.00  0.00    -0.344 N 
HETATM    4  H           1     -34.080  -1.322 -14.331  0.00  0.00     0.163 HD
HETATM    5  O           1     -36.674  -1.287 -12.569  0.00  0.00    -0.271 OA
BRANCH   3   6
HETATM    6  C           1     -35.892  -0.393 -15.001  0.00  0.00     0.194 C 
BRANCH   6   7
HETATM    7  C           1     -35.429   1.054 -15.091  0.00  0.00     0.106 C 
BRANCH   7   8
HETATM    8  S           1     -34.523   1.495 -13.581  0.00  0.00    -0.180 SA
HETATM    9  H           1     -34.827   2.805 -13.612  0.00  0.00     0.101 HD
ENDBRANCH   7   8
ENDBRANCH   6   7
BRANCH   6  10
HETATM   10  C           1     -35.814  -1.032 -16.366  0.00  0.00     0.197 C 
HETATM   11  O           1     -34.824  -1.728 -16.674  0.00  0.00    -0.646 OA
HETATM   12  O           1     -36.742  -0.867 -17.187  0.00  0.00    -0.646 OA
ENDBRANCH   6  10
ENDBRANCH   3   6
ENDBRANCH   1   2
BRANCH   1  13
HETATM   13  C           1     -35.493  -3.196 -11.038  0.00  0.00     0.081 C 
BRANCH  13  14
HETATM   14  C           1     -34.806  -4.516 -10.877  0.00  0.00    -0.056 A 
HETATM   15  C           1     -35.444  -5.555 -10.200  0.00  0.00     0.007 A 
HETATM   16  C           1     -34.805  -6.786 -10.049  0.00  0.00     0.001 A 
HETATM   17  C           1     -33.526  -6.977 -10.576  0.00  0.00     0.000 A 
HETATM   18  C           1     -32.889  -5.937 -11.253  0.00  0.00     0.001 A 
HETATM   19  C           1     -33.529  -4.707 -11.403  0.00  0.00     0.007 A 
ENDBRANCH  13  14
ENDBRANCH   1  13
BRANCH   1  20
HETATM   20  N           1     -33.903  -1.308 -11.042  0.00  0.00    -0.066 N 
HETATM   21  H           1     -32.954  -1.134 -11.442  0.00  0.00     0.275 HD
HETATM   22  H           1     -34.434  -0.408 -10.999  0.00  0.00     0.275 HD
HETATM   23  H           1     -33.810  -1.702 -10.078  0.00  0.00     0.275 HD
ENDBRANCH   1  20
TORSDOF 8
ENDMDL
MODEL 7
REMARK VINA RESULT:      -5.9     15.696     18.099
REMARK  8 active torsions:
REMARK  status: ('A' for Active; 'I' for Inactive)
REMARK    1  A    between atoms: C_2  and  S_23 
REMARK    2  A    between atoms: C_2  and  C_12 
REMARK    3  A    between atoms: C_3  and  C_12 
REMARK    4  A    between atoms: N_4  and  C_12 
REMARK       I    between atoms: N_4  and  C_5 
REMARK    5  A    between atoms: C_5  and  C_11 
REMARK    6  A    between atoms: C_11  and  C_22 
REMARK    7  A    between atoms: C_11  and  N_16 
REMARK    8  A    between atoms: C_21  and  C_22 
ROOT
HETATM    1  C           1     -21.517  -6.050  -6.358  0.00  0.00     0.278 C 
ENDROOT
BRANCH   1   2
HETATM    2  C           1     -20.428  -7.028  -5.990  0.00  0.00     0.249 C 
HETATM    3  N           1     -20.588  -7.855  -4.912  0.00  0.00    -0.344 N 
HETATM    4  H           1     -21.436  -7.812  -4.362  0.00  0.00     0.163 HD
HETATM    5  O           1     -19.415  -7.079  -6.646  0.00  0.00    -0.271 OA
BRANCH   3   6
HETATM    6  C           1     -19.541  -8.795  -4.557  0.00  0.00     0.194 C 
BRANCH   6   7
HETATM    7  C           1     -19.455  -8.912  -3.041  0.00  0.00     0.106 C 
BRANCH   7   8
HETATM    8  S           1     -20.817  -7.980  -2.284  0.00  0.00    -0.180 SA
HETATM    9  H           1     -20.421  -8.163  -1.012  0.00  0.00     0.101 HD
ENDBRANCH   7   8
ENDBRANCH   6   7
BRANCH   6  10
HETATM   10  C           1     -19.858 -10.146  -5.149  0.00  0.00     0.197 C 
HETATM   11  O           1     -20.719 -10.877  -4.613  0.00  0.00    -0.646 OA
HETATM   12  O           1     -19.261 -10.534  -6.176  0.00  0.00    -0.646 OA
ENDBRANCH   6  10
ENDBRANCH   3   6
ENDBRANCH   1   2
BRANCH   1  13
HETATM   13  C           1     -20.893  -4.710  -6.728  0.00  0.00     0.081 C 
BRANCH  13  14
HETATM   14  C           1     -21.144  -4.425  -8.175  0.00  0.00    -0.056 A 
HETATM   15  C           1     -20.134  -4.639  -9.114  0.00  0.00     0.007 A 
HETATM   16  C           1     -20.367  -4.373 -10.463  0.00  0.00     0.001 A 
HETATM   17  C           1     -21.611  -3.893 -10.874  0.00  0.00     0.000 A 
HETATM   18  C           1     -22.621  -3.680  -9.936  0.00  0.00     0.001 A 
HETATM   19  C           1     -22.387  -3.946  -8.587  0.00  0.00     0.007 A 
ENDBRANCH  13  14
ENDBRANCH   1  13
BRANCH   1  20
HETATM   20  N           1     -22.439  -5.866  -5.190  0.00  0.00    -0.066 N 
HETATM   21  H           1     -22.585  -6.784  -4.713  0.00  0.00     0.275 HD
HETATM   22  H           1     -22.017  -5.186  -4.517  0.00  0.00     0.275 HD
HETATM   23  H           1     -23.357  -5.497  -5.526  0.00  0.00     0.275 HD
ENDBRANCH   1  20
TORSDOF 8
ENDMDL
MODEL 8
REMARK VINA RESULT:      -5.8     15.464     17.455
REMARK  8 active torsions:
REMARK  status: ('A' for Active; 'I' for Inactive)
REMARK    1  A    between atoms: C_2  and  S_23 
REMARK    2  A    between atoms: C_2  and  C_12 
REMARK    3  A    between atoms: C_3  and  C_12 
REMARK    4  A    between atoms: N_4  and  C_12 
REMARK       I    between atoms: N_4  and  C_5 
REMARK    5  A    between atoms: C_5  and  C_11 
REMARK    6  A    between atoms: C_11  and  C_22 
REMARK    7  A    between atoms: C_11  and  N_16 
REMARK    8  A    between atoms: C_21  and  C_22 
ROOT
HETATM    1  C           1     -21.552  -7.927  -4.447  0.00  0.00     0.278 C 
ENDROOT
BRANCH   1   2
HETATM    2  C           1     -21.463  -6.525  -4.996  0.00  0.00     0.249 C 
HETATM    3  N           1     -21.616  -6.305  -6.339  0.00  0.00    -0.344 N 
HETATM    4  H           1     -21.789  -7.083  -6.962  0.00  0.00     0.163 HD
HETATM    5  O           1     -21.256  -5.597  -4.252  0.00  0.00    -0.271 OA
BRANCH   3   6
HETATM    6  C           1     -21.529  -4.957  -6.867  0.00  0.00     0.194 C 
BRANCH   6   7
HETATM    7  C           1     -20.583  -4.938  -8.060  0.00  0.00     0.106 C 
BRANCH   7   8
HETATM    8  S           1     -18.933  -4.411  -7.517  0.00  0.00    -0.180 SA
HETATM    9  H           1     -18.419  -4.267  -8.751  0.00  0.00     0.101 HD
ENDBRANCH   7   8
ENDBRANCH   6   7
BRANCH   6  10
HETATM   10  C           1     -22.900  -4.501  -7.304  0.00  0.00     0.197 C 
HETATM   11  O           1     -23.874  -4.621  -6.531  0.00  0.00    -0.646 OA
HETATM   12  O           1     -23.060  -4.001  -8.439  0.00  0.00    -0.646 OA
ENDBRANCH   6  10
ENDBRANCH   3   6
ENDBRANCH   1   2
BRANCH   1  13
HETATM   13  C           1     -20.662  -8.049  -3.217  0.00  0.00     0.081 C 
BRANCH  13  14
HETATM   14  C           1     -21.511  -8.286  -2.007  0.00  0.00    -0.056 A 
HETATM   15  C           1     -21.903  -9.582  -1.673  0.00  0.00     0.007 A 
HETATM   16  C           1     -22.694  -9.803  -0.545  0.00  0.00     0.001 A 
HETATM   17  C           1     -23.092  -8.727   0.249  0.00  0.00     0.000 A 
HETATM   18  C           1     -22.699  -7.431  -0.085  0.00  0.00     0.001 A 
HETATM   19  C           1     -21.909  -7.211  -1.213  0.00  0.00     0.007 A 
ENDBRANCH  13  14
ENDBRANCH   1  13
BRANCH   1  20
HETATM   20  N           1     -21.096  -8.903  -5.491  0.00  0.00    -0.066 N 
HETATM   21  H           1     -20.208  -8.561  -5.923  0.00  0.00     0.275 HD
HETATM   22  H           1     -20.933  -9.836  -5.049  0.00  0.00     0.275 HD
HETATM   23  H           1     -21.831  -8.992  -6.229  0.00  0.00     0.275 HD
ENDBRANCH   1  20
TORSDOF 8
ENDMDL
MODEL 9
REMARK VINA RESULT:      -5.7     16.182     18.245
REMARK  8 active torsions:
REMARK  status: ('A' for Active; 'I' for Inactive)
REMARK    1  A    between atoms: C_2  and  S_23 
REMARK    2  A    between atoms: C_2  and  C_12 
REMARK    3  A    between atoms: C_3  and  C_12 
REMARK    4  A    between atoms: N_4  and  C_12 
REMARK       I    between atoms: N_4  and  C_5 
REMARK    5  A    between atoms: C_5  and  C_11 
REMARK    6  A    between atoms: C_11  and  C_22 
REMARK    7  A    between atoms: C_11  and  N_16 
REMARK    8  A    between atoms: C_21  and  C_22 
ROOT
HETATM    1  C           1     -21.261  -8.588  -4.272  0.00  0.00     0.278 C 
ENDROOT
BRANCH   1   2
HETATM    2  C           1     -20.842  -7.679  -5.401  0.00  0.00     0.249 C 
HETATM    3  N           1     -21.557  -6.543  -5.667  0.00  0.00    -0.344 N 
HETATM    4  H           1     -22.367  -6.312  -5.107  0.00  0.00     0.163 HD
HETATM    5  O           1     -19.875  -7.955  -6.071  0.00  0.00    -0.271 OA
BRANCH   3   6
HETATM    6  C           1     -21.154  -5.670  -6.754  0.00  0.00     0.194 C 
BRANCH   6   7
HETATM    7  C           1     -22.313  -4.756  -7.128  0.00  0.00     0.106 C 
BRANCH   7   8
HETATM    8  S           1     -22.224  -4.358  -8.897  0.00  0.00    -0.180 SA
HETATM    9  H           1     -22.895  -5.445  -9.318  0.00  0.00     0.101 HD
ENDBRANCH   7   8
ENDBRANCH   6   7
BRANCH   6  10
HETATM   10  C           1     -19.976  -4.835  -6.315  0.00  0.00     0.197 C 
HETATM   11  O           1     -19.937  -4.369  -5.156  0.00  0.00    -0.646 OA
HETATM   12  O           1     -19.038  -4.611  -7.111  0.00  0.00    -0.646 OA
ENDBRANCH   6  10
ENDBRANCH   3   6
ENDBRANCH   1   2
BRANCH   1  13
HETATM   13  C           1     -20.264  -8.470  -3.127  0.00  0.00     0.081 C 
BRANCH  13  14
HETATM   14  C           1     -21.003  -8.329  -1.834  0.00  0.00    -0.056 A 
HETATM   15  C           1     -20.872  -9.304  -0.845  0.00  0.00     0.007 A 
HETATM   16  C           1     -21.561  -9.173   0.361  0.00  0.00     0.001 A 
HETATM   17  C           1     -22.380  -8.064   0.579  0.00  0.00     0.000 A 
HETATM   18  C           1     -22.510  -7.089  -0.409  0.00  0.00     0.001 A 
HETATM   19  C           1     -21.822  -7.221  -1.615  0.00  0.00     0.007 A 
ENDBRANCH  13  14
ENDBRANCH   1  13
BRANCH   1  20
HETATM   20  N           1     -21.296 -10.006  -4.759  0.00  0.00    -0.066 N 
HETATM   21  H           1     -20.459 -10.519  -4.401  0.00  0.00     0.275 HD
HETATM   22  H           1     -22.166 -10.472  -4.413  0.00  0.00     0.275 HD
HETATM   23  H           1     -21.290 -10.015  -5.805  0.00  0.00     0.275 HD
ENDBRANCH   1  20
TORSDOF 8
ENDMDL
