MODEL 1
REMARK VINA RESULT:      -5.4      0.000      0.000
REMARK  9 active torsions:
REMARK  status: ('A' for Active; 'I' for Inactive)
REMARK    1  A    between atoms: N_4  and  C_9 
REMARK    2  A    between atoms: Se_6  and  C_7 
REMARK    3  A    between atoms: C_7  and  C_8 
REMARK    4  A    between atoms: C_8  and  C_9 
REMARK    5  A    between atoms: C_9  and  C_10 
REMARK       I    between atoms: C_10  and  N_11 
REMARK    6  A    between atoms: N_11  and  C_15 
REMARK    7  A    between atoms: C_14  and  C_15 
REMARK    8  A    between atoms: C_15  and  C_16 
REMARK    9  A    between atoms: C_16  and  Se_17 
ROOT
HETATM    1  H           1     -22.261  -5.656  -9.516  0.00  0.00     0.163 HD
HETATM    2  O           1     -21.888  -3.589  -7.186  0.00  0.00    -0.271 OA
HETATM    3  C           1     -21.836  -4.653  -7.757  0.00  0.00     0.249 C 
HETATM    4  N           1     -22.305  -4.765  -9.037  0.00  0.00    -0.345 N 
ENDROOT
BRANCH   3   5
HETATM    5  C           1     -21.254  -5.856  -7.057  0.00  0.00     0.274 C 
BRANCH   5   6
HETATM    6  N           1     -19.857  -6.092  -7.549  0.00  0.00    -0.067 N 
HETATM    7  H           1     -19.855  -6.889  -8.225  0.00  0.00     0.275 HD
HETATM    8  H           1     -19.506  -5.231  -8.025  0.00  0.00     0.275 HD
HETATM    9  H           1     -19.237  -6.320  -6.739  0.00  0.00     0.275 HD
ENDBRANCH   5   6
BRANCH   5  10
HETATM   10  C           1     -21.228  -5.607  -5.555  0.00  0.00     0.042 C 
BRANCH  10  11
HETATM   11  C           1     -22.162  -6.589  -4.860  0.00  0.00     0.003 C 
BRANCH  11  12
HETATM   12 Se           1     -21.260  -7.363  -3.315  0.00  0.00     0.000 Se
HETATM   13  C           1     -22.155  -6.221  -2.014  0.00  0.00     0.000 C 
ENDBRANCH  11  12
ENDBRANCH  10  11
ENDBRANCH   5  10
ENDBRANCH   3   5
BRANCH   4  14
HETATM   14  C           1     -22.864  -3.609  -9.710  0.00  0.00     0.185 C 
BRANCH  14  15
HETATM   15  C           1     -24.280  -3.911 -10.135  0.00  0.00     0.196 C 
HETATM   16  O           1     -24.831  -4.970  -9.764  0.00  0.00    -0.646 OA
HETATM   17  O           1     -24.902  -3.103 -10.859  0.00  0.00    -0.646 OA
ENDBRANCH  14  15
BRANCH  14  18
HETATM   18  C           1     -22.024  -3.281 -10.938  0.00  0.00     0.039 C 
BRANCH  18  19
HETATM   19 Se           1     -20.391  -4.345 -10.911  0.00  0.00     0.000 Se
HETATM   20  H           1     -19.825  -3.658  -9.739  0.00  0.00     0.000 HD
ENDBRANCH  18  19
ENDBRANCH  14  18
ENDBRANCH   4  14
TORSDOF 9
ENDMDL
MODEL 2
REMARK VINA RESULT:      -4.6      2.282      2.589
REMARK  9 active torsions:
REMARK  status: ('A' for Active; 'I' for Inactive)
REMARK    1  A    between atoms: N_4  and  C_9 
REMARK    2  A    between atoms: Se_6  and  C_7 
REMARK    3  A    between atoms: C_7  and  C_8 
REMARK    4  A    between atoms: C_8  and  C_9 
REMARK    5  A    between atoms: C_9  and  C_10 
REMARK       I    between atoms: C_10  and  N_11 
REMARK    6  A    between atoms: N_11  and  C_15 
REMARK    7  A    between atoms: C_14  and  C_15 
REMARK    8  A    between atoms: C_15  and  C_16 
REMARK    9  A    between atoms: C_16  and  Se_17 
ROOT
HETATM    1  H           1     -23.067  -3.661  -8.885  0.00  0.00     0.163 HD
HETATM    2  O           1     -20.641  -5.621  -8.548  0.00  0.00    -0.271 OA
HETATM    3  C           1     -21.518  -4.859  -8.216  0.00  0.00     0.249 C 
HETATM    4  N           1     -22.332  -4.299  -9.163  0.00  0.00    -0.345 N 
ENDROOT
BRANCH   3   5
HETATM    5  C           1     -21.715  -4.525  -6.758  0.00  0.00     0.274 C 
BRANCH   5   6
HETATM    6  N           1     -23.180  -4.541  -6.436  0.00  0.00    -0.067 N 
HETATM    7  H           1     -23.524  -5.528  -6.423  0.00  0.00     0.275 HD
HETATM    8  H           1     -23.335  -4.107  -5.498  0.00  0.00     0.275 HD
HETATM    9  H           1     -23.702  -3.999  -7.161  0.00  0.00     0.275 HD
ENDBRANCH   5   6
BRANCH   5  10
HETATM   10  C           1     -20.996  -5.556  -5.899  0.00  0.00     0.042 C 
BRANCH  10  11
HETATM   11  C           1     -22.020  -6.420  -5.176  0.00  0.00     0.003 C 
BRANCH  11  12
HETATM   12 Se           1     -21.161  -7.348  -3.693  0.00  0.00     0.000 Se
HETATM   13  C           1     -21.984  -6.246  -2.312  0.00  0.00     0.000 C 
ENDBRANCH  11  12
ENDBRANCH  10  11
ENDBRANCH   5  10
ENDBRANCH   3   5
BRANCH   4  14
HETATM   14  C           1     -22.143  -4.619 -10.564  0.00  0.00     0.185 C 
BRANCH  14  15
HETATM   15  C           1     -21.244  -3.587 -11.198  0.00  0.00     0.196 C 
HETATM   16  O           1     -20.017  -3.802 -11.298  0.00  0.00    -0.646 OA
HETATM   17  O           1     -21.726  -2.515 -11.624  0.00  0.00    -0.646 OA
ENDBRANCH  14  15
BRANCH  14  18
HETATM   18  C           1     -23.492  -4.621 -11.271  0.00  0.00     0.039 C 
BRANCH  18  19
HETATM   19 Se           1     -24.794  -3.658 -10.187  0.00  0.00     0.000 Se
HETATM   20  H           1     -25.946  -4.047 -11.016  0.00  0.00     0.000 HD
ENDBRANCH  18  19
ENDBRANCH  14  18
ENDBRANCH   4  14
TORSDOF 9
ENDMDL
MODEL 3
REMARK VINA RESULT:      -4.6      2.987      6.779
REMARK  9 active torsions:
REMARK  status: ('A' for Active; 'I' for Inactive)
REMARK    1  A    between atoms: N_4  and  C_9 
REMARK    2  A    between atoms: Se_6  and  C_7 
REMARK    3  A    between atoms: C_7  and  C_8 
REMARK    4  A    between atoms: C_8  and  C_9 
REMARK    5  A    between atoms: C_9  and  C_10 
REMARK       I    between atoms: C_10  and  N_11 
REMARK    6  A    between atoms: N_11  and  C_15 
REMARK    7  A    between atoms: C_14  and  C_15 
REMARK    8  A    between atoms: C_15  and  C_16 
REMARK    9  A    between atoms: C_16  and  Se_17 
ROOT
HETATM    1  H           1     -19.839  -6.753  -4.917  0.00  0.00     0.163 HD
HETATM    2  O           1     -22.765  -5.846  -5.589  0.00  0.00    -0.271 OA
HETATM    3  C           1     -21.559  -5.875  -5.658  0.00  0.00     0.249 C 
HETATM    4  N           1     -20.849  -6.729  -4.858  0.00  0.00    -0.345 N 
ENDROOT
BRANCH   3   5
HETATM    5  C           1     -20.838  -4.970  -6.626  0.00  0.00     0.274 C 
BRANCH   5   6
HETATM    6  N           1     -20.219  -5.797  -7.714  0.00  0.00    -0.067 N 
HETATM    7  H           1     -20.348  -5.317  -8.634  0.00  0.00     0.275 HD
HETATM    8  H           1     -19.198  -5.914  -7.525  0.00  0.00     0.275 HD
HETATM    9  H           1     -20.678  -6.735  -7.743  0.00  0.00     0.275 HD
ENDBRANCH   5   6
BRANCH   5  10
HETATM   10  C           1     -21.827  -3.988  -7.237  0.00  0.00     0.042 C 
BRANCH  10  11
HETATM   11  C           1     -21.937  -4.240  -8.735  0.00  0.00     0.003 C 
BRANCH  11  12
HETATM   12 Se           1     -23.716  -3.737  -9.351  0.00  0.00     0.000 Se
HETATM   13  C           1     -23.699  -4.931 -10.892  0.00  0.00     0.000 C 
ENDBRANCH  11  12
ENDBRANCH  10  11
ENDBRANCH   5  10
ENDBRANCH   3   5
BRANCH   4  14
HETATM   14  C           1     -21.542  -7.598  -3.928  0.00  0.00     0.185 C 
BRANCH  14  15
HETATM   15  C           1     -21.545  -6.966  -2.558  0.00  0.00     0.196 C 
HETATM   16  O           1     -22.298  -5.998  -2.318  0.00  0.00    -0.646 OA
HETATM   17  O           1     -20.794  -7.410  -1.663  0.00  0.00    -0.646 OA
ENDBRANCH  14  15
BRANCH  14  18
HETATM   18  C           1     -20.831  -8.944  -3.865  0.00  0.00     0.039 C 
BRANCH  18  19
HETATM   19 Se           1     -22.135 -10.353  -3.534  0.00  0.00     0.000 Se
HETATM   20  H           1     -21.158 -11.279  -2.940  0.00  0.00     0.000 HD
ENDBRANCH  18  19
ENDBRANCH  14  18
ENDBRANCH   4  14
TORSDOF 9
ENDMDL
MODEL 4
REMARK VINA RESULT:      -4.5      3.629      4.838
REMARK  9 active torsions:
REMARK  status: ('A' for Active; 'I' for Inactive)
REMARK    1  A    between atoms: N_4  and  C_9 
REMARK    2  A    between atoms: Se_6  and  C_7 
REMARK    3  A    between atoms: C_7  and  C_8 
REMARK    4  A    between atoms: C_8  and  C_9 
REMARK    5  A    between atoms: C_9  and  C_10 
REMARK       I    between atoms: C_10  and  N_11 
REMARK    6  A    between atoms: N_11  and  C_15 
REMARK    7  A    between atoms: C_14  and  C_15 
REMARK    8  A    between atoms: C_15  and  C_16 
REMARK    9  A    between atoms: C_16  and  Se_17 
ROOT
HETATM    1  H           1     -20.663  -4.676  -4.465  0.00  0.00     0.163 HD
HETATM    2  O           1     -21.939  -7.502  -4.936  0.00  0.00    -0.271 OA
HETATM    3  C           1     -21.472  -6.574  -4.319  0.00  0.00     0.249 C 
HETATM    4  N           1     -21.052  -5.454  -4.983  0.00  0.00    -0.345 N 
ENDROOT
BRANCH   3   5
HETATM    5  C           1     -21.354  -6.651  -2.817  0.00  0.00     0.274 C 
BRANCH   5   6
HETATM    6  N           1     -22.431  -5.818  -2.188  0.00  0.00    -0.067 N 
HETATM    7  H           1     -23.108  -6.439  -1.690  0.00  0.00     0.275 HD
HETATM    8  H           1     -22.003  -5.153  -1.505  0.00  0.00     0.275 HD
HETATM    9  H           1     -22.933  -5.280  -2.930  0.00  0.00     0.275 HD
ENDBRANCH   5   6
BRANCH   5  10
HETATM   10  C           1     -21.507  -8.099  -2.369  0.00  0.00     0.042 C 
BRANCH  10  11
HETATM   11  C           1     -20.550  -8.379  -1.218  0.00  0.00     0.003 C 
BRANCH  11  12
HETATM   12 Se           1     -21.559  -8.551   0.441  0.00  0.00     0.000 Se
HETATM   13  C           1     -20.823 -10.296   0.900  0.00  0.00     0.000 C 
ENDBRANCH  11  12
ENDBRANCH  10  11
ENDBRANCH   5  10
ENDBRANCH   3   5
BRANCH   4  14
HETATM   14  C           1     -21.166  -5.379  -6.426  0.00  0.00     0.185 C 
BRANCH  14  15
HETATM   15  C           1     -19.821  -5.658  -7.050  0.00  0.00     0.196 C 
HETATM   16  O           1     -19.398  -6.831  -7.127  0.00  0.00    -0.646 OA
HETATM   17  O           1     -19.129  -4.714  -7.490  0.00  0.00    -0.646 OA
ENDBRANCH  14  15
BRANCH  14  18
HETATM   18  C           1     -21.634  -3.986  -6.827  0.00  0.00     0.039 C 
BRANCH  18  19
HETATM   19 Se           1     -22.585  -4.084  -8.525  0.00  0.00     0.000 Se
HETATM   20  H           1     -21.712  -3.113  -9.203  0.00  0.00     0.000 HD
ENDBRANCH  18  19
ENDBRANCH  14  18
ENDBRANCH   4  14
TORSDOF 9
ENDMDL
MODEL 5
REMARK VINA RESULT:      -4.5      2.929      6.560
REMARK  9 active torsions:
REMARK  status: ('A' for Active; 'I' for Inactive)
REMARK    1  A    between atoms: N_4  and  C_9 
REMARK    2  A    between atoms: Se_6  and  C_7 
REMARK    3  A    between atoms: C_7  and  C_8 
REMARK    4  A    between atoms: C_8  and  C_9 
REMARK    5  A    between atoms: C_9  and  C_10 
REMARK       I    between atoms: C_10  and  N_11 
REMARK    6  A    between atoms: N_11  and  C_15 
REMARK    7  A    between atoms: C_14  and  C_15 
REMARK    8  A    between atoms: C_15  and  C_16 
REMARK    9  A    between atoms: C_16  and  Se_17 
ROOT
HETATM    1  H           1     -22.398  -6.196  -6.246  0.00  0.00     0.163 HD
HETATM    2  O           1     -19.504  -5.016  -6.516  0.00  0.00    -0.271 OA
HETATM    3  C           1     -20.661  -5.218  -6.800  0.00  0.00     0.249 C 
HETATM    4  N           1     -21.428  -6.028  -6.008  0.00  0.00    -0.345 N 
ENDROOT
BRANCH   3   5
HETATM    5  C           1     -21.258  -4.576  -8.028  0.00  0.00     0.274 C 
BRANCH   5   6
HETATM    6  N           1     -22.170  -3.459  -7.614  0.00  0.00    -0.067 N 
HETATM    7  H           1     -22.487  -3.613  -6.630  0.00  0.00     0.275 HD
HETATM    8  H           1     -21.657  -2.550  -7.674  0.00  0.00     0.275 HD
HETATM    9  H           1     -23.000  -3.433  -8.248  0.00  0.00     0.275 HD
ENDBRANCH   5   6
BRANCH   5  10
HETATM   10  C           1     -20.144  -4.022  -8.905  0.00  0.00     0.042 C 
BRANCH  10  11
HETATM   11  C           1     -20.286  -4.573 -10.318  0.00  0.00     0.003 C 
BRANCH  11  12
HETATM   12 Se           1     -21.444  -3.402 -11.360  0.00  0.00     0.000 Se
HETATM   13  C           1     -22.973  -4.611 -11.327  0.00  0.00     0.000 C 
ENDBRANCH  11  12
ENDBRANCH  10  11
ENDBRANCH   5  10
ENDBRANCH   3   5
BRANCH   4  14
HETATM   14  C           1     -20.854  -6.645  -4.828  0.00  0.00     0.185 C 
BRANCH  14  15
HETATM   15  C           1     -20.425  -8.053  -5.157  0.00  0.00     0.196 C 
HETATM   16  O           1     -21.228  -8.841  -5.702  0.00  0.00    -0.646 OA
HETATM   17  O           1     -19.265  -8.433  -4.884  0.00  0.00    -0.646 OA
ENDBRANCH  14  15
BRANCH  14  18
HETATM   18  C           1     -21.894  -6.677  -3.716  0.00  0.00     0.039 C 
BRANCH  18  19
HETATM   19 Se           1     -21.106  -7.451  -2.111  0.00  0.00     0.000 Se
HETATM   20  H           1     -22.027  -8.598  -2.071  0.00  0.00     0.000 HD
ENDBRANCH  18  19
ENDBRANCH  14  18
ENDBRANCH   4  14
TORSDOF 9
ENDMDL
MODEL 6
REMARK VINA RESULT:      -4.4      2.067      2.299
REMARK  9 active torsions:
REMARK  status: ('A' for Active; 'I' for Inactive)
REMARK    1  A    between atoms: N_4  and  C_9 
REMARK    2  A    between atoms: Se_6  and  C_7 
REMARK    3  A    between atoms: C_7  and  C_8 
REMARK    4  A    between atoms: C_8  and  C_9 
REMARK    5  A    between atoms: C_9  and  C_10 
REMARK       I    between atoms: C_10  and  N_11 
REMARK    6  A    between atoms: N_11  and  C_15 
REMARK    7  A    between atoms: C_14  and  C_15 
REMARK    8  A    between atoms: C_15  and  C_16 
REMARK    9  A    between atoms: C_16  and  Se_17 
ROOT
HETATM    1  H           1     -23.155  -5.642  -7.781  0.00  0.00     0.163 HD
HETATM    2  O           1     -20.856  -3.719  -6.854  0.00  0.00    -0.271 OA
HETATM    3  C           1     -21.621  -4.653  -6.805  0.00  0.00     0.249 C 
HETATM    4  N           1     -22.515  -4.859  -7.821  0.00  0.00    -0.345 N 
ENDROOT
BRANCH   3   5
HETATM    5  C           1     -21.591  -5.592  -5.624  0.00  0.00     0.274 C 
BRANCH   5   6
HETATM    6  N           1     -22.989  -6.019  -5.290  0.00  0.00    -0.067 N 
HETATM    7  H           1     -23.268  -5.612  -4.369  0.00  0.00     0.275 HD
HETATM    8  H           1     -23.643  -5.680  -6.031  0.00  0.00     0.275 HD
HETATM    9  H           1     -23.033  -7.061  -5.237  0.00  0.00     0.275 HD
ENDBRANCH   5   6
BRANCH   5  10
HETATM   10  C           1     -20.756  -6.818  -5.971  0.00  0.00     0.042 C 
BRANCH  10  11
HETATM   11  C           1     -20.444  -7.597  -4.700  0.00  0.00     0.003 C 
BRANCH  11  12
HETATM   12 Se           1     -20.576  -9.508  -5.058  0.00  0.00     0.000 Se
HETATM   13  C           1     -18.660  -9.759  -5.316  0.00  0.00     0.000 C 
ENDBRANCH  11  12
ENDBRANCH  10  11
ENDBRANCH   5  10
ENDBRANCH   3   5
BRANCH   4  14
HETATM   14  C           1     -22.544  -3.957  -8.956  0.00  0.00     0.185 C 
BRANCH  14  15
HETATM   15  C           1     -23.927  -3.954  -9.559  0.00  0.00     0.196 C 
HETATM   16  O           1     -24.354  -4.969 -10.149  0.00  0.00    -0.646 OA
HETATM   17  O           1     -24.646  -2.935  -9.469  0.00  0.00    -0.646 OA
ENDBRANCH  14  15
BRANCH  14  18
HETATM   18  C           1     -21.535  -4.421  -9.999  0.00  0.00     0.039 C 
BRANCH  18  19
HETATM   19 Se           1     -21.358  -3.060 -11.383  0.00  0.00     0.000 Se
HETATM   20  H           1     -22.271  -3.731 -12.322  0.00  0.00     0.000 HD
ENDBRANCH  18  19
ENDBRANCH  14  18
ENDBRANCH   4  14
TORSDOF 9
ENDMDL
MODEL 7
REMARK VINA RESULT:      -4.2      4.644      7.953
REMARK  9 active torsions:
REMARK  status: ('A' for Active; 'I' for Inactive)
REMARK    1  A    between atoms: N_4  and  C_9 
REMARK    2  A    between atoms: Se_6  and  C_7 
REMARK    3  A    between atoms: C_7  and  C_8 
REMARK    4  A    between atoms: C_8  and  C_9 
REMARK    5  A    between atoms: C_9  and  C_10 
REMARK       I    between atoms: C_10  and  N_11 
REMARK    6  A    between atoms: N_11  and  C_15 
REMARK    7  A    between atoms: C_14  and  C_15 
REMARK    8  A    between atoms: C_15  and  C_16 
REMARK    9  A    between atoms: C_16  and  Se_17 
ROOT
HETATM    1  H           1     -19.989  -7.605  -2.155  0.00  0.00     0.163 HD
HETATM    2  O           1     -21.912  -9.191  -4.060  0.00  0.00    -0.271 OA
HETATM    3  C           1     -20.990  -8.477  -3.742  0.00  0.00     0.249 C 
HETATM    4  N           1     -20.762  -8.202  -2.421  0.00  0.00    -0.345 N 
ENDROOT
BRANCH   3   5
HETATM    5  C           1     -20.089  -7.891  -4.802  0.00  0.00     0.274 C 
BRANCH   5   6
HETATM    6  N           1     -19.404  -9.001  -5.543  0.00  0.00    -0.067 N 
HETATM    7  H           1     -19.714  -8.998  -6.541  0.00  0.00     0.275 HD
HETATM    8  H           1     -18.369  -8.860  -5.500  0.00  0.00     0.275 HD
HETATM    9  H           1     -19.649  -9.917  -5.104  0.00  0.00     0.275 HD
ENDBRANCH   5   6
BRANCH   5  10
HETATM   10  C           1     -20.921  -7.069  -5.777  0.00  0.00     0.042 C 
BRANCH  10  11
HETATM   11  C           1     -21.053  -5.644  -5.256  0.00  0.00     0.003 C 
BRANCH  11  12
HETATM   12 Se           1     -20.679  -4.387  -6.698  0.00  0.00     0.000 Se
HETATM   13  C           1     -22.500  -4.390  -7.394  0.00  0.00     0.000 C 
ENDBRANCH  11  12
ENDBRANCH  10  11
ENDBRANCH   5  10
ENDBRANCH   3   5
BRANCH   4  14
HETATM   14  C           1     -21.627  -8.765  -1.402  0.00  0.00     0.185 C 
BRANCH  14  15
HETATM   15  C           1     -22.189  -7.653  -0.551  0.00  0.00     0.196 C 
HETATM   16  O           1     -22.218  -7.772   0.693  0.00  0.00    -0.646 OA
HETATM   17  O           1     -22.627  -6.614  -1.090  0.00  0.00    -0.646 OA
ENDBRANCH  14  15
BRANCH  14  18
HETATM   18  C           1     -20.825  -9.720  -0.528  0.00  0.00     0.039 C 
BRANCH  18  19
HETATM   19 Se           1     -20.746 -11.471  -1.379  0.00  0.00     0.000 Se
HETATM   20  H           1     -20.606 -10.931  -2.741  0.00  0.00     0.000 HD
ENDBRANCH  18  19
ENDBRANCH  14  18
ENDBRANCH   4  14
TORSDOF 9
ENDMDL
MODEL 8
REMARK VINA RESULT:      -4.1      2.366      2.691
REMARK  9 active torsions:
REMARK  status: ('A' for Active; 'I' for Inactive)
REMARK    1  A    between atoms: N_4  and  C_9 
REMARK    2  A    between atoms: Se_6  and  C_7 
REMARK    3  A    between atoms: C_7  and  C_8 
REMARK    4  A    between atoms: C_8  and  C_9 
REMARK    5  A    between atoms: C_9  and  C_10 
REMARK       I    between atoms: C_10  and  N_11 
REMARK    6  A    between atoms: N_11  and  C_15 
REMARK    7  A    between atoms: C_14  and  C_15 
REMARK    8  A    between atoms: C_15  and  C_16 
REMARK    9  A    between atoms: C_16  and  Se_17 
ROOT
HETATM    1  H           1     -20.112  -3.516  -8.827  0.00  0.00     0.163 HD
HETATM    2  O           1     -21.593  -6.136  -7.941  0.00  0.00    -0.271 OA
HETATM    3  C           1     -20.755  -5.265  -7.928  0.00  0.00     0.249 C 
HETATM    4  N           1     -20.814  -4.246  -8.839  0.00  0.00    -0.345 N 
ENDROOT
BRANCH   3   5
HETATM    5  C           1     -19.644  -5.303  -6.907  0.00  0.00     0.274 C 
BRANCH   5   6
HETATM    6  N           1     -18.499  -4.460  -7.384  0.00  0.00    -0.067 N 
HETATM    7  H           1     -18.768  -3.974  -8.269  0.00  0.00     0.275 HD
HETATM    8  H           1     -18.263  -3.749  -6.655  0.00  0.00     0.275 HD
HETATM    9  H           1     -17.668  -5.068  -7.559  0.00  0.00     0.275 HD
ENDBRANCH   5   6
BRANCH   5  10
HETATM   10  C           1     -20.156  -4.760  -5.580  0.00  0.00     0.042 C 
BRANCH  10  11
HETATM   11  C           1     -20.985  -5.828  -4.878  0.00  0.00     0.003 C 
BRANCH  11  12
HETATM   12 Se           1     -20.118  -7.562  -5.080  0.00  0.00     0.000 Se
HETATM   13  C           1     -21.608  -8.577  -4.340  0.00  0.00     0.000 C 
ENDBRANCH  11  12
ENDBRANCH  10  11
ENDBRANCH   5  10
ENDBRANCH   3   5
BRANCH   4  14
HETATM   14  C           1     -21.880  -4.209  -9.820  0.00  0.00     0.185 C 
BRANCH  14  15
HETATM   15  C           1     -21.334  -3.718 -11.138  0.00  0.00     0.196 C 
HETATM   16  O           1     -21.876  -4.065 -12.208  0.00  0.00    -0.646 OA
HETATM   17  O           1     -20.337  -2.964 -11.158  0.00  0.00    -0.646 OA
ENDBRANCH  14  15
BRANCH  14  18
HETATM   18  C           1     -22.977  -3.267  -9.341  0.00  0.00     0.039 C 
BRANCH  18  19
HETATM   19 Se           1     -24.683  -3.809 -10.114  0.00  0.00     0.000 Se
HETATM   20  H           1     -25.260  -4.239  -8.831  0.00  0.00     0.000 HD
ENDBRANCH  18  19
ENDBRANCH  14  18
ENDBRANCH   4  14
TORSDOF 9
ENDMDL
MODEL 9
REMARK VINA RESULT:      -3.9      2.409      6.141
REMARK  9 active torsions:
REMARK  status: ('A' for Active; 'I' for Inactive)
REMARK    1  A    between atoms: N_4  and  C_9 
REMARK    2  A    between atoms: Se_6  and  C_7 
REMARK    3  A    between atoms: C_7  and  C_8 
REMARK    4  A    between atoms: C_8  and  C_9 
REMARK    5  A    between atoms: C_9  and  C_10 
REMARK       I    between atoms: C_10  and  N_11 
REMARK    6  A    between atoms: N_11  and  C_15 
REMARK    7  A    between atoms: C_14  and  C_15 
REMARK    8  A    between atoms: C_15  and  C_16 
REMARK    9  A    between atoms: C_16  and  Se_17 
ROOT
HETATM    1  H           1     -20.752  -6.210  -6.950  0.00  0.00     0.163 HD
HETATM    2  O           1     -23.593  -5.190  -6.098  0.00  0.00    -0.271 OA
HETATM    3  C           1     -22.590  -5.277  -6.765  0.00  0.00     0.249 C 
HETATM    4  N           1     -21.593  -6.137  -6.391  0.00  0.00    -0.345 N 
ENDROOT
BRANCH   3   5
HETATM    5  C           1     -22.436  -4.437  -8.009  0.00  0.00     0.274 C 
BRANCH   5   6
HETATM    6  N           1     -23.747  -3.785  -8.335  0.00  0.00    -0.067 N 
HETATM    7  H           1     -24.049  -4.071  -9.294  0.00  0.00     0.275 HD
HETATM    8  H           1     -24.467  -4.085  -7.640  0.00  0.00     0.275 HD
HETATM    9  H           1     -23.638  -2.747  -8.300  0.00  0.00     0.275 HD
ENDBRANCH   5   6
BRANCH   5  10
HETATM   10  C           1     -21.382  -3.364  -7.770  0.00  0.00     0.042 C 
BRANCH  10  11
HETATM   11  C           1     -20.089  -3.756  -8.473  0.00  0.00     0.003 C 
BRANCH  11  12
HETATM   12 Se           1     -20.506  -4.715 -10.118  0.00  0.00     0.000 Se
HETATM   13  C           1     -21.145  -3.137 -11.069  0.00  0.00     0.000 C 
ENDBRANCH  11  12
ENDBRANCH  10  11
ENDBRANCH   5  10
ENDBRANCH   3   5
BRANCH   4  14
HETATM   14  C           1     -21.741  -6.944  -5.196  0.00  0.00     0.185 C 
BRANCH  14  15
HETATM   15  C           1     -21.473  -6.093  -3.979  0.00  0.00     0.196 C 
HETATM   16  O           1     -22.196  -6.205  -2.966  0.00  0.00    -0.646 OA
HETATM   17  O           1     -20.528  -5.274  -3.985  0.00  0.00    -0.646 OA
ENDBRANCH  14  15
BRANCH  14  18
HETATM   18  C           1     -20.747  -8.098  -5.237  0.00  0.00     0.039 C 
BRANCH  18  19
HETATM   19 Se           1     -21.412  -9.568  -4.143  0.00  0.00     0.000 Se
HETATM   20  H           1     -20.074 -10.093  -3.828  0.00  0.00     0.000 HD
ENDBRANCH  18  19
ENDBRANCH  14  18
ENDBRANCH   4  14
TORSDOF 9
ENDMDL
