MODEL 1
REMARK VINA RESULT:      -8.5      0.000      0.000
REMARK  8 active torsions:
REMARK  status: ('A' for Active; 'I' for Inactive)
REMARK    1  A    between atoms: C_2  and  C_3 
REMARK    2  A    between atoms: C_3  and  C_4 
REMARK    3  A    between atoms: C_4  and  C_30 
REMARK    4  A    between atoms: C_4  and  N_22 
REMARK    5  A    between atoms: N_6  and  C_11 
REMARK    6  A    between atoms: C_11  and  C_23 
REMARK    7  A    between atoms: C_11  and  C_13 
REMARK    8  A    between atoms: C_13  and  C_17 
REMARK       I    between atoms: N_22  and  C_23 
ROOT
HETATM    1  C           1     -21.658  -6.286  -5.352  0.00  0.00     0.278 C 
ENDROOT
BRANCH   1   2
HETATM    2  N           1     -21.757  -5.968  -3.889  0.00  0.00    -0.066 N 
HETATM    3  H           1     -22.634  -5.428  -3.708  0.00  0.00     0.275 HD
HETATM    4  H           1     -21.778  -6.857  -3.340  0.00  0.00     0.275 HD
HETATM    5  H           1     -20.931  -5.398  -3.599  0.00  0.00     0.275 HD
ENDBRANCH   1   2
BRANCH   1   6
HETATM    6  C           1     -20.805  -7.516  -5.541  0.00  0.00     0.249 C 
HETATM    7  O           1     -19.777  -7.447  -6.172  0.00  0.00    -0.271 OA
HETATM    8  N           1     -21.194  -8.710  -4.997  0.00  0.00    -0.344 N 
HETATM    9  H           1     -22.055  -8.768  -4.467  0.00  0.00     0.163 HD
BRANCH   8  10
HETATM   10  C           1     -20.375  -9.892  -5.178  0.00  0.00     0.189 C 
BRANCH  10  11
HETATM   11  C           1     -19.692 -10.243  -3.863  0.00  0.00     0.074 C 
BRANCH  11  12
HETATM   12  C           1     -18.216 -10.027  -3.993  0.00  0.00    -0.056 A 
HETATM   13  C           1     -17.602 -10.131  -5.241  0.00  0.00     0.007 A 
HETATM   14  C           1     -16.227  -9.931  -5.360  0.00  0.00     0.001 A 
HETATM   15  C           1     -15.466  -9.626  -4.232  0.00  0.00     0.000 A 
HETATM   16  C           1     -16.080  -9.522  -2.984  0.00  0.00     0.001 A 
HETATM   17  C           1     -17.454  -9.722  -2.864  0.00  0.00     0.007 A 
ENDBRANCH  11  12
ENDBRANCH  10  11
BRANCH  10  18
HETATM   18  C           1     -21.245 -11.045  -5.615  0.00  0.00     0.197 C 
HETATM   19  O           1     -21.996 -11.609  -4.791  0.00  0.00    -0.646 OA
HETATM   20  O           1     -21.214 -11.436  -6.803  0.00  0.00    -0.646 OA
ENDBRANCH  10  18
ENDBRANCH   8  10
ENDBRANCH   1   6
BRANCH   1  21
HETATM   21  C           1     -21.024  -5.111  -6.084  0.00  0.00     0.083 C 
BRANCH  21  22
HETATM   22  C           1     -21.909  -4.693  -7.218  0.00  0.00    -0.028 A 
HETATM   23  C           1     -23.254  -4.415  -7.136  0.00  0.00     0.096 A 
HETATM   24  N           1     -23.687  -4.073  -8.391  0.00  0.00    -0.365 N 
HETATM   25  H           1     -24.673  -3.809  -8.634  0.00  0.00     0.165 HD
HETATM   26  C           1     -22.642  -4.125  -9.286  0.00  0.00     0.042 A 
HETATM   27  C           1     -22.614  -3.861 -10.660  0.00  0.00     0.030 A 
HETATM   28  C           1     -21.509  -4.515  -8.571  0.00  0.00    -0.002 A 
HETATM   29  C           1     -21.390  -4.000 -11.321  0.00  0.00     0.002 A 
HETATM   30  C           1     -20.241  -4.387 -10.632  0.00  0.00     0.001 A 
HETATM   31  C           1     -20.287  -4.648  -9.258  0.00  0.00     0.014 A 
ENDBRANCH  21  22
ENDBRANCH   1  21
TORSDOF 8
ENDMDL
MODEL 2
REMARK VINA RESULT:      -8.4      2.261      3.363
REMARK  8 active torsions:
REMARK  status: ('A' for Active; 'I' for Inactive)
REMARK    1  A    between atoms: C_2  and  C_3 
REMARK    2  A    between atoms: C_3  and  C_4 
REMARK    3  A    between atoms: C_4  and  C_30 
REMARK    4  A    between atoms: C_4  and  N_22 
REMARK    5  A    between atoms: N_6  and  C_11 
REMARK    6  A    between atoms: C_11  and  C_23 
REMARK    7  A    between atoms: C_11  and  C_13 
REMARK    8  A    between atoms: C_13  and  C_17 
REMARK       I    between atoms: N_22  and  C_23 
ROOT
HETATM    1  C           1     -21.782  -6.581  -5.678  0.00  0.00     0.278 C 
ENDROOT
BRANCH   1   2
HETATM    2  N           1     -22.618  -6.192  -4.495  0.00  0.00    -0.066 N 
HETATM    3  H           1     -22.053  -5.594  -3.850  0.00  0.00     0.275 HD
HETATM    4  H           1     -23.454  -5.656  -4.821  0.00  0.00     0.275 HD
HETATM    5  H           1     -22.929  -7.051  -3.990  0.00  0.00     0.275 HD
ENDBRANCH   1   2
BRANCH   1   6
HETATM    6  C           1     -20.738  -7.581  -5.248  0.00  0.00     0.249 C 
HETATM    7  O           1     -19.722  -7.709  -5.889  0.00  0.00    -0.271 OA
HETATM    8  N           1     -20.941  -8.345  -4.130  0.00  0.00    -0.344 N 
HETATM    9  H           1     -21.792  -8.238  -3.592  0.00  0.00     0.163 HD
BRANCH   8  10
HETATM   10  C           1     -19.938  -9.307  -3.716  0.00  0.00     0.189 C 
BRANCH  10  11
HETATM   11  C           1     -19.499  -9.000  -2.290  0.00  0.00     0.074 C 
BRANCH  11  12
HETATM   12  C           1     -20.698  -8.668  -1.457  0.00  0.00    -0.056 A 
HETATM   13  C           1     -21.307  -9.657  -0.686  0.00  0.00     0.007 A 
HETATM   14  C           1     -22.424  -9.346   0.090  0.00  0.00     0.001 A 
HETATM   15  C           1     -22.932  -8.047   0.094  0.00  0.00     0.000 A 
HETATM   16  C           1     -22.322  -7.058  -0.678  0.00  0.00     0.001 A 
HETATM   17  C           1     -21.205  -7.368  -1.454  0.00  0.00     0.007 A 
ENDBRANCH  11  12
ENDBRANCH  10  11
BRANCH  10  18
HETATM   18  C           1     -20.521 -10.697  -3.773  0.00  0.00     0.197 C 
HETATM   19  O           1     -19.839 -11.677  -3.403  0.00  0.00    -0.646 OA
HETATM   20  O           1     -21.687 -10.871  -4.191  0.00  0.00    -0.646 OA
ENDBRANCH  10  18
ENDBRANCH   8  10
ENDBRANCH   1   6
BRANCH   1  21
HETATM   21  C           1     -21.096  -5.344  -6.243  0.00  0.00     0.083 C 
BRANCH  21  22
HETATM   22  C           1     -21.934  -4.767  -7.342  0.00  0.00    -0.028 A 
HETATM   23  C           1     -23.255  -4.394  -7.244  0.00  0.00     0.096 A 
HETATM   24  N           1     -23.647  -3.917  -8.468  0.00  0.00    -0.365 N 
HETATM   25  H           1     -24.607  -3.559  -8.693  0.00  0.00     0.165 HD
HETATM   26  C           1     -22.599  -3.975  -9.359  0.00  0.00     0.042 A 
HETATM   27  C           1     -22.536  -3.601 -10.706  0.00  0.00     0.030 A 
HETATM   28  C           1     -21.507  -4.508  -8.674  0.00  0.00    -0.002 A 
HETATM   29  C           1     -21.318  -3.778 -11.370  0.00  0.00     0.002 A 
HETATM   30  C           1     -20.210  -4.308 -10.711  0.00  0.00     0.001 A 
HETATM   31  C           1     -20.291  -4.677  -9.363  0.00  0.00     0.014 A 
ENDBRANCH  21  22
ENDBRANCH   1  21
TORSDOF 8
ENDMDL
MODEL 3
REMARK VINA RESULT:      -8.0      2.848      7.971
REMARK  8 active torsions:
REMARK  status: ('A' for Active; 'I' for Inactive)
REMARK    1  A    between atoms: C_2  and  C_3 
REMARK    2  A    between atoms: C_3  and  C_4 
REMARK    3  A    between atoms: C_4  and  C_30 
REMARK    4  A    between atoms: C_4  and  N_22 
REMARK    5  A    between atoms: N_6  and  C_11 
REMARK    6  A    between atoms: C_11  and  C_23 
REMARK    7  A    between atoms: C_11  and  C_13 
REMARK    8  A    between atoms: C_13  and  C_17 
REMARK       I    between atoms: N_22  and  C_23 
ROOT
HETATM    1  C           1     -21.252  -9.737  -5.049  0.00  0.00     0.278 C 
ENDROOT
BRANCH   1   2
HETATM    2  N           1     -21.019 -10.734  -6.146  0.00  0.00    -0.066 N 
HETATM    3  H           1     -21.420 -10.370  -7.040  0.00  0.00     0.275 HD
HETATM    4  H           1     -19.991 -10.888  -6.263  0.00  0.00     0.275 HD
HETATM    5  H           1     -21.480 -11.638  -5.899  0.00  0.00     0.275 HD
ENDBRANCH   1   2
BRANCH   1   6
HETATM    6  C           1     -20.748  -8.384  -5.486  0.00  0.00     0.249 C 
HETATM    7  O           1     -19.567  -8.209  -5.672  0.00  0.00    -0.271 OA
HETATM    8  N           1     -21.629  -7.353  -5.672  0.00  0.00    -0.344 N 
HETATM    9  H           1     -22.619  -7.498  -5.517  0.00  0.00     0.163 HD
BRANCH   8  10
HETATM   10  C           1     -21.146  -6.052  -6.091  0.00  0.00     0.189 C 
BRANCH  10  11
HETATM   11  C           1     -22.269  -5.293  -6.786  0.00  0.00     0.074 C 
BRANCH  11  12
HETATM   12  C           1     -21.807  -4.839  -8.136  0.00  0.00    -0.056 A 
HETATM   13  C           1     -20.486  -5.052  -8.528  0.00  0.00     0.007 A 
HETATM   14  C           1     -20.056  -4.627  -9.786  0.00  0.00     0.001 A 
HETATM   15  C           1     -20.947  -3.992 -10.650  0.00  0.00     0.000 A 
HETATM   16  C           1     -22.268  -3.781 -10.257  0.00  0.00     0.001 A 
HETATM   17  C           1     -22.698  -4.204  -9.000  0.00  0.00     0.007 A 
ENDBRANCH  11  12
ENDBRANCH  10  11
BRANCH  10  18
HETATM   18  C           1     -20.685  -5.273  -4.884  0.00  0.00     0.197 C 
HETATM   19  O           1     -21.173  -5.517  -3.759  0.00  0.00    -0.646 OA
HETATM   20  O           1     -19.815  -4.383  -5.008  0.00  0.00    -0.646 OA
ENDBRANCH  10  18
ENDBRANCH   8  10
ENDBRANCH   1   6
BRANCH   1  21
HETATM   21  C           1     -20.504 -10.177  -3.798  0.00  0.00     0.083 C 
BRANCH  21  22
HETATM   22  C           1     -21.480 -10.398  -2.684  0.00  0.00    -0.028 A 
HETATM   23  C           1     -22.143 -11.573  -2.408  0.00  0.00     0.096 A 
HETATM   24  N           1     -22.941 -11.355  -1.315  0.00  0.00    -0.365 N 
HETATM   25  H           1     -23.564 -12.076  -0.874  0.00  0.00     0.165 HD
HETATM   26  C           1     -22.805 -10.057  -0.876  0.00  0.00     0.042 A 
HETATM   27  C           1     -23.417  -9.396   0.195  0.00  0.00     0.030 A 
HETATM   28  C           1     -21.890  -9.432  -1.723  0.00  0.00    -0.002 A 
HETATM   29  C           1     -23.081  -8.055   0.403  0.00  0.00     0.002 A 
HETATM   30  C           1     -22.170  -7.404  -0.427  0.00  0.00     0.001 A 
HETATM   31  C           1     -21.567  -8.081  -1.494  0.00  0.00     0.014 A 
ENDBRANCH  21  22
ENDBRANCH   1  21
TORSDOF 8
ENDMDL
MODEL 4
REMARK VINA RESULT:      -7.9      2.885      7.851
REMARK  8 active torsions:
REMARK  status: ('A' for Active; 'I' for Inactive)
REMARK    1  A    between atoms: C_2  and  C_3 
REMARK    2  A    between atoms: C_3  and  C_4 
REMARK    3  A    between atoms: C_4  and  C_30 
REMARK    4  A    between atoms: C_4  and  N_22 
REMARK    5  A    between atoms: N_6  and  C_11 
REMARK    6  A    between atoms: C_11  and  C_23 
REMARK    7  A    between atoms: C_11  and  C_13 
REMARK    8  A    between atoms: C_13  and  C_17 
REMARK       I    between atoms: N_22  and  C_23 
ROOT
HETATM    1  C           1     -21.209 -10.819  -5.229  0.00  0.00     0.278 C 
ENDROOT
BRANCH   1   2
HETATM    2  N           1     -20.863 -11.264  -6.619  0.00  0.00    -0.066 N 
HETATM    3  H           1     -21.736 -11.346  -7.187  0.00  0.00     0.275 HD
HETATM    4  H           1     -20.225 -10.563  -7.061  0.00  0.00     0.275 HD
HETATM    5  H           1     -20.385 -12.192  -6.579  0.00  0.00     0.275 HD
ENDBRANCH   1   2
BRANCH   1   6
HETATM    6  C           1     -20.853  -9.362  -5.066  0.00  0.00     0.249 C 
HETATM    7  O           1     -19.785  -8.953  -5.454  0.00  0.00    -0.271 OA
HETATM    8  N           1     -21.741  -8.502  -4.479  0.00  0.00    -0.344 N 
HETATM    9  H           1     -22.637  -8.843  -4.153  0.00  0.00     0.163 HD
BRANCH   8  10
HETATM   10  C           1     -21.400  -7.102  -4.321  0.00  0.00     0.189 C 
BRANCH  10  11
HETATM   11  C           1     -22.331  -6.253  -5.177  0.00  0.00     0.074 C 
BRANCH  11  12
HETATM   12  C           1     -21.525  -5.463  -6.161  0.00  0.00    -0.056 A 
HETATM   13  C           1     -20.132  -5.533  -6.138  0.00  0.00     0.007 A 
HETATM   14  C           1     -19.382  -4.796  -7.055  0.00  0.00     0.001 A 
HETATM   15  C           1     -20.025  -3.989  -7.994  0.00  0.00     0.000 A 
HETATM   16  C           1     -21.417  -3.920  -8.016  0.00  0.00     0.001 A 
HETATM   17  C           1     -22.168  -4.656  -7.100  0.00  0.00     0.007 A 
ENDBRANCH  11  12
ENDBRANCH  10  11
BRANCH  10  18
HETATM   18  C           1     -21.551  -6.706  -2.873  0.00  0.00     0.197 C 
HETATM   19  O           1     -22.432  -5.885  -2.537  0.00  0.00    -0.646 OA
HETATM   20  O           1     -20.795  -7.200  -2.008  0.00  0.00    -0.646 OA
ENDBRANCH  10  18
ENDBRANCH   8  10
ENDBRANCH   1   6
BRANCH   1  21
HETATM   21  C           1     -20.424 -11.648  -4.221  0.00  0.00     0.083 C 
BRANCH  21  22
HETATM   22  C           1     -20.621 -11.083  -2.848  0.00  0.00    -0.028 A 
HETATM   23  C           1     -19.667 -10.439  -2.093  0.00  0.00     0.096 A 
HETATM   24  N           1     -20.248 -10.080  -0.905  0.00  0.00    -0.365 N 
HETATM   25  H           1     -19.760  -9.571  -0.127  0.00  0.00     0.165 HD
HETATM   26  C           1     -21.565 -10.481  -0.878  0.00  0.00     0.042 A 
HETATM   27  C           1     -22.536 -10.331   0.119  0.00  0.00     0.030 A 
HETATM   28  C           1     -21.825 -11.117  -2.092  0.00  0.00    -0.002 A 
HETATM   29  C           1     -23.810 -10.848  -0.136  0.00  0.00     0.002 A 
HETATM   30  C           1     -24.098 -11.488  -1.340  0.00  0.00     0.001 A 
HETATM   31  C           1     -23.115 -11.630  -2.327  0.00  0.00     0.014 A 
ENDBRANCH  21  22
ENDBRANCH   1  21
TORSDOF 8
ENDMDL
MODEL 5
REMARK VINA RESULT:      -7.6      3.263      7.817
REMARK  8 active torsions:
REMARK  status: ('A' for Active; 'I' for Inactive)
REMARK    1  A    between atoms: C_2  and  C_3 
REMARK    2  A    between atoms: C_3  and  C_4 
REMARK    3  A    between atoms: C_4  and  C_30 
REMARK    4  A    between atoms: C_4  and  N_22 
REMARK    5  A    between atoms: N_6  and  C_11 
REMARK    6  A    between atoms: C_11  and  C_23 
REMARK    7  A    between atoms: C_11  and  C_13 
REMARK    8  A    between atoms: C_13  and  C_17 
REMARK       I    between atoms: N_22  and  C_23 
ROOT
HETATM    1  C           1     -19.107 -10.658  -5.401  0.00  0.00     0.278 C 
ENDROOT
BRANCH   1   2
HETATM    2  N           1     -19.410 -11.172  -6.777  0.00  0.00    -0.066 N 
HETATM    3  H           1     -19.291 -12.210  -6.796  0.00  0.00     0.275 HD
HETATM    4  H           1     -20.395 -10.930  -7.030  0.00  0.00     0.275 HD
HETATM    5  H           1     -18.757 -10.734  -7.464  0.00  0.00     0.275 HD
ENDBRANCH   1   2
BRANCH   1   6
HETATM    6  C           1     -20.272  -9.839  -4.903  0.00  0.00     0.249 C 
HETATM    7  O           1     -21.305 -10.382  -4.593  0.00  0.00    -0.271 OA
HETATM    8  N           1     -20.159  -8.478  -4.803  0.00  0.00    -0.344 N 
HETATM    9  H           1     -19.293  -8.022  -5.063  0.00  0.00     0.163 HD
BRANCH   8  10
HETATM   10  C           1     -21.278  -7.690  -4.326  0.00  0.00     0.189 C 
BRANCH  10  11
HETATM   11  C           1     -20.831  -6.839  -3.144  0.00  0.00     0.074 C 
BRANCH  11  12
HETATM   12  C           1     -21.302  -7.467  -1.869  0.00  0.00    -0.056 A 
HETATM   13  C           1     -22.356  -6.894  -1.157  0.00  0.00     0.007 A 
HETATM   14  C           1     -22.793  -7.479   0.031  0.00  0.00     0.001 A 
HETATM   15  C           1     -22.177  -8.637   0.507  0.00  0.00     0.000 A 
HETATM   16  C           1     -21.123  -9.209  -0.205  0.00  0.00     0.001 A 
HETATM   17  C           1     -20.686  -8.624  -1.393  0.00  0.00     0.007 A 
ENDBRANCH  11  12
ENDBRANCH  10  11
BRANCH  10  18
HETATM   18  C           1     -21.770  -6.792  -5.434  0.00  0.00     0.197 C 
HETATM   19  O           1     -21.241  -6.847  -6.565  0.00  0.00    -0.646 OA
HETATM   20  O           1     -22.707  -5.992  -5.221  0.00  0.00    -0.646 OA
ENDBRANCH  10  18
ENDBRANCH   8  10
ENDBRANCH   1   6
BRANCH   1  21
HETATM   21  C           1     -17.858  -9.788  -5.448  0.00  0.00     0.083 C 
BRANCH  21  22
HETATM   22  C           1     -16.772 -10.430  -4.642  0.00  0.00    -0.028 A 
HETATM   23  C           1     -16.629 -10.362  -3.274  0.00  0.00     0.096 A 
HETATM   24  N           1     -15.512 -11.079  -2.934  0.00  0.00    -0.365 N 
HETATM   25  H           1     -15.155 -11.205  -1.956  0.00  0.00     0.165 HD
HETATM   26  C           1     -14.927 -11.613  -4.061  0.00  0.00     0.042 A 
HETATM   27  C           1     -13.782 -12.406  -4.196  0.00  0.00     0.030 A 
HETATM   28  C           1     -15.702 -11.217  -5.151  0.00  0.00    -0.002 A 
HETATM   29  C           1     -13.421 -12.806  -5.486  0.00  0.00     0.002 A 
HETATM   30  C           1     -14.176 -12.426  -6.595  0.00  0.00     0.001 A 
HETATM   31  C           1     -15.319 -11.631  -6.442  0.00  0.00     0.014 A 
ENDBRANCH  21  22
ENDBRANCH   1  21
TORSDOF 8
ENDMDL
MODEL 6
REMARK VINA RESULT:      -7.6      3.704      5.172
REMARK  8 active torsions:
REMARK  status: ('A' for Active; 'I' for Inactive)
REMARK    1  A    between atoms: C_2  and  C_3 
REMARK    2  A    between atoms: C_3  and  C_4 
REMARK    3  A    between atoms: C_4  and  C_30 
REMARK    4  A    between atoms: C_4  and  N_22 
REMARK    5  A    between atoms: N_6  and  C_11 
REMARK    6  A    between atoms: C_11  and  C_23 
REMARK    7  A    between atoms: C_11  and  C_13 
REMARK    8  A    between atoms: C_13  and  C_17 
REMARK       I    between atoms: N_22  and  C_23 
ROOT
HETATM    1  C           1     -20.450  -8.936  -4.749  0.00  0.00     0.278 C 
ENDROOT
BRANCH   1   2
HETATM    2  N           1     -21.247  -9.171  -5.998  0.00  0.00    -0.066 N 
HETATM    3  H           1     -22.054  -9.799  -5.785  0.00  0.00     0.275 HD
HETATM    4  H           1     -21.605  -8.257  -6.359  0.00  0.00     0.275 HD
HETATM    5  H           1     -20.640  -9.617  -6.721  0.00  0.00     0.275 HD
ENDBRANCH   1   2
BRANCH   1   6
HETATM    6  C           1     -21.313  -9.216  -3.543  0.00  0.00     0.249 C 
HETATM    7  O           1     -22.190 -10.044  -3.606  0.00  0.00    -0.271 OA
HETATM    8  N           1     -21.101  -8.532  -2.377  0.00  0.00    -0.344 N 
HETATM    9  H           1     -20.366  -7.838  -2.323  0.00  0.00     0.163 HD
BRANCH   8  10
HETATM   10  C           1     -21.930  -8.799  -1.218  0.00  0.00     0.189 C 
BRANCH  10  11
HETATM   11  C           1     -21.122  -9.572  -0.184  0.00  0.00     0.074 C 
BRANCH  11  12
HETATM   12  C           1     -21.847 -10.830   0.180  0.00  0.00    -0.056 A 
HETATM   13  C           1     -21.183 -11.844   0.871  0.00  0.00     0.007 A 
HETATM   14  C           1     -21.860 -13.016   1.209  0.00  0.00     0.001 A 
HETATM   15  C           1     -23.200 -13.174   0.857  0.00  0.00     0.000 A 
HETATM   16  C           1     -23.864 -12.160   0.167  0.00  0.00     0.001 A 
HETATM   17  C           1     -23.188 -10.988  -0.172  0.00  0.00     0.007 A 
ENDBRANCH  11  12
ENDBRANCH  10  11
BRANCH  10  18
HETATM   18  C           1     -22.394  -7.495  -0.619  0.00  0.00     0.197 C 
HETATM   19  O           1     -22.853  -7.468   0.544  0.00  0.00    -0.646 OA
HETATM   20  O           1     -22.320  -6.439  -1.285  0.00  0.00    -0.646 OA
ENDBRANCH  10  18
ENDBRANCH   8  10
ENDBRANCH   1   6
BRANCH   1  21
HETATM   21  C           1     -19.981  -7.488  -4.713  0.00  0.00     0.083 C 
BRANCH  21  22
HETATM   22  C           1     -21.012  -6.612  -5.354  0.00  0.00    -0.028 A 
HETATM   23  C           1     -22.308  -6.438  -4.924  0.00  0.00     0.096 A 
HETATM   24  N           1     -22.919  -5.562  -5.784  0.00  0.00    -0.365 N 
HETATM   25  H           1     -23.915  -5.239  -5.704  0.00  0.00     0.165 HD
HETATM   26  C           1     -22.039  -5.165  -6.765  0.00  0.00     0.042 A 
HETATM   27  C           1     -22.220  -4.291  -7.843  0.00  0.00     0.030 A 
HETATM   28  C           1     -20.829  -5.814  -6.517  0.00  0.00    -0.002 A 
HETATM   29  C           1     -21.129  -4.075  -8.691  0.00  0.00     0.002 A 
HETATM   30  C           1     -19.909  -4.710  -8.468  0.00  0.00     0.001 A 
HETATM   31  C           1     -19.745  -5.582  -7.385  0.00  0.00     0.014 A 
ENDBRANCH  21  22
ENDBRANCH   1  21
TORSDOF 8
ENDMDL
MODEL 7
REMARK VINA RESULT:      -7.5      3.910      6.172
REMARK  8 active torsions:
REMARK  status: ('A' for Active; 'I' for Inactive)
REMARK    1  A    between atoms: C_2  and  C_3 
REMARK    2  A    between atoms: C_3  and  C_4 
REMARK    3  A    between atoms: C_4  and  C_30 
REMARK    4  A    between atoms: C_4  and  N_22 
REMARK    5  A    between atoms: N_6  and  C_11 
REMARK    6  A    between atoms: C_11  and  C_23 
REMARK    7  A    between atoms: C_11  and  C_13 
REMARK    8  A    between atoms: C_13  and  C_17 
REMARK       I    between atoms: N_22  and  C_23 
ROOT
HETATM    1  C           1     -19.838  -7.838  -4.980  0.00  0.00     0.278 C 
ENDROOT
BRANCH   1   2
HETATM    2  N           1     -19.752  -7.290  -6.373  0.00  0.00    -0.066 N 
HETATM    3  H           1     -19.795  -8.076  -7.061  0.00  0.00     0.275 HD
HETATM    4  H           1     -20.552  -6.638  -6.540  0.00  0.00     0.275 HD
HETATM    5  H           1     -18.852  -6.774  -6.490  0.00  0.00     0.275 HD
ENDBRANCH   1   2
BRANCH   1   6
HETATM    6  C           1     -19.011  -9.096  -4.884  0.00  0.00     0.249 C 
HETATM    7  O           1     -18.984  -9.874  -5.808  0.00  0.00    -0.271 OA
HETATM    8  N           1     -18.291  -9.357  -3.750  0.00  0.00    -0.344 N 
HETATM    9  H           1     -18.313  -8.706  -2.975  0.00  0.00     0.163 HD
BRANCH   8  10
HETATM   10  C           1     -17.497 -10.566  -3.656  0.00  0.00     0.189 C 
BRANCH  10  11
HETATM   11  C           1     -16.018 -10.203  -3.645  0.00  0.00     0.074 C 
BRANCH  11  12
HETATM   12  C           1     -15.278 -11.087  -4.601  0.00  0.00    -0.056 A 
HETATM   13  C           1     -14.278 -11.939  -4.131  0.00  0.00     0.007 A 
HETATM   14  C           1     -13.589 -12.762  -5.022  0.00  0.00     0.001 A 
HETATM   15  C           1     -13.899 -12.732  -6.381  0.00  0.00     0.000 A 
HETATM   16  C           1     -14.898 -11.881  -6.850  0.00  0.00     0.001 A 
HETATM   17  C           1     -15.588 -11.057  -5.960  0.00  0.00     0.007 A 
ENDBRANCH  11  12
ENDBRANCH  10  11
BRANCH  10  18
HETATM   18  C           1     -17.843 -11.299  -2.384  0.00  0.00     0.197 C 
HETATM   19  O           1     -16.981 -11.441  -1.489  0.00  0.00    -0.646 OA
HETATM   20  O           1     -18.992 -11.765  -2.223  0.00  0.00    -0.646 OA
ENDBRANCH  10  18
ENDBRANCH   8  10
ENDBRANCH   1   6
BRANCH   1  21
HETATM   21  C           1     -21.290  -8.159  -4.650  0.00  0.00     0.083 C 
BRANCH  21  22
HETATM   22  C           1     -21.672  -7.483  -3.370  0.00  0.00    -0.028 A 
HETATM   23  C           1     -22.033  -6.162  -3.226  0.00  0.00     0.096 A 
HETATM   24  N           1     -22.305  -5.945  -1.900  0.00  0.00    -0.365 N 
HETATM   25  H           1     -22.607  -5.026  -1.492  0.00  0.00     0.165 HD
HETATM   26  C           1     -22.125  -7.105  -1.181  0.00  0.00     0.042 A 
HETATM   27  C           1     -22.284  -7.355   0.187  0.00  0.00     0.030 A 
HETATM   28  C           1     -21.726  -8.090  -2.084  0.00  0.00    -0.002 A 
HETATM   29  C           1     -22.025  -8.651   0.642  0.00  0.00     0.002 A 
HETATM   30  C           1     -21.625  -9.655  -0.237  0.00  0.00     0.001 A 
HETATM   31  C           1     -21.471  -9.389  -1.603  0.00  0.00     0.014 A 
ENDBRANCH  21  22
ENDBRANCH   1  21
TORSDOF 8
ENDMDL
MODEL 8
REMARK VINA RESULT:      -7.5      4.965      8.228
REMARK  8 active torsions:
REMARK  status: ('A' for Active; 'I' for Inactive)
REMARK    1  A    between atoms: C_2  and  C_3 
REMARK    2  A    between atoms: C_3  and  C_4 
REMARK    3  A    between atoms: C_4  and  C_30 
REMARK    4  A    between atoms: C_4  and  N_22 
REMARK    5  A    between atoms: N_6  and  C_11 
REMARK    6  A    between atoms: C_11  and  C_23 
REMARK    7  A    between atoms: C_11  and  C_13 
REMARK    8  A    between atoms: C_13  and  C_17 
REMARK       I    between atoms: N_22  and  C_23 
ROOT
HETATM    1  C           1     -19.143  -9.984  -4.097  0.00  0.00     0.278 C 
ENDROOT
BRANCH   1   2
HETATM    2  N           1     -19.225  -9.520  -5.521  0.00  0.00    -0.066 N 
HETATM    3  H           1     -19.520 -10.316  -6.131  0.00  0.00     0.275 HD
HETATM    4  H           1     -19.926  -8.748  -5.596  0.00  0.00     0.275 HD
HETATM    5  H           1     -18.290  -9.173  -5.830  0.00  0.00     0.275 HD
ENDBRANCH   1   2
BRANCH   1   6
HETATM    6  C           1     -20.421  -9.628  -3.378  0.00  0.00     0.249 C 
HETATM    7  O           1     -21.410 -10.303  -3.535  0.00  0.00    -0.271 OA
HETATM    8  N           1     -20.459  -8.540  -2.549  0.00  0.00    -0.344 N 
HETATM    9  H           1     -19.631  -7.974  -2.417  0.00  0.00     0.163 HD
BRANCH   8  10
HETATM   10  C           1     -21.687  -8.198  -1.858  0.00  0.00     0.189 C 
BRANCH  10  11
HETATM   11  C           1     -21.528  -8.478  -0.370  0.00  0.00     0.074 C 
BRANCH  11  12
HETATM   12  C           1     -22.059  -9.842  -0.057  0.00  0.00    -0.056 A 
HETATM   13  C           1     -21.216 -10.812   0.486  0.00  0.00     0.007 A 
HETATM   14  C           1     -21.712 -12.083   0.777  0.00  0.00     0.001 A 
HETATM   15  C           1     -23.050 -12.384   0.524  0.00  0.00     0.000 A 
HETATM   16  C           1     -23.893 -11.414  -0.019  0.00  0.00     0.001 A 
HETATM   17  C           1     -23.397 -10.144  -0.310  0.00  0.00     0.007 A 
ENDBRANCH  11  12
ENDBRANCH  10  11
BRANCH  10  18
HETATM   18  C           1     -21.989  -6.734  -2.064  0.00  0.00     0.197 C 
HETATM   19  O           1     -21.850  -6.219  -3.195  0.00  0.00    -0.646 OA
HETATM   20  O           1     -22.378  -6.034  -1.103  0.00  0.00    -0.646 OA
ENDBRANCH  10  18
ENDBRANCH   8  10
ENDBRANCH   1   6
BRANCH   1  21
HETATM   21  C           1     -17.967  -9.301  -3.410  0.00  0.00     0.083 C 
BRANCH  21  22
HETATM   22  C           1     -16.942 -10.327  -3.037  0.00  0.00    -0.028 A 
HETATM   23  C           1     -16.787 -10.905  -1.798  0.00  0.00     0.096 A 
HETATM   24  N           1     -15.740 -11.787  -1.876  0.00  0.00    -0.365 N 
HETATM   25  H           1     -15.391 -12.376  -1.081  0.00  0.00     0.165 HD
HETATM   26  C           1     -15.214 -11.790  -3.148  0.00  0.00     0.042 A 
HETATM   27  C           1     -14.150 -12.523  -3.685  0.00  0.00     0.030 A 
HETATM   28  C           1     -15.954 -10.877  -3.900  0.00  0.00    -0.002 A 
HETATM   29  C           1     -13.835 -12.315  -5.031  0.00  0.00     0.002 A 
HETATM   30  C           1     -14.556 -11.410  -5.807  0.00  0.00     0.001 A 
HETATM   31  C           1     -15.618 -10.683  -5.254  0.00  0.00     0.014 A 
ENDBRANCH  21  22
ENDBRANCH   1  21
TORSDOF 8
ENDMDL
MODEL 9
REMARK VINA RESULT:      -7.4      3.056      4.395
REMARK  8 active torsions:
REMARK  status: ('A' for Active; 'I' for Inactive)
REMARK    1  A    between atoms: C_2  and  C_3 
REMARK    2  A    between atoms: C_3  and  C_4 
REMARK    3  A    between atoms: C_4  and  C_30 
REMARK    4  A    between atoms: C_4  and  N_22 
REMARK    5  A    between atoms: N_6  and  C_11 
REMARK    6  A    between atoms: C_11  and  C_23 
REMARK    7  A    between atoms: C_11  and  C_13 
REMARK    8  A    between atoms: C_13  and  C_17 
REMARK       I    between atoms: N_22  and  C_23 
ROOT
HETATM    1  C           1     -20.531  -5.738  -6.095  0.00  0.00     0.278 C 
ENDROOT
BRANCH   1   2
HETATM    2  N           1     -20.666  -6.528  -7.364  0.00  0.00    -0.066 N 
HETATM    3  H           1     -21.636  -6.425  -7.738  0.00  0.00     0.275 HD
HETATM    4  H           1     -19.982  -6.171  -8.070  0.00  0.00     0.275 HD
HETATM    5  H           1     -20.472  -7.535  -7.169  0.00  0.00     0.275 HD
ENDBRANCH   1   2
BRANCH   1   6
HETATM    6  C           1     -21.390  -6.361  -5.023  0.00  0.00     0.249 C 
HETATM    7  O           1     -22.552  -6.047  -4.920  0.00  0.00    -0.271 OA
HETATM    8  N           1     -20.852  -7.283  -4.165  0.00  0.00    -0.344 N 
HETATM    9  H           1     -19.878  -7.546  -4.251  0.00  0.00     0.163 HD
BRANCH   8  10
HETATM   10  C           1     -21.676  -7.882  -3.134  0.00  0.00     0.189 C 
BRANCH  10  11
HETATM   11  C           1     -21.122  -9.254  -2.775  0.00  0.00     0.074 C 
BRANCH  11  12
HETATM   12  C           1     -22.183 -10.059  -2.091  0.00  0.00    -0.056 A 
HETATM   13  C           1     -22.504  -9.801  -0.758  0.00  0.00     0.007 A 
HETATM   14  C           1     -23.492 -10.552  -0.121  0.00  0.00     0.001 A 
HETATM   15  C           1     -24.159 -11.560  -0.817  0.00  0.00     0.000 A 
HETATM   16  C           1     -23.838 -11.818  -2.149  0.00  0.00     0.001 A 
HETATM   17  C           1     -22.850 -11.068  -2.786  0.00  0.00     0.007 A 
ENDBRANCH  11  12
ENDBRANCH  10  11
BRANCH  10  18
HETATM   18  C           1     -21.669  -7.001  -1.909  0.00  0.00     0.197 C 
HETATM   19  O           1     -22.571  -6.152  -1.743  0.00  0.00    -0.646 OA
HETATM   20  O           1     -20.760  -7.121  -1.058  0.00  0.00    -0.646 OA
ENDBRANCH  10  18
ENDBRANCH   8  10
ENDBRANCH   1   6
BRANCH   1  21
HETATM   21  C           1     -20.986  -4.305  -6.341  0.00  0.00     0.083 C 
BRANCH  21  22
HETATM   22  C           1     -21.931  -4.273  -7.503  0.00  0.00    -0.028 A 
HETATM   23  C           1     -23.304  -4.336  -7.433  0.00  0.00     0.096 A 
HETATM   24  N           1     -23.790  -4.279  -8.713  0.00  0.00    -0.365 N 
HETATM   25  H           1     -24.807  -4.305  -8.971  0.00  0.00     0.165 HD
HETATM   26  C           1     -22.752  -4.179  -9.613  0.00  0.00     0.042 A 
HETATM   27  C           1     -22.771  -4.094 -11.010  0.00  0.00     0.030 A 
HETATM   28  C           1     -21.569  -4.174  -8.875  0.00  0.00    -0.002 A 
HETATM   29  C           1     -21.542  -4.002 -11.669  0.00  0.00     0.002 A 
HETATM   30  C           1     -20.343  -3.995 -10.958  0.00  0.00     0.001 A 
HETATM   31  C           1     -20.342  -4.081  -9.560  0.00  0.00     0.014 A 
ENDBRANCH  21  22
ENDBRANCH   1  21
TORSDOF 8
ENDMDL
