MODEL 1
REMARK VINA RESULT:      -7.6      0.000      0.000
REMARK  12 active torsions:
REMARK  status: ('A' for Active; 'I' for Inactive)
REMARK    1  A    between atoms: N_9  and  C_22 
REMARK    2  A    between atoms: O_14  and  P_15 
REMARK    3  A    between atoms: P_15  and  O_16 
REMARK    4  A    between atoms: O_16  and  C_17 
REMARK    5  A    between atoms: C_20  and  C_21 
REMARK    6  A    between atoms: C_21  and  C_22 
REMARK    7  A    between atoms: C_22  and  C_23 
REMARK       I    between atoms: C_23  and  N_24 
REMARK    8  A    between atoms: N_24  and  C_28 
REMARK    9  A    between atoms: C_27  and  C_28 
REMARK   10  A    between atoms: C_28  and  C_29 
REMARK   11  A    between atoms: C_29  and  C_30 
REMARK   12  A    between atoms: C_30  and  C_32 
REMARK       I    between atoms: N_31  and  C_32 
ROOT
HETATM    1  C           1     -21.435  -6.851  -4.599  0.00  0.00     0.278 C 
ENDROOT
BRANCH   1   2
HETATM    2  N           1     -21.447  -5.821  -3.508  0.00  0.00    -0.066 N 
HETATM    3  H           1     -22.407  -5.756  -3.101  0.00  0.00     0.275 HD
HETATM    4  H           1     -21.170  -4.894  -3.902  0.00  0.00     0.275 HD
HETATM    5  H           1     -20.769  -6.097  -2.761  0.00  0.00     0.275 HD
ENDBRANCH   1   2
BRANCH   1   6
HETATM    6  C           1     -20.348  -6.506  -5.608  0.00  0.00     0.081 C 
BRANCH   6   7
HETATM    7  C           1     -20.936  -5.694  -6.719  0.00  0.00    -0.056 A 
HETATM    8  C           1     -20.228  -5.521  -7.908  0.00  0.00     0.010 A 
HETATM    9  C           1     -20.776  -4.764  -8.942  0.00  0.00     0.038 A 
HETATM   10  C           1     -22.034  -4.181  -8.790  0.00  0.00     0.081 A 
HETATM   11  C           1     -22.742  -4.354  -7.601  0.00  0.00     0.038 A 
HETATM   12  C           1     -22.194  -5.111  -6.565  0.00  0.00     0.010 A 
BRANCH  10  13
HETATM   13  O           1     -22.566  -3.445  -9.795  0.00  0.00    -0.247 OA
BRANCH  13  14
HETATM   14  P           1     -23.608  -4.169 -10.795  0.00  0.00     0.411 P 
HETATM   15  O           1     -24.808  -3.319 -10.956  0.00  0.00    -0.624 OA
HETATM   16  O           1     -24.001  -5.480 -10.231  0.00  0.00    -0.624 OA
BRANCH  14  17
HETATM   17  O           1     -22.908  -4.391 -12.233  0.00  0.00    -0.300 OA
HETATM   18  H           1     -22.713  -3.525 -12.546  0.00  0.00     0.223 HD
ENDBRANCH  14  17
ENDBRANCH  13  14
ENDBRANCH  10  13
ENDBRANCH   6   7
ENDBRANCH   1   6
BRANCH   1  19
HETATM   19  C           1     -21.158  -8.210  -4.005  0.00  0.00     0.249 C 
HETATM   20  O           1     -20.469  -9.001  -4.602  0.00  0.00    -0.271 OA
HETATM   21  N           1     -21.688  -8.545  -2.787  0.00  0.00    -0.345 N 
HETATM   22  H           1     -22.265  -7.882  -2.286  0.00  0.00     0.163 HD
BRANCH  21  23
HETATM   23  C           1     -21.421  -9.851  -2.216  0.00  0.00     0.186 C 
BRANCH  23  24
HETATM   24  C           1     -22.606 -10.754  -2.453  0.00  0.00     0.196 C 
HETATM   25  O           1     -22.708 -11.383  -3.528  0.00  0.00    -0.646 OA
HETATM   26  O           1     -23.487 -10.873  -1.574  0.00  0.00    -0.646 OA
ENDBRANCH  23  24
BRANCH  23  27
HETATM   27  C           1     -21.179  -9.713  -0.719  0.00  0.00     0.045 C 
BRANCH  27  28
HETATM   28  C           1     -21.107  -8.237  -0.350  0.00  0.00     0.105 C 
BRANCH  28  29
HETATM   29  C           1     -22.504  -7.676  -0.240  0.00  0.00     0.215 C 
HETATM   30  N           1     -23.445  -8.326   0.512  0.00  0.00    -0.370 N 
HETATM   31  H           1     -24.382  -7.951   0.586  0.00  0.00     0.159 HD
HETATM   32  H           1     -23.204  -9.183   0.994  0.00  0.00     0.159 HD
HETATM   33  O           1     -22.791  -6.654  -0.815  0.00  0.00    -0.274 OA
ENDBRANCH  28  29
ENDBRANCH  27  28
ENDBRANCH  23  27
ENDBRANCH  21  23
ENDBRANCH   1  19
TORSDOF 12
ENDMDL
MODEL 2
REMARK VINA RESULT:      -7.5      2.289      3.469
REMARK  12 active torsions:
REMARK  status: ('A' for Active; 'I' for Inactive)
REMARK    1  A    between atoms: N_9  and  C_22 
REMARK    2  A    between atoms: O_14  and  P_15 
REMARK    3  A    between atoms: P_15  and  O_16 
REMARK    4  A    between atoms: O_16  and  C_17 
REMARK    5  A    between atoms: C_20  and  C_21 
REMARK    6  A    between atoms: C_21  and  C_22 
REMARK    7  A    between atoms: C_22  and  C_23 
REMARK       I    between atoms: C_23  and  N_24 
REMARK    8  A    between atoms: N_24  and  C_28 
REMARK    9  A    between atoms: C_27  and  C_28 
REMARK   10  A    between atoms: C_28  and  C_29 
REMARK   11  A    between atoms: C_29  and  C_30 
REMARK   12  A    between atoms: C_30  and  C_32 
REMARK       I    between atoms: N_31  and  C_32 
ROOT
HETATM    1  C           1     -21.436  -6.567  -4.928  0.00  0.00     0.278 C 
ENDROOT
BRANCH   1   2
HETATM    2  N           1     -21.876  -6.000  -3.610  0.00  0.00    -0.066 N 
HETATM    3  H           1     -21.195  -5.272  -3.300  0.00  0.00     0.275 HD
HETATM    4  H           1     -21.918  -6.766  -2.900  0.00  0.00     0.275 HD
HETATM    5  H           1     -22.823  -5.571  -3.714  0.00  0.00     0.275 HD
ENDBRANCH   1   2
BRANCH   1   6
HETATM    6  C           1     -20.397  -5.646  -5.554  0.00  0.00     0.081 C 
BRANCH   6   7
HETATM    7  C           1     -20.921  -5.109  -6.849  0.00  0.00    -0.056 A 
HETATM    8  C           1     -20.135  -5.173  -7.999  0.00  0.00     0.010 A 
HETATM    9  C           1     -20.623  -4.672  -9.206  0.00  0.00     0.038 A 
HETATM   10  C           1     -21.898  -4.110  -9.263  0.00  0.00     0.081 A 
HETATM   11  C           1     -22.684  -4.046  -8.113  0.00  0.00     0.038 A 
HETATM   12  C           1     -22.196  -4.547  -6.905  0.00  0.00     0.010 A 
BRANCH  10  13
HETATM   13  O           1     -22.372  -3.624 -10.436  0.00  0.00    -0.247 OA
BRANCH  13  14
HETATM   14  P           1     -23.701  -4.300 -11.055  0.00  0.00     0.411 P 
HETATM   15  O           1     -24.834  -3.356 -10.939  0.00  0.00    -0.624 OA
HETATM   16  O           1     -24.013  -5.542 -10.313  0.00  0.00    -0.624 OA
BRANCH  14  17
HETATM   17  O           1     -23.451  -4.653 -12.611  0.00  0.00    -0.300 OA
HETATM   18  H           1     -24.193  -4.294 -13.065  0.00  0.00     0.223 HD
ENDBRANCH  14  17
ENDBRANCH  13  14
ENDBRANCH  10  13
ENDBRANCH   6   7
ENDBRANCH   1   6
BRANCH   1  19
HETATM   19  C           1     -20.834  -7.933  -4.711  0.00  0.00     0.249 C 
HETATM   20  O           1     -20.808  -8.733  -5.616  0.00  0.00    -0.271 OA
HETATM   21  N           1     -20.315  -8.266  -3.488  0.00  0.00    -0.345 N 
HETATM   22  H           1     -20.336  -7.597  -2.730  0.00  0.00     0.163 HD
BRANCH  21  23
HETATM   23  C           1     -19.735  -9.580  -3.280  0.00  0.00     0.186 C 
BRANCH  23  24
HETATM   24  C           1     -20.126 -10.090  -1.915  0.00  0.00     0.196 C 
HETATM   25  O           1     -19.828 -11.256  -1.576  0.00  0.00    -0.646 OA
HETATM   26  O           1     -20.747  -9.349  -1.124  0.00  0.00    -0.646 OA
ENDBRANCH  23  24
BRANCH  23  27
HETATM   27  C           1     -18.218  -9.486  -3.372  0.00  0.00     0.045 C 
BRANCH  27  28
HETATM   28  C           1     -17.701 -10.540  -4.343  0.00  0.00     0.105 C 
BRANCH  28  29
HETATM   29  C           1     -17.143  -9.864  -5.571  0.00  0.00     0.215 C 
HETATM   30  N           1     -17.991  -9.332  -6.504  0.00  0.00    -0.370 N 
HETATM   31  H           1     -17.618  -8.879  -7.329  0.00  0.00     0.159 HD
HETATM   32  H           1     -18.993  -9.391  -6.370  0.00  0.00     0.159 HD
HETATM   33  O           1     -15.948  -9.794  -5.731  0.00  0.00    -0.274 OA
ENDBRANCH  28  29
ENDBRANCH  27  28
ENDBRANCH  23  27
ENDBRANCH  21  23
ENDBRANCH   1  19
TORSDOF 12
ENDMDL
MODEL 3
REMARK VINA RESULT:      -7.4      1.301      1.797
REMARK  12 active torsions:
REMARK  status: ('A' for Active; 'I' for Inactive)
REMARK    1  A    between atoms: N_9  and  C_22 
REMARK    2  A    between atoms: O_14  and  P_15 
REMARK    3  A    between atoms: P_15  and  O_16 
REMARK    4  A    between atoms: O_16  and  C_17 
REMARK    5  A    between atoms: C_20  and  C_21 
REMARK    6  A    between atoms: C_21  and  C_22 
REMARK    7  A    between atoms: C_22  and  C_23 
REMARK       I    between atoms: C_23  and  N_24 
REMARK    8  A    between atoms: N_24  and  C_28 
REMARK    9  A    between atoms: C_27  and  C_28 
REMARK   10  A    between atoms: C_28  and  C_29 
REMARK   11  A    between atoms: C_29  and  C_30 
REMARK   12  A    between atoms: C_30  and  C_32 
REMARK       I    between atoms: N_31  and  C_32 
ROOT
HETATM    1  C           1     -21.408  -6.377  -4.914  0.00  0.00     0.278 C 
ENDROOT
BRANCH   1   2
HETATM    2  N           1     -21.669  -5.877  -3.524  0.00  0.00    -0.066 N 
HETATM    3  H           1     -21.183  -4.962  -3.386  0.00  0.00     0.275 HD
HETATM    4  H           1     -21.308  -6.572  -2.832  0.00  0.00     0.275 HD
HETATM    5  H           1     -22.697  -5.751  -3.386  0.00  0.00     0.275 HD
ENDBRANCH   1   2
BRANCH   1   6
HETATM    6  C           1     -20.362  -5.494  -5.582  0.00  0.00     0.081 C 
BRANCH   6   7
HETATM    7  C           1     -20.883  -5.010  -6.898  0.00  0.00    -0.056 A 
HETATM    8  C           1     -22.103  -4.337  -6.961  0.00  0.00     0.010 A 
HETATM    9  C           1     -22.589  -3.885  -8.188  0.00  0.00     0.038 A 
HETATM   10  C           1     -21.854  -4.105  -9.353  0.00  0.00     0.081 A 
HETATM   11  C           1     -20.634  -4.778  -9.290  0.00  0.00     0.038 A 
HETATM   12  C           1     -20.148  -5.230  -8.063  0.00  0.00     0.010 A 
BRANCH  10  13
HETATM   13  O           1     -22.326  -3.667 -10.544  0.00  0.00    -0.247 OA
BRANCH  13  14
HETATM   14  P           1     -23.700  -4.310 -11.099  0.00  0.00     0.411 P 
HETATM   15  O           1     -24.799  -3.332 -10.948  0.00  0.00    -0.624 OA
HETATM   16  O           1     -24.016  -5.534 -10.329  0.00  0.00    -0.624 OA
BRANCH  14  17
HETATM   17  O           1     -23.525  -4.688 -12.660  0.00  0.00    -0.300 OA
HETATM   18  H           1     -23.750  -5.601 -12.716  0.00  0.00     0.223 HD
ENDBRANCH  14  17
ENDBRANCH  13  14
ENDBRANCH  10  13
ENDBRANCH   6   7
ENDBRANCH   1   6
BRANCH   1  19
HETATM   19  C           1     -20.903  -7.797  -4.851  0.00  0.00     0.249 C 
HETATM   20  O           1     -20.186  -8.223  -5.725  0.00  0.00    -0.271 OA
HETATM   21  N           1     -21.255  -8.603  -3.801  0.00  0.00    -0.345 N 
HETATM   22  H           1     -21.855  -8.247  -3.069  0.00  0.00     0.163 HD
BRANCH  21  23
HETATM   23  C           1     -20.769  -9.968  -3.741  0.00  0.00     0.186 C 
BRANCH  23  24
HETATM   24  C           1     -21.886 -10.915  -4.103  0.00  0.00     0.196 C 
HETATM   25  O           1     -22.901 -10.991  -3.376  0.00  0.00    -0.646 OA
HETATM   26  O           1     -21.799 -11.623  -5.128  0.00  0.00    -0.646 OA
ENDBRANCH  23  24
BRANCH  23  27
HETATM   27  C           1     -20.281 -10.272  -2.331  0.00  0.00     0.045 C 
BRANCH  27  28
HETATM   28  C           1     -20.626  -9.108  -1.411  0.00  0.00     0.105 C 
BRANCH  28  29
HETATM   29  C           1     -21.535  -9.590  -0.307  0.00  0.00     0.215 C 
HETATM   30  N           1     -22.869  -9.772  -0.550  0.00  0.00    -0.370 N 
HETATM   31  H           1     -23.480 -10.095   0.190  0.00  0.00     0.159 HD
HETATM   32  H           1     -23.247  -9.585  -1.471  0.00  0.00     0.159 HD
HETATM   33  O           1     -21.085  -9.813   0.791  0.00  0.00    -0.274 OA
ENDBRANCH  28  29
ENDBRANCH  27  28
ENDBRANCH  23  27
ENDBRANCH  21  23
ENDBRANCH   1  19
TORSDOF 12
ENDMDL
MODEL 4
REMARK VINA RESULT:      -7.2      3.722      9.015
REMARK  12 active torsions:
REMARK  status: ('A' for Active; 'I' for Inactive)
REMARK    1  A    between atoms: N_9  and  C_22 
REMARK    2  A    between atoms: O_14  and  P_15 
REMARK    3  A    between atoms: P_15  and  O_16 
REMARK    4  A    between atoms: O_16  and  C_17 
REMARK    5  A    between atoms: C_20  and  C_21 
REMARK    6  A    between atoms: C_21  and  C_22 
REMARK    7  A    between atoms: C_22  and  C_23 
REMARK       I    between atoms: C_23  and  N_24 
REMARK    8  A    between atoms: N_24  and  C_28 
REMARK    9  A    between atoms: C_27  and  C_28 
REMARK   10  A    between atoms: C_28  and  C_29 
REMARK   11  A    between atoms: C_29  and  C_30 
REMARK   12  A    between atoms: C_30  and  C_32 
REMARK       I    between atoms: N_31  and  C_32 
ROOT
HETATM    1  C           1     -21.209  -5.603  -6.910  0.00  0.00     0.278 C 
ENDROOT
BRANCH   1   2
HETATM    2  N           1     -19.991  -5.991  -7.696  0.00  0.00    -0.066 N 
HETATM    3  H           1     -20.257  -6.689  -8.427  0.00  0.00     0.275 HD
HETATM    4  H           1     -19.282  -6.410  -7.053  0.00  0.00     0.275 HD
HETATM    5  H           1     -19.587  -5.142  -8.154  0.00  0.00     0.275 HD
ENDBRANCH   1   2
BRANCH   1   6
HETATM    6  C           1     -20.794  -5.201  -5.500  0.00  0.00     0.081 C 
BRANCH   6   7
HETATM    7  C           1     -21.097  -6.319  -4.553  0.00  0.00    -0.056 A 
HETATM    8  C           1     -21.209  -6.065  -3.186  0.00  0.00     0.010 A 
HETATM    9  C           1     -21.491  -7.107  -2.303  0.00  0.00     0.038 A 
HETATM   10  C           1     -21.662  -8.404  -2.787  0.00  0.00     0.081 A 
HETATM   11  C           1     -21.550  -8.659  -4.153  0.00  0.00     0.038 A 
HETATM   12  C           1     -21.268  -7.617  -5.037  0.00  0.00     0.010 A 
BRANCH  10  13
HETATM   13  O           1     -21.936  -9.416  -1.929  0.00  0.00    -0.247 OA
BRANCH  13  14
HETATM   14  P           1     -20.735 -10.420  -1.532  0.00  0.00     0.411 P 
HETATM   15  O           1     -20.945 -11.726  -2.195  0.00  0.00    -0.624 OA
HETATM   16  O           1     -20.714 -10.607  -0.064  0.00  0.00    -0.624 OA
BRANCH  14  17
HETATM   17  O           1     -19.327  -9.792  -2.014  0.00  0.00    -0.300 OA
HETATM   18  H           1     -19.249  -8.980  -1.544  0.00  0.00     0.223 HD
ENDBRANCH  14  17
ENDBRANCH  13  14
ENDBRANCH  10  13
ENDBRANCH   6   7
ENDBRANCH   1   6
BRANCH   1  19
HETATM   19  C           1     -21.893  -4.440  -7.584  0.00  0.00     0.249 C 
HETATM   20  O           1     -21.654  -3.310  -7.230  0.00  0.00    -0.271 OA
HETATM   21  N           1     -22.784  -4.665  -8.600  0.00  0.00    -0.345 N 
HETATM   22  H           1     -22.984  -5.611  -8.897  0.00  0.00     0.163 HD
BRANCH  21  23
HETATM   23  C           1     -23.441  -3.546  -9.249  0.00  0.00     0.186 C 
BRANCH  23  24
HETATM   24  C           1     -24.859  -3.929  -9.593  0.00  0.00     0.196 C 
HETATM   25  O           1     -25.709  -3.040  -9.819  0.00  0.00    -0.646 OA
HETATM   26  O           1     -25.184  -5.133  -9.654  0.00  0.00    -0.646 OA
ENDBRANCH  23  24
BRANCH  23  27
HETATM   27  C           1     -22.689  -3.183 -10.522  0.00  0.00     0.045 C 
BRANCH  27  28
HETATM   28  C           1     -21.951  -4.409 -11.044  0.00  0.00     0.105 C 
BRANCH  28  29
HETATM   29  C           1     -20.465  -4.149 -11.026  0.00  0.00     0.215 C 
HETATM   30  N           1     -19.974  -2.959 -11.490  0.00  0.00    -0.370 N 
HETATM   31  H           1     -18.977  -2.784 -11.479  0.00  0.00     0.159 HD
HETATM   32  H           1     -20.607  -2.253 -11.844  0.00  0.00     0.159 HD
HETATM   33  O           1     -19.710  -4.992 -10.604  0.00  0.00    -0.274 OA
ENDBRANCH  28  29
ENDBRANCH  27  28
ENDBRANCH  23  27
ENDBRANCH  21  23
ENDBRANCH   1  19
TORSDOF 12
ENDMDL
MODEL 5
REMARK VINA RESULT:      -7.0      3.281      4.743
REMARK  12 active torsions:
REMARK  status: ('A' for Active; 'I' for Inactive)
REMARK    1  A    between atoms: N_9  and  C_22 
REMARK    2  A    between atoms: O_14  and  P_15 
REMARK    3  A    between atoms: P_15  and  O_16 
REMARK    4  A    between atoms: O_16  and  C_17 
REMARK    5  A    between atoms: C_20  and  C_21 
REMARK    6  A    between atoms: C_21  and  C_22 
REMARK    7  A    between atoms: C_22  and  C_23 
REMARK       I    between atoms: C_23  and  N_24 
REMARK    8  A    between atoms: N_24  and  C_28 
REMARK    9  A    between atoms: C_27  and  C_28 
REMARK   10  A    between atoms: C_28  and  C_29 
REMARK   11  A    between atoms: C_29  and  C_30 
REMARK   12  A    between atoms: C_30  and  C_32 
REMARK       I    between atoms: N_31  and  C_32 
ROOT
HETATM    1  C           1     -21.038  -7.350  -5.319  0.00  0.00     0.278 C 
ENDROOT
BRANCH   1   2
HETATM    2  N           1     -21.606  -7.026  -3.970  0.00  0.00    -0.066 N 
HETATM    3  H           1     -20.879  -6.549  -3.391  0.00  0.00     0.275 HD
HETATM    4  H           1     -21.905  -7.910  -3.498  0.00  0.00     0.275 HD
HETATM    5  H           1     -22.433  -6.396  -4.082  0.00  0.00     0.275 HD
ENDBRANCH   1   2
BRANCH   1   6
HETATM    6  C           1     -20.137  -6.210  -5.777  0.00  0.00     0.081 C 
BRANCH   6   7
HETATM    7  C           1     -20.803  -5.463  -6.889  0.00  0.00    -0.056 A 
HETATM    8  C           1     -22.072  -4.916  -6.701  0.00  0.00     0.010 A 
HETATM    9  C           1     -22.692  -4.220  -7.737  0.00  0.00     0.038 A 
HETATM   10  C           1     -22.043  -4.068  -8.963  0.00  0.00     0.081 A 
HETATM   11  C           1     -20.774  -4.614  -9.151  0.00  0.00     0.038 A 
HETATM   12  C           1     -20.153  -5.311  -8.114  0.00  0.00     0.010 A 
BRANCH  10  13
HETATM   13  O           1     -22.646  -3.391  -9.969  0.00  0.00    -0.247 OA
BRANCH  13  14
HETATM   14  P           1     -23.740  -4.175 -10.862  0.00  0.00     0.411 P 
HETATM   15  O           1     -24.942  -3.329 -11.024  0.00  0.00    -0.624 OA
HETATM   16  O           1     -24.111  -5.439 -10.187  0.00  0.00    -0.624 OA
BRANCH  14  17
HETATM   17  O           1     -23.114  -4.505 -12.314  0.00  0.00    -0.300 OA
HETATM   18  H           1     -23.167  -3.696 -12.792  0.00  0.00     0.223 HD
ENDBRANCH  14  17
ENDBRANCH  13  14
ENDBRANCH  10  13
ENDBRANCH   6   7
ENDBRANCH   1   6
BRANCH   1  19
HETATM   19  C           1     -20.234  -8.624  -5.234  0.00  0.00     0.249 C 
HETATM   20  O           1     -20.647  -9.635  -5.749  0.00  0.00    -0.271 OA
HETATM   21  N           1     -19.034  -8.633  -4.572  0.00  0.00    -0.345 N 
HETATM   22  H           1     -18.688  -7.787  -4.140  0.00  0.00     0.163 HD
BRANCH  21  23
HETATM   23  C           1     -18.262  -9.858  -4.491  0.00  0.00     0.186 C 
BRANCH  23  24
HETATM   24  C           1     -17.736 -10.027  -3.086  0.00  0.00     0.196 C 
HETATM   25  O           1     -16.532  -9.799  -2.838  0.00  0.00    -0.646 OA
HETATM   26  O           1     -18.504 -10.394  -2.171  0.00  0.00    -0.646 OA
ENDBRANCH  23  24
BRANCH  23  27
HETATM   27  C           1     -17.094  -9.789  -5.465  0.00  0.00     0.045 C 
BRANCH  27  28
HETATM   28  C           1     -16.912 -11.143  -6.138  0.00  0.00     0.105 C 
BRANCH  28  29
HETATM   29  C           1     -15.477 -11.588  -5.996  0.00  0.00     0.215 C 
HETATM   30  N           1     -14.863 -11.535  -4.774  0.00  0.00    -0.370 N 
HETATM   31  H           1     -13.900 -11.832  -4.677  0.00  0.00     0.159 HD
HETATM   32  H           1     -15.371 -11.198  -3.965  0.00  0.00     0.159 HD
HETATM   33  O           1     -14.870 -11.989  -6.960  0.00  0.00    -0.274 OA
ENDBRANCH  28  29
ENDBRANCH  27  28
ENDBRANCH  23  27
ENDBRANCH  21  23
ENDBRANCH   1  19
TORSDOF 12
ENDMDL
MODEL 6
REMARK VINA RESULT:      -6.7      2.683      4.269
REMARK  12 active torsions:
REMARK  status: ('A' for Active; 'I' for Inactive)
REMARK    1  A    between atoms: N_9  and  C_22 
REMARK    2  A    between atoms: O_14  and  P_15 
REMARK    3  A    between atoms: P_15  and  O_16 
REMARK    4  A    between atoms: O_16  and  C_17 
REMARK    5  A    between atoms: C_20  and  C_21 
REMARK    6  A    between atoms: C_21  and  C_22 
REMARK    7  A    between atoms: C_22  and  C_23 
REMARK       I    between atoms: C_23  and  N_24 
REMARK    8  A    between atoms: N_24  and  C_28 
REMARK    9  A    between atoms: C_27  and  C_28 
REMARK   10  A    between atoms: C_28  and  C_29 
REMARK   11  A    between atoms: C_29  and  C_30 
REMARK   12  A    between atoms: C_30  and  C_32 
REMARK       I    between atoms: N_31  and  C_32 
ROOT
HETATM    1  C           1     -21.240  -7.030  -5.209  0.00  0.00     0.278 C 
ENDROOT
BRANCH   1   2
HETATM    2  N           1     -22.163  -6.633  -4.095  0.00  0.00    -0.066 N 
HETATM    3  H           1     -22.127  -7.354  -3.340  0.00  0.00     0.275 HD
HETATM    4  H           1     -23.139  -6.560  -4.462  0.00  0.00     0.275 HD
HETATM    5  H           1     -21.866  -5.708  -3.709  0.00  0.00     0.275 HD
ENDBRANCH   1   2
BRANCH   1   6
HETATM    6  C           1     -20.383  -5.835  -5.606  0.00  0.00     0.081 C 
BRANCH   6   7
HETATM    7  C           1     -20.912  -5.239  -6.873  0.00  0.00    -0.056 A 
HETATM    8  C           1     -22.144  -4.585  -6.875  0.00  0.00     0.010 A 
HETATM    9  C           1     -22.637  -4.030  -8.055  0.00  0.00     0.038 A 
HETATM   10  C           1     -21.898  -4.127  -9.234  0.00  0.00     0.081 A 
HETATM   11  C           1     -20.666  -4.781  -9.232  0.00  0.00     0.038 A 
HETATM   12  C           1     -20.172  -5.337  -8.052  0.00  0.00     0.010 A 
BRANCH  10  13
HETATM   13  O           1     -22.377  -3.587 -10.381  0.00  0.00    -0.247 OA
BRANCH  13  14
HETATM   14  P           1     -23.677  -4.268 -11.054  0.00  0.00     0.411 P 
HETATM   15  O           1     -24.811  -3.319 -11.007  0.00  0.00    -0.624 OA
HETATM   16  O           1     -24.030  -5.498 -10.309  0.00  0.00    -0.624 OA
BRANCH  14  17
HETATM   17  O           1     -23.353  -4.646 -12.591  0.00  0.00    -0.300 OA
HETATM   18  H           1     -22.740  -3.991 -12.878  0.00  0.00     0.223 HD
ENDBRANCH  14  17
ENDBRANCH  13  14
ENDBRANCH  10  13
ENDBRANCH   6   7
ENDBRANCH   1   6
BRANCH   1  19
HETATM   19  C           1     -20.351  -8.158  -4.748  0.00  0.00     0.249 C 
HETATM   20  O           1     -19.668  -8.023  -3.761  0.00  0.00    -0.271 OA
HETATM   21  N           1     -20.319  -9.335  -5.447  0.00  0.00    -0.345 N 
HETATM   22  H           1     -20.891  -9.448  -6.274  0.00  0.00     0.163 HD
BRANCH  21  23
HETATM   23  C           1     -19.464 -10.419  -5.002  0.00  0.00     0.186 C 
BRANCH  23  24
HETATM   24  C           1     -18.319 -10.584  -5.971  0.00  0.00     0.196 C 
HETATM   25  O           1     -18.514 -11.119  -7.084  0.00  0.00    -0.646 OA
HETATM   26  O           1     -17.176 -10.184  -5.662  0.00  0.00    -0.646 OA
ENDBRANCH  23  24
BRANCH  23  27
HETATM   27  C           1     -20.269 -11.710  -4.943  0.00  0.00     0.045 C 
BRANCH  27  28
HETATM   28  C           1     -21.546 -11.551  -5.757  0.00  0.00     0.105 C 
BRANCH  28  29
HETATM   29  C           1     -21.770 -12.789  -6.591  0.00  0.00     0.215 C 
HETATM   30  N           1     -20.929 -13.073  -7.633  0.00  0.00    -0.370 N 
HETATM   31  H           1     -21.079 -13.902  -8.193  0.00  0.00     0.159 HD
HETATM   32  H           1     -20.156 -12.453  -7.843  0.00  0.00     0.159 HD
HETATM   33  O           1     -22.691 -13.528  -6.339  0.00  0.00    -0.274 OA
ENDBRANCH  28  29
ENDBRANCH  27  28
ENDBRANCH  23  27
ENDBRANCH  21  23
ENDBRANCH   1  19
TORSDOF 12
ENDMDL
MODEL 7
REMARK VINA RESULT:      -6.3      3.554      9.194
REMARK  12 active torsions:
REMARK  status: ('A' for Active; 'I' for Inactive)
REMARK    1  A    between atoms: N_9  and  C_22 
REMARK    2  A    between atoms: O_14  and  P_15 
REMARK    3  A    between atoms: P_15  and  O_16 
REMARK    4  A    between atoms: O_16  and  C_17 
REMARK    5  A    between atoms: C_20  and  C_21 
REMARK    6  A    between atoms: C_21  and  C_22 
REMARK    7  A    between atoms: C_22  and  C_23 
REMARK       I    between atoms: C_23  and  N_24 
REMARK    8  A    between atoms: N_24  and  C_28 
REMARK    9  A    between atoms: C_27  and  C_28 
REMARK   10  A    between atoms: C_28  and  C_29 
REMARK   11  A    between atoms: C_29  and  C_30 
REMARK   12  A    between atoms: C_30  and  C_32 
REMARK       I    between atoms: N_31  and  C_32 
ROOT
HETATM    1  C           1     -21.146  -6.090  -4.643  0.00  0.00     0.278 C 
ENDROOT
BRANCH   1   2
HETATM    2  N           1     -22.494  -6.372  -4.048  0.00  0.00    -0.066 N 
HETATM    3  H           1     -22.616  -5.807  -3.178  0.00  0.00     0.275 HD
HETATM    4  H           1     -22.565  -7.389  -3.817  0.00  0.00     0.275 HD
HETATM    5  H           1     -23.238  -6.120  -4.737  0.00  0.00     0.275 HD
ENDBRANCH   1   2
BRANCH   1   6
HETATM    6  C           1     -20.177  -7.200  -4.254  0.00  0.00     0.081 C 
BRANCH   6   7
HETATM    7  C           1     -20.878  -8.189  -3.377  0.00  0.00    -0.056 A 
HETATM    8  C           1     -20.841  -8.040  -1.990  0.00  0.00     0.010 A 
HETATM    9  C           1     -21.493  -8.962  -1.173  0.00  0.00     0.038 A 
HETATM   10  C           1     -22.185 -10.032  -1.740  0.00  0.00     0.081 A 
HETATM   11  C           1     -22.222 -10.181  -3.127  0.00  0.00     0.038 A 
HETATM   12  C           1     -21.569  -9.259  -3.945  0.00  0.00     0.010 A 
BRANCH  10  13
HETATM   13  O           1     -22.819 -10.928  -0.946  0.00  0.00    -0.247 OA
BRANCH  13  14
HETATM   14  P           1     -21.929 -12.070  -0.230  0.00  0.00     0.411 P 
HETATM   15  O           1     -20.945 -12.606  -1.196  0.00  0.00    -0.624 OA
HETATM   16  O           1     -22.812 -13.162   0.236  0.00  0.00    -0.624 OA
BRANCH  14  17
HETATM   17  O           1     -21.151 -11.433   1.034  0.00  0.00    -0.300 OA
HETATM   18  H           1     -20.266 -11.747   0.960  0.00  0.00     0.223 HD
ENDBRANCH  14  17
ENDBRANCH  13  14
ENDBRANCH  10  13
ENDBRANCH   6   7
ENDBRANCH   1   6
BRANCH   1  19
HETATM   19  C           1     -21.263  -6.028  -6.146  0.00  0.00     0.249 C 
HETATM   20  O           1     -21.200  -7.042  -6.800  0.00  0.00    -0.271 OA
HETATM   21  N           1     -21.444  -4.822  -6.770  0.00  0.00    -0.345 N 
HETATM   22  H           1     -21.497  -3.973  -6.223  0.00  0.00     0.163 HD
BRANCH  21  23
HETATM   23  C           1     -21.558  -4.763  -8.214  0.00  0.00     0.186 C 
BRANCH  23  24
HETATM   24  C           1     -20.206  -4.456  -8.812  0.00  0.00     0.196 C 
HETATM   25  O           1     -19.475  -3.587  -8.288  0.00  0.00    -0.646 OA
HETATM   26  O           1     -19.818  -5.069  -9.829  0.00  0.00    -0.646 OA
ENDBRANCH  23  24
BRANCH  23  27
HETATM   27  C           1     -22.545  -3.671  -8.603  0.00  0.00     0.045 C 
BRANCH  27  28
HETATM   28  C           1     -23.067  -3.934 -10.009  0.00  0.00     0.105 C 
BRANCH  28  29
HETATM   29  C           1     -24.484  -3.429 -10.124  0.00  0.00     0.215 C 
HETATM   30  N           1     -25.160  -3.030  -9.003  0.00  0.00    -0.370 N 
HETATM   31  H           1     -26.111  -2.691  -9.079  0.00  0.00     0.159 HD
HETATM   32  H           1     -24.710  -3.072  -8.097  0.00  0.00     0.159 HD
HETATM   33  O           1     -25.022  -3.379 -11.204  0.00  0.00    -0.274 OA
ENDBRANCH  28  29
ENDBRANCH  27  28
ENDBRANCH  23  27
ENDBRANCH  21  23
ENDBRANCH   1  19
TORSDOF 12
ENDMDL
MODEL 8
REMARK VINA RESULT:      -6.3      4.410      9.101
REMARK  12 active torsions:
REMARK  status: ('A' for Active; 'I' for Inactive)
REMARK    1  A    between atoms: N_9  and  C_22 
REMARK    2  A    between atoms: O_14  and  P_15 
REMARK    3  A    between atoms: P_15  and  O_16 
REMARK    4  A    between atoms: O_16  and  C_17 
REMARK    5  A    between atoms: C_20  and  C_21 
REMARK    6  A    between atoms: C_21  and  C_22 
REMARK    7  A    between atoms: C_22  and  C_23 
REMARK       I    between atoms: C_23  and  N_24 
REMARK    8  A    between atoms: N_24  and  C_28 
REMARK    9  A    between atoms: C_27  and  C_28 
REMARK   10  A    between atoms: C_28  and  C_29 
REMARK   11  A    between atoms: C_29  and  C_30 
REMARK   12  A    between atoms: C_30  and  C_32 
REMARK       I    between atoms: N_31  and  C_32 
ROOT
HETATM    1  C           1     -20.886  -6.845  -4.540  0.00  0.00     0.278 C 
ENDROOT
BRANCH   1   2
HETATM    2  N           1     -21.888  -6.140  -3.674  0.00  0.00    -0.066 N 
HETATM    3  H           1     -21.393  -5.471  -3.042  0.00  0.00     0.275 HD
HETATM    4  H           1     -22.408  -6.843  -3.102  0.00  0.00     0.275 HD
HETATM    5  H           1     -22.563  -5.616  -4.277  0.00  0.00     0.275 HD
ENDBRANCH   1   2
BRANCH   1   6
HETATM    6  C           1     -20.947  -8.342  -4.269  0.00  0.00     0.081 C 
BRANCH   6   7
HETATM    7  C           1     -19.559  -8.876  -4.103  0.00  0.00    -0.056 A 
HETATM    8  C           1     -19.007  -8.999  -2.828  0.00  0.00     0.010 A 
HETATM    9  C           1     -17.714  -9.497  -2.673  0.00  0.00     0.038 A 
HETATM   10  C           1     -16.972  -9.874  -3.792  0.00  0.00     0.081 A 
HETATM   11  C           1     -17.524  -9.752  -5.067  0.00  0.00     0.038 A 
HETATM   12  C           1     -18.818  -9.254  -5.223  0.00  0.00     0.010 A 
BRANCH  10  13
HETATM   13  O           1     -15.716 -10.358  -3.641  0.00  0.00    -0.247 OA
BRANCH  13  14
HETATM   14  P           1     -15.545 -11.876  -3.119  0.00  0.00     0.411 P 
HETATM   15  O           1     -15.545 -11.892  -1.639  0.00  0.00    -0.624 OA
HETATM   16  O           1     -14.267 -12.429  -3.620  0.00  0.00    -0.624 OA
BRANCH  14  17
HETATM   17  O           1     -16.770 -12.775  -3.667  0.00  0.00    -0.300 OA
HETATM   18  H           1     -16.365 -13.539  -4.039  0.00  0.00     0.223 HD
ENDBRANCH  14  17
ENDBRANCH  13  14
ENDBRANCH  10  13
ENDBRANCH   6   7
ENDBRANCH   1   6
BRANCH   1  19
HETATM   19  C           1     -21.204  -6.582  -5.992  0.00  0.00     0.249 C 
HETATM   20  O           1     -21.418  -7.506  -6.740  0.00  0.00    -0.271 OA
HETATM   21  N           1     -21.251  -5.296  -6.460  0.00  0.00    -0.345 N 
HETATM   22  H           1     -21.072  -4.522  -5.834  0.00  0.00     0.163 HD
BRANCH  21  23
HETATM   23  C           1     -21.557  -5.045  -7.856  0.00  0.00     0.186 C 
BRANCH  23  24
HETATM   24  C           1     -20.330  -4.504  -8.548  0.00  0.00     0.196 C 
HETATM   25  O           1     -20.024  -4.916  -9.688  0.00  0.00    -0.646 OA
HETATM   26  O           1     -19.621  -3.644  -7.984  0.00  0.00    -0.646 OA
ENDBRANCH  23  24
BRANCH  23  27
HETATM   27  C           1     -22.686  -4.027  -7.953  0.00  0.00     0.045 C 
BRANCH  27  28
HETATM   28  C           1     -22.757  -3.481  -9.374  0.00  0.00     0.105 C 
BRANCH  28  29
HETATM   29  C           1     -23.994  -4.012 -10.056  0.00  0.00     0.215 C 
HETATM   30  N           1     -23.972  -5.246 -10.648  0.00  0.00    -0.370 N 
HETATM   31  H           1     -24.801  -5.602 -11.106  0.00  0.00     0.159 HD
HETATM   32  H           1     -23.127  -5.803 -10.627  0.00  0.00     0.159 HD
HETATM   33  O           1     -25.002  -3.347 -10.081  0.00  0.00    -0.274 OA
ENDBRANCH  28  29
ENDBRANCH  27  28
ENDBRANCH  23  27
ENDBRANCH  21  23
ENDBRANCH   1  19
TORSDOF 12
ENDMDL
MODEL 9
REMARK VINA RESULT:      -6.3      4.103      5.874
REMARK  12 active torsions:
REMARK  status: ('A' for Active; 'I' for Inactive)
REMARK    1  A    between atoms: N_9  and  C_22 
REMARK    2  A    between atoms: O_14  and  P_15 
REMARK    3  A    between atoms: P_15  and  O_16 
REMARK    4  A    between atoms: O_16  and  C_17 
REMARK    5  A    between atoms: C_20  and  C_21 
REMARK    6  A    between atoms: C_21  and  C_22 
REMARK    7  A    between atoms: C_22  and  C_23 
REMARK       I    between atoms: C_23  and  N_24 
REMARK    8  A    between atoms: N_24  and  C_28 
REMARK    9  A    between atoms: C_27  and  C_28 
REMARK   10  A    between atoms: C_28  and  C_29 
REMARK   11  A    between atoms: C_29  and  C_30 
REMARK   12  A    between atoms: C_30  and  C_32 
REMARK       I    between atoms: N_31  and  C_32 
ROOT
HETATM    1  C           1     -20.579 -10.820  -2.044  0.00  0.00     0.278 C 
ENDROOT
BRANCH   1   2
HETATM    2  N           1     -21.529 -11.503  -1.105  0.00  0.00    -0.066 N 
HETATM    3  H           1     -21.240 -11.314  -0.119  0.00  0.00     0.275 HD
HETATM    4  H           1     -21.514 -12.533  -1.283  0.00  0.00     0.275 HD
HETATM    5  H           1     -22.496 -11.137  -1.261  0.00  0.00     0.275 HD
ENDBRANCH   1   2
BRANCH   1   6
HETATM    6  C           1     -20.349  -9.388  -1.580  0.00  0.00     0.081 C 
BRANCH   6   7
HETATM    7  C           1     -20.891  -8.439  -2.602  0.00  0.00    -0.056 A 
HETATM    8  C           1     -21.064  -8.857  -3.921  0.00  0.00     0.010 A 
HETATM    9  C           1     -21.569  -7.972  -4.873  0.00  0.00     0.038 A 
HETATM   10  C           1     -21.904  -6.669  -4.506  0.00  0.00     0.081 A 
HETATM   11  C           1     -21.731  -6.250  -3.187  0.00  0.00     0.038 A 
HETATM   12  C           1     -21.225  -7.135  -2.234  0.00  0.00     0.010 A 
BRANCH  10  13
HETATM   13  O           1     -22.394  -5.810  -5.431  0.00  0.00    -0.247 OA
BRANCH  13  14
HETATM   14  P           1     -21.353  -5.125  -6.459  0.00  0.00     0.411 P 
HETATM   15  O           1     -20.955  -6.112  -7.487  0.00  0.00    -0.624 OA
HETATM   16  O           1     -20.155  -4.672  -5.717  0.00  0.00    -0.624 OA
BRANCH  14  17
HETATM   17  O           1     -22.055  -3.857  -7.172  0.00  0.00    -0.300 OA
HETATM   18  H           1     -22.765  -3.619  -6.602  0.00  0.00     0.223 HD
ENDBRANCH  14  17
ENDBRANCH  13  14
ENDBRANCH  10  13
ENDBRANCH   6   7
ENDBRANCH   1   6
BRANCH   1  19
HETATM   19  C           1     -19.266 -11.563  -2.057  0.00  0.00     0.249 C 
HETATM   20  O           1     -19.212 -12.687  -2.496  0.00  0.00    -0.271 OA
HETATM   21  N           1     -18.134 -10.961  -1.573  0.00  0.00    -0.345 N 
HETATM   22  H           1     -18.179 -10.020  -1.206  0.00  0.00     0.163 HD
BRANCH  21  23
HETATM   23  C           1     -16.872 -11.676  -1.587  0.00  0.00     0.186 C 
BRANCH  23  24
HETATM   24  C           1     -16.523 -12.103  -0.183  0.00  0.00     0.196 C 
HETATM   25  O           1     -15.606 -11.523   0.438  0.00  0.00    -0.646 OA
HETATM   26  O           1     -17.150 -13.037   0.361  0.00  0.00    -0.646 OA
ENDBRANCH  23  24
BRANCH  23  27
HETATM   27  C           1     -15.778 -10.765  -2.127  0.00  0.00     0.045 C 
BRANCH  27  28
HETATM   28  C           1     -16.411  -9.595  -2.869  0.00  0.00     0.105 C 
BRANCH  28  29
HETATM   29  C           1     -16.444  -9.894  -4.348  0.00  0.00     0.215 C 
HETATM   30  N           1     -17.629  -9.842  -5.029  0.00  0.00    -0.370 N 
HETATM   31  H           1     -17.653 -10.043  -6.021  0.00  0.00     0.159 HD
HETATM   32  H           1     -18.484  -9.602  -4.542  0.00  0.00     0.159 HD
HETATM   33  O           1     -15.425 -10.181  -4.929  0.00  0.00    -0.274 OA
ENDBRANCH  28  29
ENDBRANCH  27  28
ENDBRANCH  23  27
ENDBRANCH  21  23
ENDBRANCH   1  19
TORSDOF 12
ENDMDL
