MODEL 1
REMARK VINA RESULT:      -6.3      0.000      0.000
REMARK  10 active torsions:
REMARK  status: ('A' for Active; 'I' for Inactive)
REMARK    1  A    between atoms: C_2  and  C_4 
REMARK    2  A    between atoms: C_4  and  C_5 
REMARK    3  A    between atoms: C_5  and  C_6 
REMARK    4  A    between atoms: C_5  and  N_9 
REMARK       I    between atoms: N_9  and  C_10 
REMARK    5  A    between atoms: C_10  and  C_11 
REMARK    6  A    between atoms: C_11  and  C_12 
REMARK    7  A    between atoms: C_11  and  N_18 
REMARK    8  A    between atoms: C_12  and  O_13 
REMARK    9  A    between atoms: O_13  and  P_14 
REMARK   10  A    between atoms: P_14  and  O_15 
ROOT
HETATM    1  N           1     -26.565  -6.691 -17.522  0.00  0.00    -0.345 N 
HETATM    2  C           1     -25.437  -6.495 -16.772  0.00  0.00     0.251 C 
HETATM    3  O           1     -25.503  -5.886 -15.730  0.00  0.00    -0.271 OA
HETATM    4  H           1     -26.510  -7.201 -18.394  0.00  0.00     0.163 HD
ENDROOT
BRANCH   2   5
HETATM    5  C           1     -24.112  -7.038 -17.245  0.00  0.00     0.298 C 
BRANCH   5   6
HETATM    6  C           1     -24.234  -7.482 -18.697  0.00  0.00     0.224 C 
BRANCH   6   7
HETATM    7  O           1     -24.529  -6.374 -19.503  0.00  0.00    -0.287 OA
BRANCH   7   8
HETATM    8  P           1     -25.280  -6.692 -20.897  0.00  0.00     0.406 P 
HETATM    9  O           1     -26.654  -7.168 -20.619  0.00  0.00    -0.624 OA
HETATM   10  O           1     -24.534  -7.737 -21.632  0.00  0.00    -0.624 OA
BRANCH   8  11
HETATM   11  O           1     -25.348  -5.349 -21.790  0.00  0.00    -0.300 OA
HETATM   12  H           1     -24.717  -5.481 -22.478  0.00  0.00     0.223 HD
ENDBRANCH   8  11
ENDBRANCH   7   8
ENDBRANCH   6   7
ENDBRANCH   5   6
BRANCH   5  13
HETATM   13  N           1     -23.720  -8.212 -16.396  0.00  0.00    -0.064 N 
HETATM   14  H           1     -22.689  -8.369 -16.471  0.00  0.00     0.275 HD
HETATM   15  H           1     -23.970  -8.019 -15.400  0.00  0.00     0.275 HD
HETATM   16  H           1     -24.227  -9.064 -16.726  0.00  0.00     0.275 HD
ENDBRANCH   5  13
ENDBRANCH   2   5
BRANCH   1  17
HETATM   17  C           1     -27.839  -6.169 -17.066  0.00  0.00     0.185 C 
BRANCH  17  18
HETATM   18  C           1     -28.647  -5.689 -18.264  0.00  0.00     0.040 C 
BRANCH  18  19
HETATM   19  C           1     -29.211  -4.304 -17.974  0.00  0.00    -0.020 C 
HETATM   20  C           1     -30.637  -4.435 -17.457  0.00  0.00     0.009 C 
HETATM   21  C           1     -28.349  -3.616 -16.923  0.00  0.00     0.009 C 
ENDBRANCH  18  19
ENDBRANCH  17  18
BRANCH  17  22
HETATM   22  C           1     -28.599  -7.257 -16.348  0.00  0.00     0.196 C 
HETATM   23  O           1     -28.377  -7.481 -15.139  0.00  0.00    -0.646 OA
HETATM   24  O           1     -29.451  -7.934 -16.963  0.00  0.00    -0.646 OA
ENDBRANCH  17  22
ENDBRANCH   1  17
TORSDOF 10
ENDMDL
MODEL 2
REMARK VINA RESULT:      -5.6      1.365      2.055
REMARK  10 active torsions:
REMARK  status: ('A' for Active; 'I' for Inactive)
REMARK    1  A    between atoms: C_2  and  C_4 
REMARK    2  A    between atoms: C_4  and  C_5 
REMARK    3  A    between atoms: C_5  and  C_6 
REMARK    4  A    between atoms: C_5  and  N_9 
REMARK       I    between atoms: N_9  and  C_10 
REMARK    5  A    between atoms: C_10  and  C_11 
REMARK    6  A    between atoms: C_11  and  C_12 
REMARK    7  A    between atoms: C_11  and  N_18 
REMARK    8  A    between atoms: C_12  and  O_13 
REMARK    9  A    between atoms: O_13  and  P_14 
REMARK   10  A    between atoms: P_14  and  O_15 
ROOT
HETATM    1  N           1     -27.407  -6.425 -18.133  0.00  0.00    -0.345 N 
HETATM    2  C           1     -26.291  -6.510 -17.344  0.00  0.00     0.251 C 
HETATM    3  O           1     -26.403  -6.525 -16.141  0.00  0.00    -0.271 OA
HETATM    4  H           1     -27.314  -6.413 -19.141  0.00  0.00     0.163 HD
ENDROOT
BRANCH   2   5
HETATM    5  C           1     -24.924  -6.586 -17.976  0.00  0.00     0.298 C 
BRANCH   5   6
HETATM    6  C           1     -25.068  -6.706 -19.488  0.00  0.00     0.224 C 
BRANCH   6   7
HETATM    7  O           1     -24.036  -7.507 -19.995  0.00  0.00    -0.287 OA
BRANCH   7   8
HETATM    8  P           1     -24.189  -7.970 -21.534  0.00  0.00     0.406 P 
HETATM    9  O           1     -23.060  -8.855 -21.897  0.00  0.00    -0.624 OA
HETATM   10  O           1     -24.183  -6.777 -22.410  0.00  0.00    -0.624 OA
BRANCH   8  11
HETATM   11  O           1     -25.579  -8.768 -21.721  0.00  0.00    -0.300 OA
HETATM   12  H           1     -26.203  -8.299 -21.193  0.00  0.00     0.223 HD
ENDBRANCH   8  11
ENDBRANCH   7   8
ENDBRANCH   6   7
ENDBRANCH   5   6
BRANCH   5  13
HETATM   13  N           1     -24.194  -7.786 -17.448  0.00  0.00    -0.064 N 
HETATM   14  H           1     -23.347  -7.964 -18.032  0.00  0.00     0.275 HD
HETATM   15  H           1     -23.904  -7.608 -16.460  0.00  0.00     0.275 HD
HETATM   16  H           1     -24.824  -8.619 -17.484  0.00  0.00     0.275 HD
ENDBRANCH   5  13
ENDBRANCH   2   5
BRANCH   1  17
HETATM   17  C           1     -28.722  -6.353 -17.525  0.00  0.00     0.185 C 
BRANCH  17  18
HETATM   18  C           1     -29.546  -5.281 -18.227  0.00  0.00     0.040 C 
BRANCH  18  19
HETATM   19  C           1     -29.963  -4.220 -17.218  0.00  0.00    -0.020 C 
HETATM   20  C           1     -29.011  -3.035 -17.305  0.00  0.00     0.009 C 
HETATM   21  C           1     -31.381  -3.756 -17.526  0.00  0.00     0.009 C 
ENDBRANCH  18  19
ENDBRANCH  17  18
BRANCH  17  22
HETATM   22  C           1     -29.411  -7.688 -17.660  0.00  0.00     0.196 C 
HETATM   23  O           1     -29.965  -8.000 -18.737  0.00  0.00    -0.646 OA
HETATM   24  O           1     -29.429  -8.482 -16.696  0.00  0.00    -0.646 OA
ENDBRANCH  17  22
ENDBRANCH   1  17
TORSDOF 10
ENDMDL
MODEL 3
REMARK VINA RESULT:      -5.4     18.937     20.475
REMARK  10 active torsions:
REMARK  status: ('A' for Active; 'I' for Inactive)
REMARK    1  A    between atoms: C_2  and  C_4 
REMARK    2  A    between atoms: C_4  and  C_5 
REMARK    3  A    between atoms: C_5  and  C_6 
REMARK    4  A    between atoms: C_5  and  N_9 
REMARK       I    between atoms: N_9  and  C_10 
REMARK    5  A    between atoms: C_10  and  C_11 
REMARK    6  A    between atoms: C_11  and  C_12 
REMARK    7  A    between atoms: C_11  and  N_18 
REMARK    8  A    between atoms: C_12  and  O_13 
REMARK    9  A    between atoms: O_13  and  P_14 
REMARK   10  A    between atoms: P_14  and  O_15 
ROOT
HETATM    1  N           1     -12.041   6.851 -21.765  0.00  0.00    -0.345 N 
HETATM    2  C           1     -12.582   7.973 -22.331  0.00  0.00     0.251 C 
HETATM    3  O           1     -13.759   8.003 -22.608  0.00  0.00    -0.271 OA
HETATM    4  H           1     -11.057   6.825 -21.533  0.00  0.00     0.163 HD
ENDROOT
BRANCH   2   5
HETATM    5  C           1     -11.711   9.172 -22.611  0.00  0.00     0.298 C 
BRANCH   5   6
HETATM    6  C           1     -10.389   9.025 -21.868  0.00  0.00     0.224 C 
BRANCH   6   7
HETATM    7  O           1     -10.466   9.692 -20.638  0.00  0.00    -0.287 OA
BRANCH   7   8
HETATM    8  P           1     -10.609   8.754 -19.331  0.00  0.00     0.406 P 
HETATM    9  O           1     -12.039   8.622 -18.973  0.00  0.00    -0.624 OA
HETATM   10  O           1      -9.871   9.364 -18.203  0.00  0.00    -0.624 OA
BRANCH   8  11
HETATM   11  O           1      -9.997   7.293 -19.647  0.00  0.00    -0.300 OA
HETATM   12  H           1      -9.734   6.953 -18.809  0.00  0.00     0.223 HD
ENDBRANCH   8  11
ENDBRANCH   7   8
ENDBRANCH   6   7
ENDBRANCH   5   6
BRANCH   5  13
HETATM   13  N           1     -12.408  10.416 -22.145  0.00  0.00    -0.064 N 
HETATM   14  H           1     -12.018  11.244 -22.650  0.00  0.00     0.275 HD
HETATM   15  H           1     -13.431  10.337 -22.346  0.00  0.00     0.275 HD
HETATM   16  H           1     -12.261  10.534 -21.118  0.00  0.00     0.275 HD
ENDBRANCH   5  13
ENDBRANCH   2   5
BRANCH   1  17
HETATM   17  C           1     -12.880   5.698 -21.496  0.00  0.00     0.185 C 
BRANCH  17  18
HETATM   18  C           1     -12.184   4.438 -21.994  0.00  0.00     0.040 C 
BRANCH  18  19
HETATM   19  C           1     -13.225   3.452 -22.507  0.00  0.00    -0.020 C 
HETATM   20  C           1     -13.553   2.446 -21.411  0.00  0.00     0.009 C 
HETATM   21  C           1     -14.489   4.206 -22.898  0.00  0.00     0.009 C 
ENDBRANCH  18  19
ENDBRANCH  17  18
BRANCH  17  22
HETATM   22  C           1     -13.119   5.587 -20.010  0.00  0.00     0.196 C 
HETATM   23  O           1     -14.269   5.747 -19.549  0.00  0.00    -0.646 OA
HETATM   24  O           1     -12.167   5.336 -19.241  0.00  0.00    -0.646 OA
ENDBRANCH  17  22
ENDBRANCH   1  17
TORSDOF 10
ENDMDL
MODEL 4
REMARK VINA RESULT:      -5.3     14.877     16.741
REMARK  10 active torsions:
REMARK  status: ('A' for Active; 'I' for Inactive)
REMARK    1  A    between atoms: C_2  and  C_4 
REMARK    2  A    between atoms: C_4  and  C_5 
REMARK    3  A    between atoms: C_5  and  C_6 
REMARK    4  A    between atoms: C_5  and  N_9 
REMARK       I    between atoms: N_9  and  C_10 
REMARK    5  A    between atoms: C_10  and  C_11 
REMARK    6  A    between atoms: C_11  and  C_12 
REMARK    7  A    between atoms: C_11  and  N_18 
REMARK    8  A    between atoms: C_12  and  O_13 
REMARK    9  A    between atoms: O_13  and  P_14 
REMARK   10  A    between atoms: P_14  and  O_15 
ROOT
HETATM    1  N           1     -21.178  -9.129  -2.050  0.00  0.00    -0.345 N 
HETATM    2  C           1     -21.416  -9.678  -3.281  0.00  0.00     0.251 C 
HETATM    3  O           1     -22.474 -10.219  -3.507  0.00  0.00    -0.271 OA
HETATM    4  H           1     -20.293  -8.676  -1.860  0.00  0.00     0.163 HD
ENDROOT
BRANCH   2   5
HETATM    5  C           1     -20.359  -9.610  -4.355  0.00  0.00     0.298 C 
BRANCH   5   6
HETATM    6  C           1     -19.816  -8.190  -4.444  0.00  0.00     0.224 C 
BRANCH   6   7
HETATM    7  O           1     -20.833  -7.278  -4.131  0.00  0.00    -0.287 OA
BRANCH   7   8
HETATM    8  P           1     -21.300  -6.299  -5.327  0.00  0.00     0.406 P 
HETATM    9  O           1     -22.747  -6.014  -5.195  0.00  0.00    -0.624 OA
HETATM   10  O           1     -21.042  -6.953  -6.629  0.00  0.00    -0.624 OA
BRANCH   8  11
HETATM   11  O           1     -20.471  -4.916  -5.245  0.00  0.00    -0.300 OA
HETATM   12  H           1     -20.666  -4.564  -4.393  0.00  0.00     0.223 HD
ENDBRANCH   8  11
ENDBRANCH   7   8
ENDBRANCH   6   7
ENDBRANCH   5   6
BRANCH   5  13
HETATM   13  N           1     -20.961  -9.998  -5.674  0.00  0.00    -0.064 N 
HETATM   14  H           1     -21.963 -10.262  -5.536  0.00  0.00     0.275 HD
HETATM   15  H           1     -20.903  -9.189  -6.333  0.00  0.00     0.275 HD
HETATM   16  H           1     -20.437 -10.810  -6.070  0.00  0.00     0.275 HD
ENDBRANCH   5  13
ENDBRANCH   2   5
BRANCH   1  17
HETATM   17  C           1     -22.195  -9.194  -1.017  0.00  0.00     0.185 C 
BRANCH  17  18
HETATM   18  C           1     -21.819 -10.268  -0.004  0.00  0.00     0.040 C 
BRANCH  18  19
HETATM   19  C           1     -22.680 -11.503  -0.231  0.00  0.00    -0.020 C 
HETATM   20  C           1     -22.382 -12.534   0.850  0.00  0.00     0.009 C 
HETATM   21  C           1     -24.151 -11.115  -0.171  0.00  0.00     0.009 C 
ENDBRANCH  18  19
ENDBRANCH  17  18
BRANCH  17  22
HETATM   22  C           1     -22.292  -7.858  -0.323  0.00  0.00     0.196 C 
HETATM   23  O           1     -22.008  -7.761   0.890  0.00  0.00    -0.646 OA
HETATM   24  O           1     -22.658  -6.848  -0.962  0.00  0.00    -0.646 OA
ENDBRANCH  17  22
ENDBRANCH   1  17
TORSDOF 10
ENDMDL
MODEL 5
REMARK VINA RESULT:      -4.9     14.717     16.540
REMARK  10 active torsions:
REMARK  status: ('A' for Active; 'I' for Inactive)
REMARK    1  A    between atoms: C_2  and  C_4 
REMARK    2  A    between atoms: C_4  and  C_5 
REMARK    3  A    between atoms: C_5  and  C_6 
REMARK    4  A    between atoms: C_5  and  N_9 
REMARK       I    between atoms: N_9  and  C_10 
REMARK    5  A    between atoms: C_10  and  C_11 
REMARK    6  A    between atoms: C_11  and  C_12 
REMARK    7  A    between atoms: C_11  and  N_18 
REMARK    8  A    between atoms: C_12  and  O_13 
REMARK    9  A    between atoms: O_13  and  P_14 
REMARK   10  A    between atoms: P_14  and  O_15 
ROOT
HETATM    1  N           1     -21.083  -9.474  -2.761  0.00  0.00    -0.345 N 
HETATM    2  C           1     -19.909  -9.072  -3.339  0.00  0.00     0.251 C 
HETATM    3  O           1     -18.921  -8.924  -2.659  0.00  0.00    -0.271 OA
HETATM    4  H           1     -21.911  -9.598  -3.330  0.00  0.00     0.163 HD
ENDROOT
BRANCH   2   5
HETATM    5  C           1     -19.849  -8.813  -4.824  0.00  0.00     0.298 C 
BRANCH   5   6
HETATM    6  C           1     -21.215  -8.353  -5.316  0.00  0.00     0.224 C 
BRANCH   6   7
HETATM    7  O           1     -21.054  -7.304  -6.232  0.00  0.00    -0.287 OA
BRANCH   7   8
HETATM    8  P           1     -21.318  -5.818  -5.659  0.00  0.00     0.406 P 
HETATM    9  O           1     -20.043  -5.068  -5.627  0.00  0.00    -0.624 OA
HETATM   10  O           1     -21.874  -5.907  -4.290  0.00  0.00    -0.624 OA
BRANCH   8  11
HETATM   11  O           1     -22.368  -5.051  -6.616  0.00  0.00    -0.300 OA
HETATM   12  H           1     -21.908  -4.918  -7.427  0.00  0.00     0.223 HD
ENDBRANCH   8  11
ENDBRANCH   7   8
ENDBRANCH   6   7
ENDBRANCH   5   6
BRANCH   5  13
HETATM   13  N           1     -19.462 -10.076  -5.536  0.00  0.00    -0.064 N 
HETATM   14  H           1     -19.740 -10.009  -6.541  0.00  0.00     0.275 HD
HETATM   15  H           1     -18.427 -10.209  -5.470  0.00  0.00     0.275 HD
HETATM   16  H           1     -19.948 -10.888  -5.093  0.00  0.00     0.275 HD
ENDBRANCH   5  13
ENDBRANCH   2   5
BRANCH   1  17
HETATM   17  C           1     -21.141  -9.722  -1.333  0.00  0.00     0.185 C 
BRANCH  17  18
HETATM   18  C           1     -22.559  -9.477  -0.833  0.00  0.00     0.040 C 
BRANCH  18  19
HETATM   19  C           1     -22.575  -8.249   0.067  0.00  0.00    -0.020 C 
HETATM   20  C           1     -21.464  -8.364   1.101  0.00  0.00     0.009 C 
HETATM   21  C           1     -22.357  -7.000  -0.777  0.00  0.00     0.009 C 
ENDBRANCH  18  19
ENDBRANCH  17  18
BRANCH  17  22
HETATM   22  C           1     -20.749 -11.153  -1.057  0.00  0.00     0.196 C 
HETATM   23  O           1     -19.910 -11.410  -0.167  0.00  0.00    -0.646 OA
HETATM   24  O           1     -21.264 -12.080  -1.717  0.00  0.00    -0.646 OA
ENDBRANCH  17  22
ENDBRANCH   1  17
TORSDOF 10
ENDMDL
MODEL 6
REMARK VINA RESULT:      -4.8     19.087     20.707
REMARK  10 active torsions:
REMARK  status: ('A' for Active; 'I' for Inactive)
REMARK    1  A    between atoms: C_2  and  C_4 
REMARK    2  A    between atoms: C_4  and  C_5 
REMARK    3  A    between atoms: C_5  and  C_6 
REMARK    4  A    between atoms: C_5  and  N_9 
REMARK       I    between atoms: N_9  and  C_10 
REMARK    5  A    between atoms: C_10  and  C_11 
REMARK    6  A    between atoms: C_11  and  C_12 
REMARK    7  A    between atoms: C_11  and  N_18 
REMARK    8  A    between atoms: C_12  and  O_13 
REMARK    9  A    between atoms: O_13  and  P_14 
REMARK   10  A    between atoms: P_14  and  O_15 
ROOT
HETATM    1  N           1     -12.666   7.030 -20.751  0.00  0.00    -0.345 N 
HETATM    2  C           1     -12.869   7.851 -21.827  0.00  0.00     0.251 C 
HETATM    3  O           1     -13.170   7.379 -22.899  0.00  0.00    -0.271 OA
HETATM    4  H           1     -12.414   7.424 -19.854  0.00  0.00     0.163 HD
ENDROOT
BRANCH   2   5
HETATM    5  C           1     -12.716   9.344 -21.677  0.00  0.00     0.298 C 
BRANCH   5   6
HETATM    6  C           1     -11.330   9.764 -22.149  0.00  0.00     0.224 C 
BRANCH   6   7
HETATM    7  O           1     -10.472   8.656 -22.126  0.00  0.00    -0.287 OA
BRANCH   7   8
HETATM    8  P           1      -9.312   8.683 -21.002  0.00  0.00     0.406 P 
HETATM    9  O           1      -8.202   9.548 -21.460  0.00  0.00    -0.624 OA
HETATM   10  O           1      -8.808   7.309 -20.781  0.00  0.00    -0.624 OA
BRANCH   8  11
HETATM   11  O           1      -9.912   9.264 -19.621  0.00  0.00    -0.300 OA
HETATM   12  H           1      -9.553   8.712 -18.947  0.00  0.00     0.223 HD
ENDBRANCH   8  11
ENDBRANCH   7   8
ENDBRANCH   6   7
ENDBRANCH   5   6
BRANCH   5  13
HETATM   13  N           1     -12.886   9.720 -20.234  0.00  0.00    -0.064 N 
HETATM   14  H           1     -13.729  10.329 -20.129  0.00  0.00     0.275 HD
HETATM   15  H           1     -13.009   8.855 -19.661  0.00  0.00     0.275 HD
HETATM   16  H           1     -12.039  10.238 -19.908  0.00  0.00     0.275 HD
ENDBRANCH   5  13
ENDBRANCH   2   5
BRANCH   1  17
HETATM   17  C           1     -12.813   5.593 -20.897  0.00  0.00     0.185 C 
BRANCH  17  18
HETATM   18  C           1     -11.766   4.888 -20.044  0.00  0.00     0.040 C 
BRANCH  18  19
HETATM   19  C           1     -10.890   4.016 -20.933  0.00  0.00    -0.020 C 
HETATM   20  C           1     -11.240   2.551 -20.709  0.00  0.00     0.009 C 
HETATM   21  C           1     -11.130   4.379 -22.393  0.00  0.00     0.009 C 
ENDBRANCH  18  19
ENDBRANCH  17  18
BRANCH  17  22
HETATM   22  C           1     -14.192   5.182 -20.444  0.00  0.00     0.196 C 
HETATM   23  O           1     -15.175   5.358 -21.196  0.00  0.00    -0.646 OA
HETATM   24  O           1     -14.352   4.666 -19.318  0.00  0.00    -0.646 OA
ENDBRANCH  17  22
ENDBRANCH   1  17
TORSDOF 10
ENDMDL
MODEL 7
REMARK VINA RESULT:      -4.8     13.834     15.845
REMARK  10 active torsions:
REMARK  status: ('A' for Active; 'I' for Inactive)
REMARK    1  A    between atoms: C_2  and  C_4 
REMARK    2  A    between atoms: C_4  and  C_5 
REMARK    3  A    between atoms: C_5  and  C_6 
REMARK    4  A    between atoms: C_5  and  N_9 
REMARK       I    between atoms: N_9  and  C_10 
REMARK    5  A    between atoms: C_10  and  C_11 
REMARK    6  A    between atoms: C_11  and  C_12 
REMARK    7  A    between atoms: C_11  and  N_18 
REMARK    8  A    between atoms: C_12  and  O_13 
REMARK    9  A    between atoms: O_13  and  P_14 
REMARK   10  A    between atoms: P_14  and  O_15 
ROOT
HETATM    1  N           1     -21.672  -8.502  -4.516  0.00  0.00    -0.345 N 
HETATM    2  C           1     -20.788  -9.333  -5.150  0.00  0.00     0.251 C 
HETATM    3  O           1     -19.716  -8.911  -5.513  0.00  0.00    -0.271 OA
HETATM    4  H           1     -22.570  -8.855  -4.211  0.00  0.00     0.163 HD
ENDROOT
BRANCH   2   5
HETATM    5  C           1     -21.153 -10.776  -5.395  0.00  0.00     0.298 C 
BRANCH   5   6
HETATM    6  C           1     -20.714 -11.621  -4.207  0.00  0.00     0.224 C 
BRANCH   6   7
HETATM    7  O           1     -20.785 -10.855  -3.035  0.00  0.00    -0.287 OA
BRANCH   7   8
HETATM    8  P           1     -19.419 -10.735  -2.183  0.00  0.00     0.406 P 
HETATM    9  O           1     -18.502 -11.833  -2.566  0.00  0.00    -0.624 OA
HETATM   10  O           1     -19.728 -10.830  -0.739  0.00  0.00    -0.624 OA
BRANCH   8  11
HETATM   11  O           1     -18.715  -9.315  -2.491  0.00  0.00    -0.300 OA
HETATM   12  H           1     -17.802  -9.448  -2.298  0.00  0.00     0.223 HD
ENDBRANCH   8  11
ENDBRANCH   7   8
ENDBRANCH   6   7
ENDBRANCH   5   6
BRANCH   5  13
HETATM   13  N           1     -20.462 -11.262  -6.635  0.00  0.00    -0.064 N 
HETATM   14  H           1     -19.428 -11.170  -6.517  0.00  0.00     0.275 HD
HETATM   15  H           1     -20.705 -12.266  -6.797  0.00  0.00     0.275 HD
HETATM   16  H           1     -20.772 -10.690  -7.453  0.00  0.00     0.275 HD
ENDBRANCH   5  13
ENDBRANCH   2   5
BRANCH   1  17
HETATM   17  C           1     -21.320  -7.114  -4.280  0.00  0.00     0.185 C 
BRANCH  17  18
HETATM   18  C           1     -22.181  -6.217  -5.159  0.00  0.00     0.040 C 
BRANCH  18  19
HETATM   19  C           1     -21.314  -5.577  -6.235  0.00  0.00    -0.020 C 
HETATM   20  C           1     -22.172  -4.664  -7.101  0.00  0.00     0.009 C 
HETATM   21  C           1     -20.208  -4.762  -5.577  0.00  0.00     0.009 C 
ENDBRANCH  18  19
ENDBRANCH  17  18
BRANCH  17  22
HETATM   22  C           1     -21.558  -6.776  -2.828  0.00  0.00     0.196 C 
HETATM   23  O           1     -20.889  -7.342  -1.937  0.00  0.00    -0.646 OA
HETATM   24  O           1     -22.425  -5.931  -2.518  0.00  0.00    -0.646 OA
ENDBRANCH  17  22
ENDBRANCH   1  17
TORSDOF 10
ENDMDL
MODEL 8
REMARK VINA RESULT:      -4.8     15.596     17.281
REMARK  10 active torsions:
REMARK  status: ('A' for Active; 'I' for Inactive)
REMARK    1  A    between atoms: C_2  and  C_4 
REMARK    2  A    between atoms: C_4  and  C_5 
REMARK    3  A    between atoms: C_5  and  C_6 
REMARK    4  A    between atoms: C_5  and  N_9 
REMARK       I    between atoms: N_9  and  C_10 
REMARK    5  A    between atoms: C_10  and  C_11 
REMARK    6  A    between atoms: C_11  and  C_12 
REMARK    7  A    between atoms: C_11  and  N_18 
REMARK    8  A    between atoms: C_12  and  O_13 
REMARK    9  A    between atoms: O_13  and  P_14 
REMARK   10  A    between atoms: P_14  and  O_15 
ROOT
HETATM    1  N           1     -20.673  -8.593  -3.380  0.00  0.00    -0.345 N 
HETATM    2  C           1     -21.128  -9.685  -4.069  0.00  0.00     0.251 C 
HETATM    3  O           1     -22.225 -10.133  -3.836  0.00  0.00    -0.271 OA
HETATM    4  H           1     -19.754  -8.217  -3.575  0.00  0.00     0.163 HD
ENDROOT
BRANCH   2   5
HETATM    5  C           1     -20.258 -10.330  -5.119  0.00  0.00     0.298 C 
BRANCH   5   6
HETATM    6  C           1     -19.511 -11.508  -4.508  0.00  0.00     0.224 C 
BRANCH   6   7
HETATM    7  O           1     -19.267 -11.256  -3.152  0.00  0.00    -0.287 OA
BRANCH   7   8
HETATM    8  P           1     -17.754 -10.840  -2.769  0.00  0.00     0.406 P 
HETATM    9  O           1     -16.814 -11.471  -3.722  0.00  0.00    -0.624 OA
HETATM   10  O           1     -17.449 -11.300  -1.396  0.00  0.00    -0.624 OA
BRANCH   8  11
HETATM   11  O           1     -17.600  -9.235  -2.846  0.00  0.00    -0.300 OA
HETATM   12  H           1     -16.674  -9.082  -2.922  0.00  0.00     0.223 HD
ENDBRANCH   8  11
ENDBRANCH   7   8
ENDBRANCH   6   7
ENDBRANCH   5   6
BRANCH   5  13
HETATM   13  N           1     -19.268  -9.326  -5.634  0.00  0.00    -0.064 N 
HETATM   14  H           1     -18.420  -9.822  -5.990  0.00  0.00     0.275 HD
HETATM   15  H           1     -19.701  -8.778  -6.412  0.00  0.00     0.275 HD
HETATM   16  H           1     -18.995  -8.679  -4.860  0.00  0.00     0.275 HD
ENDBRANCH   5  13
ENDBRANCH   2   5
BRANCH   1  17
HETATM   17  C           1     -21.510  -7.973  -2.370  0.00  0.00     0.185 C 
BRANCH  17  18
HETATM   18  C           1     -20.802  -8.027  -1.023  0.00  0.00     0.040 C 
BRANCH  18  19
HETATM   19  C           1     -21.825  -8.264   0.079  0.00  0.00    -0.020 C 
HETATM   20  C           1     -22.779  -9.373  -0.344  0.00  0.00     0.009 C 
HETATM   21  C           1     -21.107  -8.672   1.359  0.00  0.00     0.009 C 
ENDBRANCH  18  19
ENDBRANCH  17  18
BRANCH  17  22
HETATM   22  C           1     -21.769  -6.535  -2.747  0.00  0.00     0.196 C 
HETATM   23  O           1     -22.588  -5.855  -2.092  0.00  0.00    -0.646 OA
HETATM   24  O           1     -21.164  -6.024  -3.714  0.00  0.00    -0.646 OA
ENDBRANCH  17  22
ENDBRANCH   1  17
TORSDOF 10
ENDMDL
MODEL 9
REMARK VINA RESULT:      -4.8     15.542     17.210
REMARK  10 active torsions:
REMARK  status: ('A' for Active; 'I' for Inactive)
REMARK    1  A    between atoms: C_2  and  C_4 
REMARK    2  A    between atoms: C_4  and  C_5 
REMARK    3  A    between atoms: C_5  and  C_6 
REMARK    4  A    between atoms: C_5  and  N_9 
REMARK       I    between atoms: N_9  and  C_10 
REMARK    5  A    between atoms: C_10  and  C_11 
REMARK    6  A    between atoms: C_11  and  C_12 
REMARK    7  A    between atoms: C_11  and  N_18 
REMARK    8  A    between atoms: C_12  and  O_13 
REMARK    9  A    between atoms: O_13  and  P_14 
REMARK   10  A    between atoms: P_14  and  O_15 
ROOT
HETATM    1  N           1     -20.614  -8.401  -3.317  0.00  0.00    -0.345 N 
HETATM    2  C           1     -20.884  -9.560  -3.993  0.00  0.00     0.251 C 
HETATM    3  O           1     -21.894 -10.179  -3.752  0.00  0.00    -0.271 OA
HETATM    4  H           1     -19.770  -7.882  -3.519  0.00  0.00     0.163 HD
ENDROOT
BRANCH   2   5
HETATM    5  C           1     -19.922 -10.064  -5.040  0.00  0.00     0.298 C 
BRANCH   5   6
HETATM    6  C           1     -18.856 -10.926  -4.377  0.00  0.00     0.224 C 
BRANCH   6   7
HETATM    7  O           1     -18.102 -10.142  -3.493  0.00  0.00    -0.287 OA
BRANCH   7   8
HETATM    8  P           1     -16.502 -10.170  -3.710  0.00  0.00     0.406 P 
HETATM    9  O           1     -15.859  -9.242  -2.753  0.00  0.00    -0.624 OA
HETATM   10  O           1     -16.184  -9.753  -5.094  0.00  0.00    -0.624 OA
BRANCH   8  11
HETATM   11  O           1     -15.951 -11.667  -3.459  0.00  0.00    -0.300 OA
HETATM   12  H           1     -16.504 -12.222  -3.982  0.00  0.00     0.223 HD
ENDBRANCH   8  11
ENDBRANCH   7   8
ENDBRANCH   6   7
ENDBRANCH   5   6
BRANCH   5  13
HETATM   13  N           1     -19.268  -8.898  -5.721  0.00  0.00    -0.064 N 
HETATM   14  H           1     -19.640  -8.808  -6.694  0.00  0.00     0.275 HD
HETATM   15  H           1     -19.476  -8.023  -5.188  0.00  0.00     0.275 HD
HETATM   16  H           1     -18.235  -9.050  -5.755  0.00  0.00     0.275 HD
ENDBRANCH   5  13
ENDBRANCH   2   5
BRANCH   1  17
HETATM   17  C           1     -21.540  -7.916  -2.310  0.00  0.00     0.185 C 
BRANCH  17  18
HETATM   18  C           1     -20.842  -7.879  -0.957  0.00  0.00     0.040 C 
BRANCH  18  19
HETATM   19  C           1     -21.337  -9.036  -0.099  0.00  0.00    -0.020 C 
HETATM   20  C           1     -21.113  -8.709   1.371  0.00  0.00     0.009 C 
HETATM   21  C           1     -22.823  -9.254  -0.350  0.00  0.00     0.009 C 
ENDBRANCH  18  19
ENDBRANCH  17  18
BRANCH  17  22
HETATM   22  C           1     -21.999  -6.527  -2.679  0.00  0.00     0.196 C 
HETATM   23  O           1     -21.970  -6.154  -3.872  0.00  0.00    -0.646 OA
HETATM   24  O           1     -22.409  -5.748  -1.791  0.00  0.00    -0.646 OA
ENDBRANCH  17  22
ENDBRANCH   1  17
TORSDOF 10
ENDMDL
