MODEL 1
REMARK VINA RESULT:      -7.5      0.000      0.000
REMARK  12 active torsions:
REMARK  status: ('A' for Active; 'I' for Inactive)
REMARK    1  A    between atoms: C_1  and  O_22 
REMARK    2  A    between atoms: C_4  and  C_5 
REMARK    3  A    between atoms: C_5  and  C_26 
REMARK    4  A    between atoms: N_8  and  C_13 
REMARK    5  A    between atoms: Se_10  and  C_11 
REMARK    6  A    between atoms: C_11  and  C_12 
REMARK    7  A    between atoms: C_12  and  C_13 
REMARK    8  A    between atoms: C_13  and  C_14 
REMARK       I    between atoms: C_14  and  N_15 
REMARK    9  A    between atoms: N_15  and  C_26 
REMARK   10  A    between atoms: O_19  and  P_21 
REMARK   11  A    between atoms: P_21  and  O_22 
REMARK   12  A    between atoms: C_24  and  C_26 
ROOT
HETATM    1  C           1     -32.490  -4.335 -16.244  0.00  0.00     0.189 C 
ENDROOT
BRANCH   1   2
HETATM    2  C           1     -31.968  -5.637 -16.839  0.00  0.00     0.074 C 
BRANCH   2   3
HETATM    3  C           1     -30.471  -5.622 -16.835  0.00  0.00    -0.056 A 
HETATM    4  C           1     -29.780  -5.201 -15.699  0.00  0.00     0.010 A 
HETATM    5  C           1     -28.386  -5.188 -15.695  0.00  0.00     0.038 A 
HETATM    6  C           1     -27.682  -5.595 -16.828  0.00  0.00     0.081 A 
HETATM    7  C           1     -28.371  -6.016 -17.965  0.00  0.00     0.038 A 
HETATM    8  C           1     -29.766  -6.029 -17.968  0.00  0.00     0.010 A 
BRANCH   6   9
HETATM    9  O           1     -26.327  -5.583 -16.824  0.00  0.00    -0.247 OA
BRANCH   9  10
HETATM   10  P           1     -25.561  -6.687 -15.928  0.00  0.00     0.411 P 
HETATM   11  O           1     -26.545  -7.650 -15.386  0.00  0.00    -0.624 OA
HETATM   12  O           1     -24.577  -7.407 -16.767  0.00  0.00    -0.624 OA
BRANCH  10  13
HETATM   13  O           1     -24.795  -5.954 -14.710  0.00  0.00    -0.300 OA
HETATM   14  H           1     -25.471  -5.496 -14.238  0.00  0.00     0.223 HD
ENDBRANCH  10  13
ENDBRANCH   9  10
ENDBRANCH   6   9
ENDBRANCH   2   3
ENDBRANCH   1   2
BRANCH   1  15
HETATM   15  N           1     -33.802  -4.561 -15.668  0.00  0.00    -0.344 N 
HETATM   16  C           1     -34.118  -4.015 -14.453  0.00  0.00     0.249 C 
HETATM   17  O           1     -34.615  -2.916 -14.395  0.00  0.00    -0.271 OA
HETATM   18  H           1     -34.483  -5.121 -16.164  0.00  0.00     0.163 HD
BRANCH  16  19
HETATM   19  C           1     -33.846  -4.787 -13.186  0.00  0.00     0.274 C 
BRANCH  19  20
HETATM   20  N           1     -32.434  -4.539 -12.743  0.00  0.00    -0.067 N 
HETATM   21  H           1     -31.814  -5.295 -13.113  0.00  0.00     0.275 HD
HETATM   22  H           1     -32.112  -3.614 -13.110  0.00  0.00     0.275 HD
HETATM   23  H           1     -32.393  -4.534 -11.699  0.00  0.00     0.275 HD
ENDBRANCH  19  20
BRANCH  19  24
HETATM   24  C           1     -34.806  -4.331 -12.095  0.00  0.00     0.042 C 
BRANCH  24  25
HETATM   25  C           1     -34.027  -4.051 -10.817  0.00  0.00     0.003 C 
BRANCH  25  26
HETATM   26 Se           1     -33.814  -2.126 -10.595  0.00  0.00     0.000 Se
HETATM   27  C           1     -35.652  -1.701 -11.080  0.00  0.00     0.000 C 
ENDBRANCH  25  26
ENDBRANCH  24  25
ENDBRANCH  19  24
ENDBRANCH  16  19
ENDBRANCH   1  15
BRANCH   1  28
HETATM   28  C           1     -32.592  -3.291 -17.329  0.00  0.00     0.197 C 
HETATM   29  O           1     -31.584  -2.995 -18.007  0.00  0.00    -0.646 OA
HETATM   30  O           1     -33.683  -2.722 -17.550  0.00  0.00    -0.646 OA
ENDBRANCH   1  28
TORSDOF 12
ENDMDL
MODEL 2
REMARK VINA RESULT:      -7.2      1.558      2.188
REMARK  12 active torsions:
REMARK  status: ('A' for Active; 'I' for Inactive)
REMARK    1  A    between atoms: C_1  and  O_22 
REMARK    2  A    between atoms: C_4  and  C_5 
REMARK    3  A    between atoms: C_5  and  C_26 
REMARK    4  A    between atoms: N_8  and  C_13 
REMARK    5  A    between atoms: Se_10  and  C_11 
REMARK    6  A    between atoms: C_11  and  C_12 
REMARK    7  A    between atoms: C_12  and  C_13 
REMARK    8  A    between atoms: C_13  and  C_14 
REMARK       I    between atoms: C_14  and  N_15 
REMARK    9  A    between atoms: N_15  and  C_26 
REMARK   10  A    between atoms: O_19  and  P_21 
REMARK   11  A    between atoms: P_21  and  O_22 
REMARK   12  A    between atoms: C_24  and  C_26 
ROOT
HETATM    1  C           1     -32.649  -4.270 -16.014  0.00  0.00     0.189 C 
ENDROOT
BRANCH   1   2
HETATM    2  C           1     -32.159  -5.571 -16.636  0.00  0.00     0.074 C 
BRANCH   2   3
HETATM    3  C           1     -30.663  -5.566 -16.690  0.00  0.00    -0.056 A 
HETATM    4  C           1     -29.925  -5.202 -15.563  0.00  0.00     0.010 A 
HETATM    5  C           1     -28.532  -5.198 -15.613  0.00  0.00     0.038 A 
HETATM    6  C           1     -27.875  -5.558 -16.790  0.00  0.00     0.081 A 
HETATM    7  C           1     -28.612  -5.923 -17.916  0.00  0.00     0.038 A 
HETATM    8  C           1     -30.006  -5.926 -17.866  0.00  0.00     0.010 A 
BRANCH   6   9
HETATM    9  O           1     -26.521  -5.554 -16.838  0.00  0.00    -0.247 OA
BRANCH   9  10
HETATM   10  P           1     -25.729  -6.660 -15.968  0.00  0.00     0.411 P 
HETATM   11  O           1     -25.002  -5.992 -14.865  0.00  0.00    -0.624 OA
HETATM   12  O           1     -26.694  -7.630 -15.404  0.00  0.00    -0.624 OA
BRANCH  10  13
HETATM   13  O           1     -24.677  -7.437 -16.915  0.00  0.00    -0.300 OA
HETATM   14  H           1     -25.081  -8.269 -17.097  0.00  0.00     0.223 HD
ENDBRANCH  10  13
ENDBRANCH   9  10
ENDBRANCH   6   9
ENDBRANCH   2   3
ENDBRANCH   1   2
BRANCH   1  15
HETATM   15  N           1     -33.811  -4.538 -15.189  0.00  0.00    -0.344 N 
HETATM   16  C           1     -34.019  -3.817 -14.044  0.00  0.00     0.249 C 
HETATM   17  O           1     -34.658  -2.792 -14.082  0.00  0.00    -0.271 OA
HETATM   18  H           1     -34.469  -5.258 -15.460  0.00  0.00     0.163 HD
BRANCH  16  19
HETATM   19  C           1     -33.447  -4.301 -12.734  0.00  0.00     0.274 C 
BRANCH  19  20
HETATM   20  N           1     -33.222  -3.130 -11.824  0.00  0.00    -0.067 N 
HETATM   21  H           1     -32.328  -2.653 -12.082  0.00  0.00     0.275 HD
HETATM   22  H           1     -34.016  -2.456 -11.921  0.00  0.00     0.275 HD
HETATM   23  H           1     -33.166  -3.463 -10.835  0.00  0.00     0.275 HD
ENDBRANCH  19  20
BRANCH  19  24
HETATM   24  C           1     -34.424  -5.270 -12.080  0.00  0.00     0.042 C 
BRANCH  24  25
HETATM   25  C           1     -33.704  -6.063 -10.998  0.00  0.00     0.003 C 
BRANCH  25  26
HETATM   26 Se           1     -35.001  -7.110  -9.988  0.00  0.00     0.000 Se
HETATM   27  C           1     -33.900  -8.717  -9.925  0.00  0.00     0.000 C 
ENDBRANCH  25  26
ENDBRANCH  24  25
ENDBRANCH  19  24
ENDBRANCH  16  19
ENDBRANCH   1  15
BRANCH   1  28
HETATM   28  C           1     -33.023  -3.299 -17.107  0.00  0.00     0.197 C 
HETATM   29  O           1     -34.182  -2.832 -17.159  0.00  0.00    -0.646 OA
HETATM   30  O           1     -32.175  -2.961 -17.961  0.00  0.00    -0.646 OA
ENDBRANCH   1  28
TORSDOF 12
ENDMDL
MODEL 3
REMARK VINA RESULT:      -6.9     12.367     14.716
REMARK  12 active torsions:
REMARK  status: ('A' for Active; 'I' for Inactive)
REMARK    1  A    between atoms: C_1  and  O_22 
REMARK    2  A    between atoms: C_4  and  C_5 
REMARK    3  A    between atoms: C_5  and  C_26 
REMARK    4  A    between atoms: N_8  and  C_13 
REMARK    5  A    between atoms: Se_10  and  C_11 
REMARK    6  A    between atoms: C_11  and  C_12 
REMARK    7  A    between atoms: C_12  and  C_13 
REMARK    8  A    between atoms: C_13  and  C_14 
REMARK       I    between atoms: C_14  and  N_15 
REMARK    9  A    between atoms: N_15  and  C_26 
REMARK   10  A    between atoms: O_19  and  P_21 
REMARK   11  A    between atoms: P_21  and  O_22 
REMARK   12  A    between atoms: C_24  and  C_26 
ROOT
HETATM    1  C           1     -21.151  -7.805  -5.400  0.00  0.00     0.189 C 
ENDROOT
BRANCH   1   2
HETATM    2  C           1     -20.296  -6.563  -5.618  0.00  0.00     0.074 C 
BRANCH   2   3
HETATM    3  C           1     -20.908  -5.718  -6.691  0.00  0.00    -0.056 A 
HETATM    4  C           1     -22.149  -5.115  -6.483  0.00  0.00     0.010 A 
HETATM    5  C           1     -22.719  -4.328  -7.483  0.00  0.00     0.038 A 
HETATM    6  C           1     -22.048  -4.144  -8.692  0.00  0.00     0.081 A 
HETATM    7  C           1     -20.808  -4.746  -8.901  0.00  0.00     0.038 A 
HETATM    8  C           1     -20.238  -5.533  -7.901  0.00  0.00     0.010 A 
BRANCH   6   9
HETATM    9  O           1     -22.602  -3.378  -9.664  0.00  0.00    -0.247 OA
BRANCH   9  10
HETATM   10  P           1     -23.572  -4.099 -10.735  0.00  0.00     0.411 P 
HETATM   11  O           1     -22.867  -4.227 -12.031  0.00  0.00    -0.624 OA
HETATM   12  O           1     -23.941  -5.445 -10.241  0.00  0.00    -0.624 OA
BRANCH  10  13
HETATM   13  O           1     -24.908  -3.214 -10.933  0.00  0.00    -0.300 OA
HETATM   14  H           1     -24.728  -2.400 -10.492  0.00  0.00     0.223 HD
ENDBRANCH  10  13
ENDBRANCH   9  10
ENDBRANCH   6   9
ENDBRANCH   2   3
ENDBRANCH   1   2
BRANCH   1  15
HETATM   15  N           1     -22.168  -7.521  -4.406  0.00  0.00    -0.344 N 
HETATM   16  C           1     -21.811  -7.003  -3.190  0.00  0.00     0.249 C 
HETATM   17  O           1     -21.756  -5.806  -3.036  0.00  0.00    -0.271 OA
HETATM   18  H           1     -23.142  -7.705  -4.611  0.00  0.00     0.163 HD
BRANCH  16  19
HETATM   19  C           1     -21.486  -7.927  -2.043  0.00  0.00     0.274 C 
BRANCH  19  20
HETATM   20  N           1     -20.007  -7.915  -1.794  0.00  0.00    -0.067 N 
HETATM   21  H           1     -19.519  -7.478  -2.609  0.00  0.00     0.275 HD
HETATM   22  H           1     -19.804  -7.361  -0.931  0.00  0.00     0.275 HD
HETATM   23  H           1     -19.667  -8.895  -1.669  0.00  0.00     0.275 HD
ENDBRANCH  19  20
BRANCH  19  24
HETATM   24  C           1     -22.214  -7.458  -0.789  0.00  0.00     0.042 C 
BRANCH  24  25
HETATM   25  C           1     -22.155  -8.549   0.271  0.00  0.00     0.003 C 
BRANCH  25  26
HETATM   26 Se           1     -23.093 -10.132  -0.373  0.00  0.00     0.000 Se
HETATM   27  C           1     -21.768 -11.392   0.302  0.00  0.00     0.000 C 
ENDBRANCH  25  26
ENDBRANCH  24  25
ENDBRANCH  19  24
ENDBRANCH  16  19
ENDBRANCH   1  15
BRANCH   1  28
HETATM   28  C           1     -20.278  -8.938  -4.916  0.00  0.00     0.197 C 
HETATM   29  O           1     -20.750 -10.091  -4.817  0.00  0.00    -0.646 OA
HETATM   30  O           1     -19.084  -8.722  -4.615  0.00  0.00    -0.646 OA
ENDBRANCH   1  28
TORSDOF 12
ENDMDL
MODEL 4
REMARK VINA RESULT:      -6.3     12.402     14.754
REMARK  12 active torsions:
REMARK  status: ('A' for Active; 'I' for Inactive)
REMARK    1  A    between atoms: C_1  and  O_22 
REMARK    2  A    between atoms: C_4  and  C_5 
REMARK    3  A    between atoms: C_5  and  C_26 
REMARK    4  A    between atoms: N_8  and  C_13 
REMARK    5  A    between atoms: Se_10  and  C_11 
REMARK    6  A    between atoms: C_11  and  C_12 
REMARK    7  A    between atoms: C_12  and  C_13 
REMARK    8  A    between atoms: C_13  and  C_14 
REMARK       I    between atoms: C_14  and  N_15 
REMARK    9  A    between atoms: N_15  and  C_26 
REMARK   10  A    between atoms: O_19  and  P_21 
REMARK   11  A    between atoms: P_21  and  O_22 
REMARK   12  A    between atoms: C_24  and  C_26 
ROOT
HETATM    1  C           1     -20.915  -6.910  -4.233  0.00  0.00     0.189 C 
ENDROOT
BRANCH   1   2
HETATM    2  C           1     -22.066  -6.894  -5.230  0.00  0.00     0.074 C 
BRANCH   2   3
HETATM    3  C           1     -21.750  -5.941  -6.341  0.00  0.00    -0.056 A 
HETATM    4  C           1     -20.599  -6.119  -7.109  0.00  0.00     0.010 A 
HETATM    5  C           1     -20.306  -5.232  -8.143  0.00  0.00     0.038 A 
HETATM    6  C           1     -21.164  -4.165  -8.411  0.00  0.00     0.081 A 
HETATM    7  C           1     -22.315  -3.986  -7.644  0.00  0.00     0.038 A 
HETATM    8  C           1     -22.608  -4.874  -6.609  0.00  0.00     0.010 A 
BRANCH   6   9
HETATM    9  O           1     -20.879  -3.303  -9.416  0.00  0.00    -0.247 OA
BRANCH   9  10
HETATM   10  P           1     -21.322  -3.713 -10.914  0.00  0.00     0.411 P 
HETATM   11  O           1     -22.362  -4.763 -10.851  0.00  0.00    -0.624 OA
HETATM   12  O           1     -21.864  -2.525 -11.612  0.00  0.00    -0.624 OA
BRANCH  10  13
HETATM   13  O           1     -20.039  -4.271 -11.721  0.00  0.00    -0.300 OA
HETATM   14  H           1     -20.047  -5.203 -11.576  0.00  0.00     0.223 HD
ENDBRANCH  10  13
ENDBRANCH   9  10
ENDBRANCH   6   9
ENDBRANCH   2   3
ENDBRANCH   1   2
BRANCH   1  15
HETATM   15  N           1     -20.311  -8.228  -4.214  0.00  0.00    -0.344 N 
HETATM   16  C           1     -20.976  -9.293  -4.760  0.00  0.00     0.249 C 
HETATM   17  O           1     -20.821  -9.569  -5.926  0.00  0.00    -0.271 OA
HETATM   18  H           1     -19.398  -8.361  -3.798  0.00  0.00     0.163 HD
BRANCH  16  19
HETATM   19  C           1     -21.903 -10.121  -3.906  0.00  0.00     0.274 C 
BRANCH  19  20
HETATM   20  N           1     -22.133 -11.450  -4.561  0.00  0.00    -0.067 N 
HETATM   21  H           1     -22.939 -11.932  -4.101  0.00  0.00     0.275 HD
HETATM   22  H           1     -22.347 -11.306  -5.575  0.00  0.00     0.275 HD
HETATM   23  H           1     -21.275 -12.039  -4.466  0.00  0.00     0.275 HD
ENDBRANCH  19  20
BRANCH  19  24
HETATM   24  C           1     -21.277 -10.335  -2.534  0.00  0.00     0.042 C 
BRANCH  24  25
HETATM   25  C           1     -22.375 -10.421  -1.482  0.00  0.00     0.003 C 
BRANCH  25  26
HETATM   26 Se           1     -21.721  -9.691   0.202  0.00  0.00     0.000 Se
HETATM   27  C           1     -23.114  -8.336   0.345  0.00  0.00     0.000 C 
ENDBRANCH  25  26
ENDBRANCH  24  25
ENDBRANCH  19  24
ENDBRANCH  16  19
ENDBRANCH   1  15
BRANCH   1  28
HETATM   28  C           1     -21.437  -6.577  -2.856  0.00  0.00     0.197 C 
HETATM   29  O           1     -22.498  -5.928  -2.731  0.00  0.00    -0.646 OA
HETATM   30  O           1     -20.809  -6.951  -1.842  0.00  0.00    -0.646 OA
ENDBRANCH   1  28
TORSDOF 12
ENDMDL
MODEL 5
REMARK VINA RESULT:      -6.2     13.031     15.860
REMARK  12 active torsions:
REMARK  status: ('A' for Active; 'I' for Inactive)
REMARK    1  A    between atoms: C_1  and  O_22 
REMARK    2  A    between atoms: C_4  and  C_5 
REMARK    3  A    between atoms: C_5  and  C_26 
REMARK    4  A    between atoms: N_8  and  C_13 
REMARK    5  A    between atoms: Se_10  and  C_11 
REMARK    6  A    between atoms: C_11  and  C_12 
REMARK    7  A    between atoms: C_12  and  C_13 
REMARK    8  A    between atoms: C_13  and  C_14 
REMARK       I    between atoms: C_14  and  N_15 
REMARK    9  A    between atoms: N_15  and  C_26 
REMARK   10  A    between atoms: O_19  and  P_21 
REMARK   11  A    between atoms: P_21  and  O_22 
REMARK   12  A    between atoms: C_24  and  C_26 
ROOT
HETATM    1  C           1     -20.999  -7.581  -3.813  0.00  0.00     0.189 C 
ENDROOT
BRANCH   1   2
HETATM    2  C           1     -22.125  -7.323  -4.806  0.00  0.00     0.074 C 
BRANCH   2   3
HETATM    3  C           1     -21.653  -6.369  -5.858  0.00  0.00    -0.056 A 
HETATM    4  C           1     -22.486  -5.337  -6.290  0.00  0.00     0.010 A 
HETATM    5  C           1     -22.046  -4.448  -7.270  0.00  0.00     0.038 A 
HETATM    6  C           1     -20.771  -4.591  -7.818  0.00  0.00     0.081 A 
HETATM    7  C           1     -19.937  -5.622  -7.387  0.00  0.00     0.038 A 
HETATM    8  C           1     -20.378  -6.511  -6.407  0.00  0.00     0.010 A 
BRANCH   6   9
HETATM    9  O           1     -20.343  -3.727  -8.771  0.00  0.00    -0.247 OA
BRANCH   9  10
HETATM   10  P           1     -20.609  -4.111 -10.317  0.00  0.00     0.411 P 
HETATM   11  O           1     -19.706  -5.215 -10.713  0.00  0.00    -0.624 OA
HETATM   12  O           1     -22.015  -4.541 -10.485  0.00  0.00    -0.624 OA
BRANCH  10  13
HETATM   13  O           1     -20.326  -2.822 -11.247  0.00  0.00    -0.300 OA
HETATM   14  H           1     -21.153  -2.374 -11.301  0.00  0.00     0.223 HD
ENDBRANCH  10  13
ENDBRANCH   9  10
ENDBRANCH   6   9
ENDBRANCH   2   3
ENDBRANCH   1   2
BRANCH   1  15
HETATM   15  N           1     -20.871  -9.008  -3.589  0.00  0.00    -0.344 N 
HETATM   16  C           1     -19.656  -9.619  -3.744  0.00  0.00     0.249 C 
HETATM   17  O           1     -18.901  -9.710  -2.806  0.00  0.00    -0.271 OA
HETATM   18  H           1     -21.679  -9.553  -3.318  0.00  0.00     0.163 HD
BRANCH  16  19
HETATM   19  C           1     -19.258 -10.178  -5.088  0.00  0.00     0.274 C 
BRANCH  19  20
HETATM   20  N           1     -20.466 -10.254  -5.975  0.00  0.00    -0.067 N 
HETATM   21  H           1     -21.251  -9.715  -5.544  0.00  0.00     0.275 HD
HETATM   22  H           1     -20.237  -9.846  -6.910  0.00  0.00     0.275 HD
HETATM   23  H           1     -20.751 -11.252  -6.089  0.00  0.00     0.275 HD
ENDBRANCH  19  20
BRANCH  19  24
HETATM   24  C           1     -18.216  -9.270  -5.729  0.00  0.00     0.042 C 
BRANCH  24  25
HETATM   25  C           1     -16.853  -9.946  -5.679  0.00  0.00     0.003 C 
BRANCH  25  26
HETATM   26 Se           1     -17.084 -11.880  -5.736  0.00  0.00     0.000 Se
HETATM   27  C           1     -15.459 -12.209  -6.761  0.00  0.00     0.000 C 
ENDBRANCH  25  26
ENDBRANCH  24  25
ENDBRANCH  19  24
ENDBRANCH  16  19
ENDBRANCH   1  15
BRANCH   1  28
HETATM   28  C           1     -21.313  -6.895  -2.506  0.00  0.00     0.197 C 
HETATM   29  O           1     -22.077  -5.905  -2.488  0.00  0.00    -0.646 OA
HETATM   30  O           1     -20.810  -7.316  -1.442  0.00  0.00    -0.646 OA
ENDBRANCH   1  28
TORSDOF 12
ENDMDL
MODEL 6
REMARK VINA RESULT:      -6.1     12.741     15.382
REMARK  12 active torsions:
REMARK  status: ('A' for Active; 'I' for Inactive)
REMARK    1  A    between atoms: C_1  and  O_22 
REMARK    2  A    between atoms: C_4  and  C_5 
REMARK    3  A    between atoms: C_5  and  C_26 
REMARK    4  A    between atoms: N_8  and  C_13 
REMARK    5  A    between atoms: Se_10  and  C_11 
REMARK    6  A    between atoms: C_11  and  C_12 
REMARK    7  A    between atoms: C_12  and  C_13 
REMARK    8  A    between atoms: C_13  and  C_14 
REMARK       I    between atoms: C_14  and  N_15 
REMARK    9  A    between atoms: N_15  and  C_26 
REMARK   10  A    between atoms: O_19  and  P_21 
REMARK   11  A    between atoms: P_21  and  O_22 
REMARK   12  A    between atoms: C_24  and  C_26 
ROOT
HETATM    1  C           1     -20.888  -7.420  -3.619  0.00  0.00     0.189 C 
ENDROOT
BRANCH   1   2
HETATM    2  C           1     -21.912  -7.449  -4.746  0.00  0.00     0.074 C 
BRANCH   2   3
HETATM    3  C           1     -21.523  -6.459  -5.800  0.00  0.00    -0.056 A 
HETATM    4  C           1     -20.248  -6.505  -6.364  0.00  0.00     0.010 A 
HETATM    5  C           1     -19.885  -5.583  -7.346  0.00  0.00     0.038 A 
HETATM    6  C           1     -20.799  -4.615  -7.764  0.00  0.00     0.081 A 
HETATM    7  C           1     -22.074  -4.570  -7.201  0.00  0.00     0.038 A 
HETATM    8  C           1     -22.436  -5.492  -6.219  0.00  0.00     0.010 A 
BRANCH   6   9
HETATM    9  O           1     -20.447  -3.720  -8.718  0.00  0.00    -0.247 OA
BRANCH   9  10
HETATM   10  P           1     -20.667  -4.134 -10.264  0.00  0.00     0.411 P 
HETATM   11  O           1     -19.751  -5.243 -10.612  0.00  0.00    -0.624 OA
HETATM   12  O           1     -22.067  -4.570 -10.464  0.00  0.00    -0.624 OA
BRANCH  10  13
HETATM   13  O           1     -20.359  -2.862 -11.210  0.00  0.00    -0.300 OA
HETATM   14  H           1     -19.420  -2.772 -11.199  0.00  0.00     0.223 HD
ENDBRANCH  10  13
ENDBRANCH   9  10
ENDBRANCH   6   9
ENDBRANCH   2   3
ENDBRANCH   1   2
BRANCH   1  15
HETATM   15  N           1     -20.403  -8.764  -3.373  0.00  0.00    -0.344 N 
HETATM   16  C           1     -19.213  -9.172  -3.912  0.00  0.00     0.249 C 
HETATM   17  O           1     -18.185  -9.013  -3.298  0.00  0.00    -0.271 OA
HETATM   18  H           1     -20.944  -9.400  -2.801  0.00  0.00     0.163 HD
BRANCH  16  19
HETATM   19  C           1     -19.185  -9.818  -5.275  0.00  0.00     0.274 C 
BRANCH  19  20
HETATM   20  N           1     -17.763  -9.967  -5.729  0.00  0.00    -0.067 N 
HETATM   21  H           1     -17.387 -10.886  -5.403  0.00  0.00     0.275 HD
HETATM   22  H           1     -17.725  -9.926  -6.773  0.00  0.00     0.275 HD
HETATM   23  H           1     -17.187  -9.193  -5.328  0.00  0.00     0.275 HD
ENDBRANCH  19  20
BRANCH  19  24
HETATM   24  C           1     -19.839 -11.192  -5.200  0.00  0.00     0.042 C 
BRANCH  24  25
HETATM   25  C           1     -21.120 -11.191  -6.024  0.00  0.00     0.003 C 
BRANCH  25  26
HETATM   26 Se           1     -22.356 -12.515  -5.306  0.00  0.00     0.000 Se
HETATM   27  C           1     -22.660 -11.564  -3.632  0.00  0.00     0.000 C 
ENDBRANCH  25  26
ENDBRANCH  24  25
ENDBRANCH  19  24
ENDBRANCH  16  19
ENDBRANCH   1  15
BRANCH   1  28
HETATM   28  C           1     -21.535  -6.882  -2.366  0.00  0.00     0.197 C 
HETATM   29  O           1     -22.301  -5.897  -2.432  0.00  0.00    -0.646 OA
HETATM   30  O           1     -21.304  -7.421  -1.262  0.00  0.00    -0.646 OA
ENDBRANCH   1  28
TORSDOF 12
ENDMDL
MODEL 7
REMARK VINA RESULT:      -6.0     14.126     16.439
REMARK  12 active torsions:
REMARK  status: ('A' for Active; 'I' for Inactive)
REMARK    1  A    between atoms: C_1  and  O_22 
REMARK    2  A    between atoms: C_4  and  C_5 
REMARK    3  A    between atoms: C_5  and  C_26 
REMARK    4  A    between atoms: N_8  and  C_13 
REMARK    5  A    between atoms: Se_10  and  C_11 
REMARK    6  A    between atoms: C_11  and  C_12 
REMARK    7  A    between atoms: C_12  and  C_13 
REMARK    8  A    between atoms: C_13  and  C_14 
REMARK       I    between atoms: C_14  and  N_15 
REMARK    9  A    between atoms: N_15  and  C_26 
REMARK   10  A    between atoms: O_19  and  P_21 
REMARK   11  A    between atoms: P_21  and  O_22 
REMARK   12  A    between atoms: C_24  and  C_26 
ROOT
HETATM    1  C           1     -21.442  -7.702  -2.396  0.00  0.00     0.189 C 
ENDROOT
BRANCH   1   2
HETATM    2  C           1     -19.986  -7.994  -2.056  0.00  0.00     0.074 C 
BRANCH   2   3
HETATM    3  C           1     -19.520  -9.181  -2.839  0.00  0.00    -0.056 A 
HETATM    4  C           1     -20.449 -10.048  -3.415  0.00  0.00     0.010 A 
HETATM    5  C           1     -20.014 -11.153  -4.145  0.00  0.00     0.038 A 
HETATM    6  C           1     -18.649 -11.393  -4.299  0.00  0.00     0.081 A 
HETATM    7  C           1     -17.719 -10.528  -3.725  0.00  0.00     0.038 A 
HETATM    8  C           1     -18.155  -9.422  -2.995  0.00  0.00     0.010 A 
BRANCH   6   9
HETATM    9  O           1     -18.227 -12.468  -5.009  0.00  0.00    -0.247 OA
BRANCH   9  10
HETATM   10  P           1     -17.827 -12.244  -6.557  0.00  0.00     0.411 P 
HETATM   11  O           1     -16.391 -11.897  -6.651  0.00  0.00    -0.624 OA
HETATM   12  O           1     -18.084 -13.486  -7.319  0.00  0.00    -0.624 OA
BRANCH  10  13
HETATM   13  O           1     -18.714 -11.042  -7.173  0.00  0.00    -0.300 OA
HETATM   14  H           1     -18.433 -10.271  -6.710  0.00  0.00     0.223 HD
ENDBRANCH  10  13
ENDBRANCH   9  10
ENDBRANCH   6   9
ENDBRANCH   2   3
ENDBRANCH   1   2
BRANCH   1  15
HETATM   15  N           1     -21.541  -6.386  -2.999  0.00  0.00    -0.344 N 
HETATM   16  C           1     -21.689  -6.264  -4.354  0.00  0.00     0.249 C 
HETATM   17  O           1     -22.793  -6.239  -4.842  0.00  0.00    -0.271 OA
HETATM   18  H           1     -21.503  -5.559  -2.417  0.00  0.00     0.163 HD
BRANCH  16  19
HETATM   19  C           1     -20.470  -6.160  -5.238  0.00  0.00     0.274 C 
BRANCH  19  20
HETATM   20  N           1     -20.524  -7.228  -6.290  0.00  0.00    -0.067 N 
HETATM   21  H           1     -20.647  -6.788  -7.230  0.00  0.00     0.275 HD
HETATM   22  H           1     -19.632  -7.775  -6.276  0.00  0.00     0.275 HD
HETATM   23  H           1     -21.328  -7.867  -6.097  0.00  0.00     0.275 HD
ENDBRANCH  19  20
BRANCH  19  24
HETATM   24  C           1     -20.441  -4.792  -5.907  0.00  0.00     0.042 C 
BRANCH  24  25
HETATM   25  C           1     -19.490  -4.828  -7.095  0.00  0.00     0.003 C 
BRANCH  25  26
HETATM   26 Se           1     -20.457  -4.345  -8.717  0.00  0.00     0.000 Se
HETATM   27  C           1     -22.180  -4.149  -7.828  0.00  0.00     0.000 C 
ENDBRANCH  25  26
ENDBRANCH  24  25
ENDBRANCH  19  24
ENDBRANCH  16  19
ENDBRANCH   1  15
BRANCH   1  28
HETATM   28  C           1     -22.271  -7.741  -1.136  0.00  0.00     0.197 C 
HETATM   29  O           1     -22.574  -8.839  -0.621  0.00  0.00    -0.646 OA
HETATM   30  O           1     -22.655  -6.675  -0.606  0.00  0.00    -0.646 OA
ENDBRANCH   1  28
TORSDOF 12
ENDMDL
MODEL 8
REMARK VINA RESULT:      -6.0     15.517     17.441
REMARK  12 active torsions:
REMARK  status: ('A' for Active; 'I' for Inactive)
REMARK    1  A    between atoms: C_1  and  O_22 
REMARK    2  A    between atoms: C_4  and  C_5 
REMARK    3  A    between atoms: C_5  and  C_26 
REMARK    4  A    between atoms: N_8  and  C_13 
REMARK    5  A    between atoms: Se_10  and  C_11 
REMARK    6  A    between atoms: C_11  and  C_12 
REMARK    7  A    between atoms: C_12  and  C_13 
REMARK    8  A    between atoms: C_13  and  C_14 
REMARK       I    between atoms: C_14  and  N_15 
REMARK    9  A    between atoms: N_15  and  C_26 
REMARK   10  A    between atoms: O_19  and  P_21 
REMARK   11  A    between atoms: P_21  and  O_22 
REMARK   12  A    between atoms: C_24  and  C_26 
ROOT
HETATM    1  C           1     -20.522  -7.325  -4.583  0.00  0.00     0.189 C 
ENDROOT
BRANCH   1   2
HETATM    2  C           1     -20.277  -8.693  -5.207  0.00  0.00     0.074 C 
BRANCH   2   3
HETATM    3  C           1     -18.946  -9.213  -4.762  0.00  0.00    -0.056 A 
HETATM    4  C           1     -18.650  -9.302  -3.401  0.00  0.00     0.010 A 
HETATM    5  C           1     -17.410  -9.787  -2.987  0.00  0.00     0.038 A 
HETATM    6  C           1     -16.466 -10.185  -3.933  0.00  0.00     0.081 A 
HETATM    7  C           1     -16.761 -10.097  -5.293  0.00  0.00     0.038 A 
HETATM    8  C           1     -18.001  -9.611  -5.707  0.00  0.00     0.010 A 
BRANCH   6   9
HETATM    9  O           1     -15.261 -10.656  -3.530  0.00  0.00    -0.247 OA
BRANCH   9  10
HETATM   10  P           1     -15.164 -12.206  -3.087  0.00  0.00     0.411 P 
HETATM   11  O           1     -15.433 -12.322  -1.636  0.00  0.00    -0.624 OA
HETATM   12  O           1     -16.163 -12.999  -3.837  0.00  0.00    -0.624 OA
BRANCH  10  13
HETATM   13  O           1     -13.683 -12.766  -3.407  0.00  0.00    -0.300 OA
HETATM   14  H           1     -13.106 -12.041  -3.231  0.00  0.00     0.223 HD
ENDBRANCH  10  13
ENDBRANCH   9  10
ENDBRANCH   6   9
ENDBRANCH   2   3
ENDBRANCH   1   2
BRANCH   1  15
HETATM   15  N           1     -21.760  -7.354  -3.829  0.00  0.00    -0.344 N 
HETATM   16  C           1     -21.792  -6.873  -2.547  0.00  0.00     0.249 C 
HETATM   17  O           1     -22.047  -5.711  -2.343  0.00  0.00    -0.271 OA
HETATM   18  H           1     -22.600  -7.728  -4.250  0.00  0.00     0.163 HD
BRANCH  16  19
HETATM   19  C           1     -21.507  -7.797  -1.389  0.00  0.00     0.274 C 
BRANCH  19  20
HETATM   20  N           1     -22.266  -7.333  -0.181  0.00  0.00    -0.067 N 
HETATM   21  H           1     -21.625  -6.801   0.451  0.00  0.00     0.275 HD
HETATM   22  H           1     -23.052  -6.712  -0.481  0.00  0.00     0.275 HD
HETATM   23  H           1     -22.649  -8.161   0.328  0.00  0.00     0.275 HD
ENDBRANCH  19  20
BRANCH  19  24
HETATM   24  C           1     -21.941  -9.212  -1.747  0.00  0.00     0.042 C 
BRANCH  24  25
HETATM   25  C           1     -22.813  -9.774  -0.631  0.00  0.00     0.003 C 
BRANCH  25  26
HETATM   26 Se           1     -22.027 -11.428   0.036  0.00  0.00     0.000 Se
HETATM   27  C           1     -20.593 -10.544   1.017  0.00  0.00     0.000 C 
ENDBRANCH  25  26
ENDBRANCH  24  25
ENDBRANCH  19  24
ENDBRANCH  16  19
ENDBRANCH   1  15
BRANCH   1  28
HETATM   28  C           1     -20.622  -6.285  -5.673  0.00  0.00     0.197 C 
HETATM   29  O           1     -20.830  -6.637  -6.854  0.00  0.00    -0.646 OA
HETATM   30  O           1     -20.496  -5.073  -5.394  0.00  0.00    -0.646 OA
ENDBRANCH   1  28
TORSDOF 12
ENDMDL
MODEL 9
REMARK VINA RESULT:      -6.0     15.580     17.961
REMARK  12 active torsions:
REMARK  status: ('A' for Active; 'I' for Inactive)
REMARK    1  A    between atoms: C_1  and  O_22 
REMARK    2  A    between atoms: C_4  and  C_5 
REMARK    3  A    between atoms: C_5  and  C_26 
REMARK    4  A    between atoms: N_8  and  C_13 
REMARK    5  A    between atoms: Se_10  and  C_11 
REMARK    6  A    between atoms: C_11  and  C_12 
REMARK    7  A    between atoms: C_12  and  C_13 
REMARK    8  A    between atoms: C_13  and  C_14 
REMARK       I    between atoms: C_14  and  N_15 
REMARK    9  A    between atoms: N_15  and  C_26 
REMARK   10  A    between atoms: O_19  and  P_21 
REMARK   11  A    between atoms: P_21  and  O_22 
REMARK   12  A    between atoms: C_24  and  C_26 
ROOT
HETATM    1  C           1     -21.563 -10.308   0.155  0.00  0.00     0.189 C 
ENDROOT
BRANCH   1   2
HETATM    2  C           1     -22.169  -8.920   0.321  0.00  0.00     0.074 C 
BRANCH   2   3
HETATM    3  C           1     -21.842  -8.087  -0.878  0.00  0.00    -0.056 A 
HETATM    4  C           1     -22.353  -6.794  -0.991  0.00  0.00     0.010 A 
HETATM    5  C           1     -22.048  -6.017  -2.108  0.00  0.00     0.038 A 
HETATM    6  C           1     -21.230  -6.533  -3.113  0.00  0.00     0.081 A 
HETATM    7  C           1     -20.717  -7.825  -3.001  0.00  0.00     0.038 A 
HETATM    8  C           1     -21.023  -8.601  -1.883  0.00  0.00     0.010 A 
BRANCH   6   9
HETATM    9  O           1     -20.933  -5.778  -4.198  0.00  0.00    -0.247 OA
BRANCH   9  10
HETATM   10  P           1     -21.761  -6.048  -5.558  0.00  0.00     0.411 P 
HETATM   11  O           1     -21.219  -7.247  -6.236  0.00  0.00    -0.624 OA
HETATM   12  O           1     -23.188  -6.269  -5.233  0.00  0.00    -0.624 OA
BRANCH  10  13
HETATM   13  O           1     -21.624  -4.768  -6.534  0.00  0.00    -0.300 OA
HETATM   14  H           1     -20.697  -4.657  -6.661  0.00  0.00     0.223 HD
ENDBRANCH  10  13
ENDBRANCH   9  10
ENDBRANCH   6   9
ENDBRANCH   2   3
ENDBRANCH   1   2
BRANCH   1  15
HETATM   15  N           1     -22.561 -11.311   0.473  0.00  0.00    -0.344 N 
HETATM   16  C           1     -22.474 -12.561  -0.079  0.00  0.00     0.249 C 
HETATM   17  O           1     -21.857 -13.431   0.488  0.00  0.00    -0.271 OA
HETATM   18  H           1     -23.321 -11.087   1.103  0.00  0.00     0.163 HD
BRANCH  16  19
HETATM   19  C           1     -23.149 -12.852  -1.396  0.00  0.00     0.274 C 
BRANCH  19  20
HETATM   20  N           1     -24.360 -13.705  -1.160  0.00  0.00    -0.067 N 
HETATM   21  H           1     -25.065 -13.167  -0.607  0.00  0.00     0.275 HD
HETATM   22  H           1     -24.777 -13.979  -2.079  0.00  0.00     0.275 HD
HETATM   23  H           1     -24.084 -14.563  -0.632  0.00  0.00     0.275 HD
ENDBRANCH  19  20
BRANCH  19  24
HETATM   24  C           1     -23.572 -11.543  -2.052  0.00  0.00     0.042 C 
BRANCH  24  25
HETATM   25  C           1     -22.803 -11.354  -3.353  0.00  0.00     0.003 C 
BRANCH  25  26
HETATM   26 Se           1     -21.641 -12.890  -3.649  0.00  0.00     0.000 Se
HETATM   27  C           1     -20.011 -11.968  -3.110  0.00  0.00     0.000 C 
ENDBRANCH  25  26
ENDBRANCH  24  25
ENDBRANCH  19  24
ENDBRANCH  16  19
ENDBRANCH   1  15
BRANCH   1  28
HETATM   28  C           1     -20.386 -10.458   1.089  0.00  0.00     0.197 C 
HETATM   29  O           1     -19.457 -11.243   0.801  0.00  0.00    -0.646 OA
HETATM   30  O           1     -20.341  -9.797   2.149  0.00  0.00    -0.646 OA
ENDBRANCH   1  28
TORSDOF 12
ENDMDL
