MODEL 1
REMARK VINA RESULT:      -5.5      0.000      0.000
REMARK  8 active torsions:
REMARK  status: ('A' for Active; 'I' for Inactive)
REMARK    1  A    between atoms: N_3  and  C_4 
REMARK       I    between atoms: N_3  and  C_20 
REMARK    2  A    between atoms: C_4  and  C_5 
REMARK    3  A    between atoms: C_4  and  C_11 
REMARK    4  A    between atoms: C_5  and  C_6 
REMARK    5  A    between atoms: C_6  and  Se_15 
REMARK    6  A    between atoms: C_8  and  C_12 
REMARK    7  A    between atoms: N_9  and  C_12 
REMARK    8  A    between atoms: C_12  and  C_20 
ROOT
HETATM    1  H           1     -27.259  -6.979 -18.607  0.00  0.00     0.163 HD
HETATM    2  N           1     -26.384  -6.671 -18.201  0.00  0.00    -0.345 N 
HETATM    3  O           1     -24.159  -6.572 -18.354  0.00  0.00    -0.271 OA
HETATM    4  C           1     -25.202  -6.938 -18.839  0.00  0.00     0.249 C 
ENDROOT
BRANCH   2   5
HETATM    5  C           1     -26.383  -5.948 -16.945  0.00  0.00     0.185 C 
BRANCH   5   6
HETATM    6  C           1     -27.628  -5.074 -16.861  0.00  0.00     0.036 C 
BRANCH   6   7
HETATM    7  C           1     -28.513  -5.334 -18.073  0.00  0.00     0.003 C 
BRANCH   7   8
HETATM    8 Se           1     -30.197  -6.126 -17.490  0.00  0.00     0.000 Se
HETATM    9  C           1     -29.937  -7.795 -18.461  0.00  0.00     0.000 C 
ENDBRANCH   7   8
ENDBRANCH   6   7
ENDBRANCH   5   6
BRANCH   5  10
HETATM   10  C           1     -26.379  -6.930 -15.801  0.00  0.00     0.196 C 
HETATM   11  O           1     -27.457  -7.394 -15.370  0.00  0.00    -0.646 OA
HETATM   12  O           1     -25.298  -7.282 -15.281  0.00  0.00    -0.646 OA
ENDBRANCH   5  10
ENDBRANCH   2   5
BRANCH   4  13
HETATM   13  C           1     -25.204  -7.692 -20.147  0.00  0.00     0.278 C 
BRANCH  13  14
HETATM   14  C           1     -24.448  -6.888 -21.197  0.00  0.00     0.017 C 
HETATM   15  C           1     -24.122  -7.784 -22.385  0.00  0.00     0.012 C 
HETATM   16  C           1     -25.311  -5.723 -21.662  0.00  0.00     0.012 C 
ENDBRANCH  13  14
BRANCH  13  17
HETATM   17  N           1     -26.619  -7.900 -20.600  0.00  0.00    -0.066 N 
HETATM   18  H           1     -26.910  -7.104 -21.212  0.00  0.00     0.275 HD
HETATM   19  H           1     -26.684  -8.794 -21.139  0.00  0.00     0.275 HD
HETATM   20  H           1     -27.249  -7.948 -19.767  0.00  0.00     0.275 HD
ENDBRANCH  13  17
ENDBRANCH   4  13
TORSDOF 8
ENDMDL
MODEL 2
REMARK VINA RESULT:      -5.0     11.989     14.031
REMARK  8 active torsions:
REMARK  status: ('A' for Active; 'I' for Inactive)
REMARK    1  A    between atoms: N_3  and  C_4 
REMARK       I    between atoms: N_3  and  C_20 
REMARK    2  A    between atoms: C_4  and  C_5 
REMARK    3  A    between atoms: C_4  and  C_11 
REMARK    4  A    between atoms: C_5  and  C_6 
REMARK    5  A    between atoms: C_6  and  Se_15 
REMARK    6  A    between atoms: C_8  and  C_12 
REMARK    7  A    between atoms: N_9  and  C_12 
REMARK    8  A    between atoms: C_12  and  C_20 
ROOT
HETATM    1  H           1     -22.142  -7.014  -6.682  0.00  0.00     0.163 HD
HETATM    2  N           1     -21.585  -6.279  -6.266  0.00  0.00    -0.345 N 
HETATM    3  O           1     -20.859  -4.169  -6.366  0.00  0.00    -0.271 OA
HETATM    4  C           1     -21.524  -5.047  -6.862  0.00  0.00     0.249 C 
ENDROOT
BRANCH   2   5
HETATM    5  C           1     -20.852  -6.529  -5.041  0.00  0.00     0.185 C 
BRANCH   5   6
HETATM    6  C           1     -21.833  -6.838  -3.917  0.00  0.00     0.036 C 
BRANCH   6   7
HETATM    7  C           1     -21.442  -6.053  -2.672  0.00  0.00     0.003 C 
BRANCH   7   8
HETATM    8 Se           1     -22.282  -6.857  -1.107  0.00  0.00     0.000 Se
HETATM    9  C           1     -21.456  -8.604  -1.358  0.00  0.00     0.000 C 
ENDBRANCH   7   8
ENDBRANCH   6   7
ENDBRANCH   5   6
BRANCH   5  10
HETATM   10  C           1     -19.927  -7.703  -5.240  0.00  0.00     0.196 C 
HETATM   11  O           1     -19.252  -7.797  -6.287  0.00  0.00    -0.646 OA
HETATM   12  O           1     -19.835  -8.583  -4.357  0.00  0.00    -0.646 OA
ENDBRANCH   5  10
ENDBRANCH   2   5
BRANCH   4  13
HETATM   13  C           1     -22.287  -4.788  -8.138  0.00  0.00     0.278 C 
BRANCH  13  14
HETATM   14  C           1     -21.444  -3.922  -9.066  0.00  0.00     0.017 C 
HETATM   15  C           1     -20.205  -4.697  -9.496  0.00  0.00     0.012 C 
HETATM   16  C           1     -22.262  -3.551 -10.296  0.00  0.00     0.012 C 
ENDBRANCH  13  14
BRANCH  13  17
HETATM   17  N           1     -23.568  -4.076  -7.818  0.00  0.00    -0.066 N 
HETATM   18  H           1     -23.996  -3.716  -8.700  0.00  0.00     0.275 HD
HETATM   19  H           1     -24.229  -4.740  -7.356  0.00  0.00     0.275 HD
HETATM   20  H           1     -23.370  -3.275  -7.175  0.00  0.00     0.275 HD
ENDBRANCH  13  17
ENDBRANCH   4  13
TORSDOF 8
ENDMDL
MODEL 3
REMARK VINA RESULT:      -4.9     14.420     17.097
REMARK  8 active torsions:
REMARK  status: ('A' for Active; 'I' for Inactive)
REMARK    1  A    between atoms: N_3  and  C_4 
REMARK       I    between atoms: N_3  and  C_20 
REMARK    2  A    between atoms: C_4  and  C_5 
REMARK    3  A    between atoms: C_4  and  C_11 
REMARK    4  A    between atoms: C_5  and  C_6 
REMARK    5  A    between atoms: C_6  and  Se_15 
REMARK    6  A    between atoms: C_8  and  C_12 
REMARK    7  A    between atoms: N_9  and  C_12 
REMARK    8  A    between atoms: C_12  and  C_20 
ROOT
HETATM    1  H           1     -20.466  -6.836  -3.195  0.00  0.00     0.163 HD
HETATM    2  N           1     -20.819  -7.778  -3.304  0.00  0.00    -0.345 N 
HETATM    3  O           1     -21.785  -9.557  -2.361  0.00  0.00    -0.271 OA
HETATM    4  C           1     -21.364  -8.433  -2.232  0.00  0.00     0.249 C 
ENDROOT
BRANCH   2   5
HETATM    5  C           1     -20.748  -8.435  -4.594  0.00  0.00     0.185 C 
BRANCH   5   6
HETATM    6  C           1     -21.273  -7.494  -5.671  0.00  0.00     0.036 C 
BRANCH   6   7
HETATM    7  C           1     -21.477  -6.107  -5.077  0.00  0.00     0.003 C 
BRANCH   7   8
HETATM    8 Se           1     -20.391  -4.815  -6.054  0.00  0.00     0.000 Se
HETATM    9  C           1     -21.814  -4.302  -7.283  0.00  0.00     0.000 C 
ENDBRANCH   7   8
ENDBRANCH   6   7
ENDBRANCH   5   6
BRANCH   5  10
HETATM   10  C           1     -19.315  -8.796  -4.895  0.00  0.00     0.196 C 
HETATM   11  O           1     -18.537  -9.099  -3.965  0.00  0.00    -0.646 OA
HETATM   12  O           1     -18.904  -8.793  -6.076  0.00  0.00    -0.646 OA
ENDBRANCH   5  10
ENDBRANCH   2   5
BRANCH   4  13
HETATM   13  C           1     -21.437  -7.749  -0.888  0.00  0.00     0.278 C 
BRANCH  13  14
HETATM   14  C           1     -22.010  -8.714   0.142  0.00  0.00     0.017 C 
HETATM   15  C           1     -21.053  -8.825   1.322  0.00  0.00     0.012 C 
HETATM   16  C           1     -23.357  -8.196   0.628  0.00  0.00     0.012 C 
ENDBRANCH  13  14
BRANCH  13  17
HETATM   17  N           1     -22.323  -6.543  -0.989  0.00  0.00    -0.066 N 
HETATM   18  H           1     -22.886  -6.450  -0.114  0.00  0.00     0.275 HD
HETATM   19  H           1     -21.735  -5.689  -1.116  0.00  0.00     0.275 HD
HETATM   20  H           1     -22.965  -6.650  -1.807  0.00  0.00     0.275 HD
ENDBRANCH  13  17
ENDBRANCH   4  13
TORSDOF 8
ENDMDL
MODEL 4
REMARK VINA RESULT:      -4.9      2.796      5.548
REMARK  8 active torsions:
REMARK  status: ('A' for Active; 'I' for Inactive)
REMARK    1  A    between atoms: N_3  and  C_4 
REMARK       I    between atoms: N_3  and  C_20 
REMARK    2  A    between atoms: C_4  and  C_5 
REMARK    3  A    between atoms: C_4  and  C_11 
REMARK    4  A    between atoms: C_5  and  C_6 
REMARK    5  A    between atoms: C_6  and  Se_15 
REMARK    6  A    between atoms: C_8  and  C_12 
REMARK    7  A    between atoms: N_9  and  C_12 
REMARK    8  A    between atoms: C_12  and  C_20 
ROOT
HETATM    1  H           1     -26.151  -5.065 -17.966  0.00  0.00     0.163 HD
HETATM    2  N           1     -26.573  -5.920 -18.305  0.00  0.00    -0.345 N 
HETATM    3  O           1     -28.433  -7.113 -18.629  0.00  0.00    -0.271 OA
HETATM    4  C           1     -27.929  -6.092 -18.225  0.00  0.00     0.249 C 
ENDROOT
BRANCH   2   5
HETATM    5  C           1     -25.743  -6.963 -18.874  0.00  0.00     0.185 C 
BRANCH   5   6
HETATM    6  C           1     -25.470  -6.650 -20.340  0.00  0.00     0.036 C 
BRANCH   6   7
HETATM    7  C           1     -25.316  -7.950 -21.117  0.00  0.00     0.003 C 
BRANCH   7   8
HETATM    8 Se           1     -23.956  -7.727 -22.496  0.00  0.00     0.000 Se
HETATM    9  C           1     -22.553  -8.631 -21.490  0.00  0.00     0.000 C 
ENDBRANCH   7   8
ENDBRANCH   6   7
ENDBRANCH   5   6
BRANCH   5  10
HETATM   10  C           1     -24.438  -7.032 -18.122  0.00  0.00     0.196 C 
HETATM   11  O           1     -23.378  -6.662 -18.672  0.00  0.00    -0.646 OA
HETATM   12  O           1     -24.414  -7.460 -16.948  0.00  0.00    -0.646 OA
ENDBRANCH   5  10
ENDBRANCH   2   5
BRANCH   4  13
HETATM   13  C           1     -28.794  -5.006 -17.631  0.00  0.00     0.278 C 
BRANCH  13  14
HETATM   14  C           1     -29.822  -5.631 -16.696  0.00  0.00     0.017 C 
HETATM   15  C           1     -29.257  -5.682 -15.283  0.00  0.00     0.012 C 
HETATM   16  C           1     -31.092  -4.791 -16.705  0.00  0.00     0.012 C 
ENDBRANCH  13  14
BRANCH  13  17
HETATM   17  N           1     -29.500  -4.273 -18.732  0.00  0.00    -0.066 N 
HETATM   18  H           1     -30.160  -4.924 -19.217  0.00  0.00     0.275 HD
HETATM   19  H           1     -30.037  -3.472 -18.329  0.00  0.00     0.275 HD
HETATM   20  H           1     -28.798  -3.914 -19.419  0.00  0.00     0.275 HD
ENDBRANCH  13  17
ENDBRANCH   4  13
TORSDOF 8
ENDMDL
MODEL 5
REMARK VINA RESULT:      -4.8      3.321      5.797
REMARK  8 active torsions:
REMARK  status: ('A' for Active; 'I' for Inactive)
REMARK    1  A    between atoms: N_3  and  C_4 
REMARK       I    between atoms: N_3  and  C_20 
REMARK    2  A    between atoms: C_4  and  C_5 
REMARK    3  A    between atoms: C_4  and  C_11 
REMARK    4  A    between atoms: C_5  and  C_6 
REMARK    5  A    between atoms: C_6  and  Se_15 
REMARK    6  A    between atoms: C_8  and  C_12 
REMARK    7  A    between atoms: N_9  and  C_12 
REMARK    8  A    between atoms: C_12  and  C_20 
ROOT
HETATM    1  H           1     -26.328  -7.221 -18.459  0.00  0.00     0.163 HD
HETATM    2  N           1     -26.967  -6.685 -19.033  0.00  0.00    -0.345 N 
HETATM    3  O           1     -28.544  -5.108 -19.141  0.00  0.00    -0.271 OA
HETATM    4  C           1     -27.781  -5.747 -18.457  0.00  0.00     0.249 C 
ENDROOT
BRANCH   2   5
HETATM    5  C           1     -27.020  -6.911 -20.464  0.00  0.00     0.185 C 
BRANCH   5   6
HETATM    6  C           1     -25.613  -6.831 -21.042  0.00  0.00     0.036 C 
BRANCH   6   7
HETATM    7  C           1     -24.621  -7.417 -20.048  0.00  0.00     0.003 C 
BRANCH   7   8
HETATM    8 Se           1     -23.202  -8.342 -21.013  0.00  0.00     0.000 Se
HETATM    9  C           1     -23.785  -7.743 -22.774  0.00  0.00     0.000 C 
ENDBRANCH   7   8
ENDBRANCH   6   7
ENDBRANCH   5   6
BRANCH   5  10
HETATM   10  C           1     -27.600  -8.276 -20.736  0.00  0.00     0.196 C 
HETATM   11  O           1     -27.078  -9.018 -21.596  0.00  0.00    -0.646 OA
HETATM   12  O           1     -28.602  -8.668 -20.100  0.00  0.00    -0.646 OA
ENDBRANCH   5  10
ENDBRANCH   2   5
BRANCH   4  13
HETATM   13  C           1     -27.726  -5.513 -16.966  0.00  0.00     0.278 C 
BRANCH  13  14
HETATM   14  C           1     -28.698  -6.456 -16.268  0.00  0.00     0.017 C 
HETATM   15  C           1     -27.917  -7.482 -15.458  0.00  0.00     0.012 C 
HETATM   16  C           1     -29.600  -5.656 -15.338  0.00  0.00     0.012 C 
ENDBRANCH  13  14
BRANCH  13  17
HETATM   17  N           1     -28.106  -4.093 -16.670  0.00  0.00    -0.066 N 
HETATM   18  H           1     -27.327  -3.457 -16.953  0.00  0.00     0.275 HD
HETATM   19  H           1     -28.969  -3.845 -17.205  0.00  0.00     0.275 HD
HETATM   20  H           1     -28.288  -3.987 -15.646  0.00  0.00     0.275 HD
ENDBRANCH  13  17
ENDBRANCH   4  13
TORSDOF 8
ENDMDL
MODEL 6
REMARK VINA RESULT:      -4.8     12.763     14.907
REMARK  8 active torsions:
REMARK  status: ('A' for Active; 'I' for Inactive)
REMARK    1  A    between atoms: N_3  and  C_4 
REMARK       I    between atoms: N_3  and  C_20 
REMARK    2  A    between atoms: C_4  and  C_5 
REMARK    3  A    between atoms: C_4  and  C_11 
REMARK    4  A    between atoms: C_5  and  C_6 
REMARK    5  A    between atoms: C_6  and  Se_15 
REMARK    6  A    between atoms: C_8  and  C_12 
REMARK    7  A    between atoms: N_9  and  C_12 
REMARK    8  A    between atoms: C_12  and  C_20 
ROOT
HETATM    1  H           1     -19.928  -6.300  -5.018  0.00  0.00     0.163 HD
HETATM    2  N           1     -20.937  -6.370  -5.010  0.00  0.00    -0.345 N 
HETATM    3  O           1     -22.892  -5.632  -5.799  0.00  0.00    -0.271 OA
HETATM    4  C           1     -21.687  -5.549  -5.809  0.00  0.00     0.249 C 
ENDROOT
BRANCH   2   5
HETATM    5  C           1     -21.589  -7.341  -4.153  0.00  0.00     0.185 C 
BRANCH   5   6
HETATM    6  C           1     -20.841  -8.666  -4.226  0.00  0.00     0.036 C 
BRANCH   6   7
HETATM    7  C           1     -19.597  -8.499  -5.088  0.00  0.00     0.003 C 
BRANCH   7   8
HETATM    8 Se           1     -18.353  -9.955  -4.723  0.00  0.00     0.000 Se
HETATM    9  C           1     -18.038  -9.439  -2.870  0.00  0.00     0.000 C 
ENDBRANCH   7   8
ENDBRANCH   6   7
ENDBRANCH   5   6
BRANCH   5  10
HETATM   10  C           1     -21.586  -6.837  -2.732  0.00  0.00     0.196 C 
HETATM   11  O           1     -22.384  -5.941  -2.383  0.00  0.00    -0.646 OA
HETATM   12  O           1     -20.785  -7.317  -1.900  0.00  0.00    -0.646 OA
ENDBRANCH   5  10
ENDBRANCH   2   5
BRANCH   4  13
HETATM   13  C           1     -21.007  -4.538  -6.701  0.00  0.00     0.278 C 
BRANCH  13  14
HETATM   14  C           1     -21.387  -4.805  -8.152  0.00  0.00     0.017 C 
HETATM   15  C           1     -22.368  -3.741  -8.624  0.00  0.00     0.012 C 
HETATM   16  C           1     -20.135  -4.763  -9.019  0.00  0.00     0.012 C 
ENDBRANCH  13  14
BRANCH  13  17
HETATM   17  N           1     -19.521  -4.654  -6.543  0.00  0.00    -0.066 N 
HETATM   18  H           1     -19.233  -4.235  -5.630  0.00  0.00     0.275 HD
HETATM   19  H           1     -19.245  -5.662  -6.565  0.00  0.00     0.275 HD
HETATM   20  H           1     -19.046  -4.145  -7.324  0.00  0.00     0.275 HD
ENDBRANCH  13  17
ENDBRANCH   4  13
TORSDOF 8
ENDMDL
MODEL 7
REMARK VINA RESULT:      -4.6     12.717     14.795
REMARK  8 active torsions:
REMARK  status: ('A' for Active; 'I' for Inactive)
REMARK    1  A    between atoms: N_3  and  C_4 
REMARK       I    between atoms: N_3  and  C_20 
REMARK    2  A    between atoms: C_4  and  C_5 
REMARK    3  A    between atoms: C_4  and  C_11 
REMARK    4  A    between atoms: C_5  and  C_6 
REMARK    5  A    between atoms: C_6  and  Se_15 
REMARK    6  A    between atoms: C_8  and  C_12 
REMARK    7  A    between atoms: N_9  and  C_12 
REMARK    8  A    between atoms: C_12  and  C_20 
ROOT
HETATM    1  H           1     -20.667  -7.763  -6.817  0.00  0.00     0.163 HD
HETATM    2  N           1     -20.617  -7.159  -6.006  0.00  0.00    -0.345 N 
HETATM    3  O           1     -20.878  -5.111  -5.154  0.00  0.00    -0.271 OA
HETATM    4  C           1     -20.938  -5.832  -6.121  0.00  0.00     0.249 C 
ENDROOT
BRANCH   2   5
HETATM    5  C           1     -20.205  -7.697  -4.725  0.00  0.00     0.185 C 
BRANCH   5   6
HETATM    6  C           1     -21.415  -8.289  -4.012  0.00  0.00     0.036 C 
BRANCH   6   7
HETATM    7  C           1     -21.560  -7.644  -2.640  0.00  0.00     0.003 C 
BRANCH   7   8
HETATM    8 Se           1     -21.823  -9.031  -1.295  0.00  0.00     0.000 Se
HETATM    9  C           1     -22.628  -7.835   0.017  0.00  0.00     0.000 C 
ENDBRANCH   7   8
ENDBRANCH   6   7
ENDBRANCH   5   6
BRANCH   5  10
HETATM   10  C           1     -19.171  -8.773  -4.941  0.00  0.00     0.196 C 
HETATM   11  O           1     -18.481  -9.179  -3.981  0.00  0.00    -0.646 OA
HETATM   12  O           1     -19.004  -9.260  -6.080  0.00  0.00    -0.646 OA
ENDBRANCH   5  10
ENDBRANCH   2   5
BRANCH   4  13
HETATM   13  C           1     -21.366  -5.272  -7.455  0.00  0.00     0.278 C 
BRANCH  13  14
HETATM   14  C           1     -20.150  -5.143  -8.365  0.00  0.00     0.017 C 
HETATM   15  C           1     -20.562  -4.480  -9.673  0.00  0.00     0.012 C 
HETATM   16  C           1     -19.091  -4.292  -7.676  0.00  0.00     0.012 C 
ENDBRANCH  13  14
BRANCH  13  17
HETATM   17  N           1     -21.985  -3.921  -7.254  0.00  0.00    -0.066 N 
HETATM   18  H           1     -21.771  -3.313  -8.077  0.00  0.00     0.275 HD
HETATM   19  H           1     -23.020  -4.023  -7.157  0.00  0.00     0.275 HD
HETATM   20  H           1     -21.594  -3.484  -6.388  0.00  0.00     0.275 HD
ENDBRANCH  13  17
ENDBRANCH   4  13
TORSDOF 8
ENDMDL
MODEL 8
REMARK VINA RESULT:      -4.6     16.283     18.787
REMARK  8 active torsions:
REMARK  status: ('A' for Active; 'I' for Inactive)
REMARK    1  A    between atoms: N_3  and  C_4 
REMARK       I    between atoms: N_3  and  C_20 
REMARK    2  A    between atoms: C_4  and  C_5 
REMARK    3  A    between atoms: C_4  and  C_11 
REMARK    4  A    between atoms: C_5  and  C_6 
REMARK    5  A    between atoms: C_6  and  Se_15 
REMARK    6  A    between atoms: C_8  and  C_12 
REMARK    7  A    between atoms: N_9  and  C_12 
REMARK    8  A    between atoms: C_12  and  C_20 
ROOT
HETATM    1  H           1     -22.039  -9.777  -1.909  0.00  0.00     0.163 HD
HETATM    2  N           1     -21.584  -9.475  -1.058  0.00  0.00    -0.345 N 
HETATM    3  O           1     -20.811 -10.012   0.968  0.00  0.00    -0.271 OA
HETATM    4  C           1     -21.354 -10.373  -0.050  0.00  0.00     0.249 C 
ENDROOT
BRANCH   2   5
HETATM    5  C           1     -21.176  -8.092  -0.904  0.00  0.00     0.185 C 
BRANCH   5   6
HETATM    6  C           1     -20.407  -7.650  -2.143  0.00  0.00     0.036 C 
BRANCH   6   7
HETATM    7  C           1     -20.562  -8.697  -3.237  0.00  0.00     0.003 C 
BRANCH   7   8
HETATM    8 Se           1     -20.362  -7.849  -4.981  0.00  0.00     0.000 Se
HETATM    9  C           1     -22.060  -6.897  -4.896  0.00  0.00     0.000 C 
ENDBRANCH   7   8
ENDBRANCH   6   7
ENDBRANCH   5   6
BRANCH   5  10
HETATM   10  C           1     -22.397  -7.225  -0.733  0.00  0.00     0.196 C 
HETATM   11  O           1     -23.266  -7.526   0.114  0.00  0.00    -0.646 OA
HETATM   12  O           1     -22.543  -6.203  -1.438  0.00  0.00    -0.646 OA
ENDBRANCH   5  10
ENDBRANCH   2   5
BRANCH   4  13
HETATM   13  C           1     -21.779 -11.812  -0.210  0.00  0.00     0.278 C 
BRANCH  13  14
HETATM   14  C           1     -23.206 -11.979   0.297  0.00  0.00     0.017 C 
HETATM   15  C           1     -24.151 -12.135  -0.888  0.00  0.00     0.012 C 
HETATM   16  C           1     -23.290 -13.217   1.180  0.00  0.00     0.012 C 
ENDBRANCH  13  14
BRANCH  13  17
HETATM   17  N           1     -20.862 -12.694   0.583  0.00  0.00    -0.066 N 
HETATM   18  H           1     -21.174 -12.716   1.580  0.00  0.00     0.275 HD
HETATM   19  H           1     -20.885 -13.663   0.191  0.00  0.00     0.275 HD
HETATM   20  H           1     -19.887 -12.320   0.532  0.00  0.00     0.275 HD
ENDBRANCH  13  17
ENDBRANCH   4  13
TORSDOF 8
ENDMDL
MODEL 9
REMARK VINA RESULT:      -4.6     15.436     17.842
REMARK  8 active torsions:
REMARK  status: ('A' for Active; 'I' for Inactive)
REMARK    1  A    between atoms: N_3  and  C_4 
REMARK       I    between atoms: N_3  and  C_20 
REMARK    2  A    between atoms: C_4  and  C_5 
REMARK    3  A    between atoms: C_4  and  C_11 
REMARK    4  A    between atoms: C_5  and  C_6 
REMARK    5  A    between atoms: C_6  and  Se_15 
REMARK    6  A    between atoms: C_8  and  C_12 
REMARK    7  A    between atoms: N_9  and  C_12 
REMARK    8  A    between atoms: C_12  and  C_20 
ROOT
HETATM    1  H           1     -22.034  -9.418  -3.261  0.00  0.00     0.163 HD
HETATM    2  N           1     -21.417  -8.766  -2.795  0.00  0.00    -0.345 N 
HETATM    3  O           1     -20.341  -8.183  -0.927  0.00  0.00    -0.271 OA
HETATM    4  C           1     -21.077  -8.962  -1.483  0.00  0.00     0.249 C 
ENDROOT
BRANCH   2   5
HETATM    5  C           1     -20.893  -7.622  -3.516  0.00  0.00     0.185 C 
BRANCH   5   6
HETATM    6  C           1     -20.477  -8.053  -4.917  0.00  0.00     0.036 C 
BRANCH   6   7
HETATM    7  C           1     -20.084  -9.524  -4.899  0.00  0.00     0.003 C 
BRANCH   7   8
HETATM    8 Se           1     -18.151  -9.683  -5.097  0.00  0.00     0.000 Se
HETATM    9  C           1     -17.791  -9.683  -3.181  0.00  0.00     0.000 C 
ENDBRANCH   7   8
ENDBRANCH   6   7
ENDBRANCH   5   6
BRANCH   5  10
HETATM   10  C           1     -21.957  -6.558  -3.611  0.00  0.00     0.196 C 
HETATM   11  O           1     -22.487  -6.300  -4.713  0.00  0.00    -0.646 OA
HETATM   12  O           1     -22.310  -5.933  -2.588  0.00  0.00    -0.646 OA
ENDBRANCH   5  10
ENDBRANCH   2   5
BRANCH   4  13
HETATM   13  C           1     -21.624 -10.153  -0.733  0.00  0.00     0.278 C 
BRANCH  13  14
HETATM   14  C           1     -23.134 -10.013  -0.591  0.00  0.00     0.017 C 
HETATM   15  C           1     -23.712 -11.303  -0.024  0.00  0.00     0.012 C 
HETATM   16  C           1     -23.450  -8.858   0.351  0.00  0.00     0.012 C 
ENDBRANCH  13  14
BRANCH  13  17
HETATM   17  N           1     -20.997 -10.214   0.628  0.00  0.00    -0.066 N 
HETATM   18  H           1     -21.721 -10.482   1.333  0.00  0.00     0.275 HD
HETATM   19  H           1     -20.232 -10.926   0.628  0.00  0.00     0.275 HD
HETATM   20  H           1     -20.603  -9.278   0.874  0.00  0.00     0.275 HD
ENDBRANCH  13  17
ENDBRANCH   4  13
TORSDOF 8
ENDMDL
