MODEL 1
REMARK VINA RESULT:      -7.2      0.000      0.000
REMARK  8 active torsions:
REMARK  status: ('A' for Active; 'I' for Inactive)
REMARK    1  A    between atoms: C_4  and  C_6 
REMARK    2  A    between atoms: C_6  and  C_7 
REMARK    3  A    between atoms: C_6  and  N_26 
REMARK    4  A    between atoms: C_7  and  C_8 
REMARK    5  A    between atoms: Se_11  and  C_23 
REMARK    6  A    between atoms: N_12  and  C_24 
REMARK    7  A    between atoms: C_23  and  C_24 
REMARK    8  A    between atoms: C_24  and  C_25 
REMARK       I    between atoms: C_25  and  N_26 
ROOT
HETATM    1  C           1     -21.874  -6.625  -5.597  0.00  0.00     0.190 C 
ENDROOT
BRANCH   1   2
HETATM    2  C           1     -20.871  -7.747  -5.496  0.00  0.00     0.197 C 
HETATM    3  O           1     -21.256  -8.936  -5.539  0.00  0.00    -0.646 OA
HETATM    4  O           1     -19.654  -7.489  -5.369  0.00  0.00    -0.646 OA
ENDBRANCH   1   2
BRANCH   1   5
HETATM    5  C           1     -21.187  -5.375  -6.133  0.00  0.00     0.077 C 
BRANCH   5   6
HETATM    6  C           1     -22.001  -4.797  -7.248  0.00  0.00    -0.028 A 
HETATM    7  C           1     -21.547  -4.538  -8.571  0.00  0.00    -0.002 A 
HETATM    8  C           1     -22.624  -4.003  -9.278  0.00  0.00     0.042 A 
HETATM    9  C           1     -20.316  -4.707  -9.235  0.00  0.00     0.014 A 
HETATM   10  N           1     -23.689  -3.944  -8.408  0.00  0.00    -0.365 N 
HETATM   11  C           1     -22.532  -3.628 -10.623  0.00  0.00     0.030 A 
HETATM   12  C           1     -23.324  -4.422  -7.178  0.00  0.00     0.096 A 
HETATM   13  H           1     -24.645  -3.585  -8.653  0.00  0.00     0.165 HD
HETATM   14  C           1     -21.302  -3.805 -11.262  0.00  0.00     0.002 A 
HETATM   15  C           1     -20.208  -4.337 -10.580  0.00  0.00     0.001 A 
ENDBRANCH   5   6
ENDBRANCH   1   5
BRANCH   1  16
HETATM   16  N           1     -22.423  -6.348  -4.284  0.00  0.00    -0.344 N 
HETATM   17  H           1     -23.387  -6.052  -4.191  0.00  0.00     0.163 HD
HETATM   18  C           1     -21.639  -6.488  -3.171  0.00  0.00     0.249 C 
HETATM   19  O           1     -20.994  -5.551  -2.765  0.00  0.00    -0.271 OA
BRANCH  18  20
HETATM   20  C           1     -21.580  -7.813  -2.451  0.00  0.00     0.274 C 
BRANCH  20  21
HETATM   21  N           1     -20.164  -8.306  -2.427  0.00  0.00    -0.067 N 
HETATM   22  H           1     -20.155  -9.333  -2.234  0.00  0.00     0.275 HD
HETATM   23  H           1     -19.716  -8.123  -3.354  0.00  0.00     0.275 HD
HETATM   24  H           1     -19.634  -7.806  -1.679  0.00  0.00     0.275 HD
ENDBRANCH  20  21
BRANCH  20  25
HETATM   25  C           1     -22.081  -7.639  -1.023  0.00  0.00     0.045 C 
BRANCH  25  26
HETATM   26 Se           1     -22.615  -9.371  -0.307  0.00  0.00     0.000 Se
HETATM   27  H           1     -23.601  -8.809   0.630  0.00  0.00     0.000 HD
ENDBRANCH  25  26
ENDBRANCH  20  25
ENDBRANCH  18  20
ENDBRANCH   1  16
TORSDOF 8
ENDMDL
MODEL 2
REMARK VINA RESULT:      -6.9      3.312      7.047
REMARK  8 active torsions:
REMARK  status: ('A' for Active; 'I' for Inactive)
REMARK    1  A    between atoms: C_4  and  C_6 
REMARK    2  A    between atoms: C_6  and  C_7 
REMARK    3  A    between atoms: C_6  and  N_26 
REMARK    4  A    between atoms: C_7  and  C_8 
REMARK    5  A    between atoms: Se_11  and  C_23 
REMARK    6  A    between atoms: N_12  and  C_24 
REMARK    7  A    between atoms: C_23  and  C_24 
REMARK    8  A    between atoms: C_24  and  C_25 
REMARK       I    between atoms: C_25  and  N_26 
ROOT
HETATM    1  C           1     -20.668  -5.182  -6.185  0.00  0.00     0.190 C 
ENDROOT
BRANCH   1   2
HETATM    2  C           1     -19.550  -5.320  -7.188  0.00  0.00     0.197 C 
HETATM    3  O           1     -18.641  -4.462  -7.234  0.00  0.00    -0.646 OA
HETATM    4  O           1     -19.532  -6.292  -7.975  0.00  0.00    -0.646 OA
ENDBRANCH   1   2
BRANCH   1   5
HETATM    5  C           1     -21.424  -6.501  -6.081  0.00  0.00     0.077 C 
BRANCH   5   6
HETATM    6  C           1     -20.865  -7.309  -4.952  0.00  0.00    -0.028 A 
HETATM    7  C           1     -21.236  -7.205  -3.583  0.00  0.00    -0.002 A 
HETATM    8  C           1     -20.473  -8.136  -2.878  0.00  0.00     0.042 A 
HETATM    9  C           1     -22.151  -6.402  -2.874  0.00  0.00     0.014 A 
HETATM   10  N           1     -19.671  -8.778  -3.794  0.00  0.00    -0.365 N 
HETATM   11  C           1     -20.581  -8.307  -1.493  0.00  0.00     0.030 A 
HETATM   12  C           1     -19.900  -8.286  -5.052  0.00  0.00     0.096 A 
HETATM   13  H           1     -18.983  -9.536  -3.563  0.00  0.00     0.165 HD
HETATM   14  C           1     -21.496  -7.500  -0.811  0.00  0.00     0.002 A 
HETATM   15  C           1     -22.271  -6.561  -1.488  0.00  0.00     0.001 A 
ENDBRANCH   5   6
ENDBRANCH   1   5
BRANCH   1  16
HETATM   16  N           1     -21.577  -4.138  -6.615  0.00  0.00    -0.344 N 
HETATM   17  H           1     -21.336  -3.166  -6.469  0.00  0.00     0.163 HD
HETATM   18  C           1     -22.761  -4.466  -7.218  0.00  0.00     0.249 C 
HETATM   19  O           1     -23.753  -4.635  -6.550  0.00  0.00    -0.271 OA
BRANCH  18  20
HETATM   20  C           1     -22.827  -4.619  -8.718  0.00  0.00     0.274 C 
BRANCH  20  21
HETATM   21  N           1     -24.204  -4.268  -9.196  0.00  0.00    -0.067 N 
HETATM   22  H           1     -24.598  -5.068  -9.742  0.00  0.00     0.275 HD
HETATM   23  H           1     -24.819  -4.073  -8.373  0.00  0.00     0.275 HD
HETATM   24  H           1     -24.156  -3.421  -9.806  0.00  0.00     0.275 HD
ENDBRANCH  20  21
BRANCH  20  25
HETATM   25  C           1     -21.812  -3.687  -9.369  0.00  0.00     0.045 C 
BRANCH  25  26
HETATM   26 Se           1     -21.662  -4.113 -11.265  0.00  0.00     0.000 Se
HETATM   27  H           1     -22.915  -4.882 -11.310  0.00  0.00     0.000 HD
ENDBRANCH  25  26
ENDBRANCH  20  25
ENDBRANCH  18  20
ENDBRANCH   1  16
TORSDOF 8
ENDMDL
MODEL 3
REMARK VINA RESULT:      -6.8      3.323      7.322
REMARK  8 active torsions:
REMARK  status: ('A' for Active; 'I' for Inactive)
REMARK    1  A    between atoms: C_4  and  C_6 
REMARK    2  A    between atoms: C_6  and  C_7 
REMARK    3  A    between atoms: C_6  and  N_26 
REMARK    4  A    between atoms: C_7  and  C_8 
REMARK    5  A    between atoms: Se_11  and  C_23 
REMARK    6  A    between atoms: N_12  and  C_24 
REMARK    7  A    between atoms: C_23  and  C_24 
REMARK    8  A    between atoms: C_24  and  C_25 
REMARK       I    between atoms: C_25  and  N_26 
ROOT
HETATM    1  C           1     -20.492  -7.645  -4.871  0.00  0.00     0.190 C 
ENDROOT
BRANCH   1   2
HETATM    2  C           1     -19.363  -8.642  -4.950  0.00  0.00     0.197 C 
HETATM    3  O           1     -19.081  -9.184  -6.041  0.00  0.00    -0.646 OA
HETATM    4  O           1     -18.708  -8.929  -3.923  0.00  0.00    -0.646 OA
ENDBRANCH   1   2
BRANCH   1   5
HETATM    5  C           1     -21.692  -8.289  -4.188  0.00  0.00     0.077 C 
BRANCH   5   6
HETATM    6  C           1     -21.825  -7.748  -2.799  0.00  0.00    -0.028 A 
HETATM    7  C           1     -21.574  -8.461  -1.594  0.00  0.00    -0.002 A 
HETATM    8  C           1     -21.820  -7.583  -0.538  0.00  0.00     0.042 A 
HETATM    9  C           1     -21.159  -9.775  -1.302  0.00  0.00     0.014 A 
HETATM   10  N           1     -22.206  -6.383  -1.091  0.00  0.00    -0.365 N 
HETATM   11  C           1     -21.671  -7.955   0.803  0.00  0.00     0.030 A 
HETATM   12  C           1     -22.213  -6.472  -2.458  0.00  0.00     0.096 A 
HETATM   13  H           1     -22.459  -5.524  -0.544  0.00  0.00     0.165 HD
HETATM   14  C           1     -21.258  -9.264   1.070  0.00  0.00     0.002 A 
HETATM   15  C           1     -21.004 -10.163   0.035  0.00  0.00     0.001 A 
ENDBRANCH   5   6
ENDBRANCH   1   5
BRANCH   1  16
HETATM   16  N           1     -20.864  -7.229  -6.209  0.00  0.00    -0.344 N 
HETATM   17  H           1     -21.521  -7.781  -6.746  0.00  0.00     0.163 HD
HETATM   18  C           1     -20.326  -6.091  -6.747  0.00  0.00     0.249 C 
HETATM   19  O           1     -19.297  -6.148  -7.377  0.00  0.00    -0.271 OA
BRANCH  18  20
HETATM   20  C           1     -21.017  -4.764  -6.551  0.00  0.00     0.274 C 
BRANCH  20  21
HETATM   21  N           1     -20.434  -3.753  -7.491  0.00  0.00    -0.067 N 
HETATM   22  H           1     -19.405  -3.672  -7.322  0.00  0.00     0.275 HD
HETATM   23  H           1     -20.601  -4.057  -8.477  0.00  0.00     0.275 HD
HETATM   24  H           1     -20.887  -2.825  -7.330  0.00  0.00     0.275 HD
ENDBRANCH  20  21
BRANCH  20  25
HETATM   25  C           1     -22.506  -4.920  -6.833  0.00  0.00     0.045 C 
BRANCH  25  26
HETATM   26 Se           1     -22.920  -4.157  -8.578  0.00  0.00     0.000 Se
HETATM   27  H           1     -24.377  -4.186  -8.375  0.00  0.00     0.000 HD
ENDBRANCH  25  26
ENDBRANCH  20  25
ENDBRANCH  18  20
ENDBRANCH   1  16
TORSDOF 8
ENDMDL
MODEL 4
REMARK VINA RESULT:      -6.7      3.202      7.519
REMARK  8 active torsions:
REMARK  status: ('A' for Active; 'I' for Inactive)
REMARK    1  A    between atoms: C_4  and  C_6 
REMARK    2  A    between atoms: C_6  and  C_7 
REMARK    3  A    between atoms: C_6  and  N_26 
REMARK    4  A    between atoms: C_7  and  C_8 
REMARK    5  A    between atoms: Se_11  and  C_23 
REMARK    6  A    between atoms: N_12  and  C_24 
REMARK    7  A    between atoms: C_23  and  C_24 
REMARK    8  A    between atoms: C_24  and  C_25 
REMARK       I    between atoms: C_25  and  N_26 
ROOT
HETATM    1  C           1     -21.172  -7.400  -5.514  0.00  0.00     0.190 C 
ENDROOT
BRANCH   1   2
HETATM    2  C           1     -21.949  -6.327  -4.792  0.00  0.00     0.197 C 
HETATM    3  O           1     -21.413  -5.686  -3.861  0.00  0.00    -0.646 OA
HETATM    4  O           1     -23.129  -6.079  -5.123  0.00  0.00    -0.646 OA
ENDBRANCH   1   2
BRANCH   1   5
HETATM    5  C           1     -20.292  -8.148  -4.520  0.00  0.00     0.077 C 
BRANCH   5   6
HETATM    6  C           1     -21.138  -9.074  -3.703  0.00  0.00    -0.028 A 
HETATM    7  C           1     -21.475  -8.910  -2.331  0.00  0.00    -0.002 A 
HETATM    8  C           1     -22.275  -9.995  -1.972  0.00  0.00     0.042 A 
HETATM    9  C           1     -21.172  -7.939  -1.357  0.00  0.00     0.014 A 
HETATM   10  N           1     -22.414 -10.783  -3.092  0.00  0.00    -0.365 N 
HETATM   11  C           1     -22.791 -10.159  -0.682  0.00  0.00     0.030 A 
HETATM   12  C           1     -21.731 -10.235  -4.145  0.00  0.00     0.096 A 
HETATM   13  H           1     -22.965 -11.676  -3.134  0.00  0.00     0.165 HD
HETATM   14  C           1     -22.478  -9.182   0.269  0.00  0.00     0.002 A 
HETATM   15  C           1     -21.681  -8.088  -0.061  0.00  0.00     0.001 A 
ENDBRANCH   5   6
ENDBRANCH   1   5
BRANCH   1  16
HETATM   16  N           1     -20.339  -6.791  -6.533  0.00  0.00    -0.344 N 
HETATM   17  H           1     -19.626  -7.339  -6.998  0.00  0.00     0.163 HD
HETATM   18  C           1     -20.516  -5.475  -6.865  0.00  0.00     0.249 C 
HETATM   19  O           1     -19.901  -4.615  -6.278  0.00  0.00    -0.271 OA
BRANCH  18  20
HETATM   20  C           1     -21.479  -5.097  -7.963  0.00  0.00     0.274 C 
BRANCH  20  21
HETATM   21  N           1     -22.454  -4.082  -7.445  0.00  0.00    -0.067 N 
HETATM   22  H           1     -22.048  -3.124  -7.546  0.00  0.00     0.275 HD
HETATM   23  H           1     -23.343  -4.142  -7.992  0.00  0.00     0.275 HD
HETATM   24  H           1     -22.651  -4.271  -6.436  0.00  0.00     0.275 HD
ENDBRANCH  20  21
BRANCH  20  25
HETATM   25  C           1     -20.707  -4.507  -9.135  0.00  0.00     0.045 C 
BRANCH  25  26
HETATM   26 Se           1     -21.949  -4.043 -10.564  0.00  0.00     0.000 Se
HETATM   27  H           1     -21.718  -2.594 -10.453  0.00  0.00     0.000 HD
ENDBRANCH  25  26
ENDBRANCH  20  25
ENDBRANCH  18  20
ENDBRANCH   1  16
TORSDOF 8
ENDMDL
MODEL 5
REMARK VINA RESULT:      -6.7      2.687      3.848
REMARK  8 active torsions:
REMARK  status: ('A' for Active; 'I' for Inactive)
REMARK    1  A    between atoms: C_4  and  C_6 
REMARK    2  A    between atoms: C_6  and  C_7 
REMARK    3  A    between atoms: C_6  and  N_26 
REMARK    4  A    between atoms: C_7  and  C_8 
REMARK    5  A    between atoms: Se_11  and  C_23 
REMARK    6  A    between atoms: N_12  and  C_24 
REMARK    7  A    between atoms: C_23  and  C_24 
REMARK    8  A    between atoms: C_24  and  C_25 
REMARK       I    between atoms: C_25  and  N_26 
ROOT
HETATM    1  C           1     -21.464  -7.337  -3.857  0.00  0.00     0.190 C 
ENDROOT
BRANCH   1   2
HETATM    2  C           1     -21.602  -6.834  -2.441  0.00  0.00     0.197 C 
HETATM    3  O           1     -22.375  -5.885  -2.186  0.00  0.00    -0.646 OA
HETATM    4  O           1     -20.941  -7.365  -1.522  0.00  0.00    -0.646 OA
ENDBRANCH   1   2
BRANCH   1   5
HETATM    5  C           1     -22.183  -6.385  -4.806  0.00  0.00     0.077 C 
BRANCH   5   6
HETATM    6  C           1     -21.307  -6.101  -5.986  0.00  0.00    -0.028 A 
HETATM    7  C           1     -21.644  -5.290  -7.105  0.00  0.00    -0.002 A 
HETATM    8  C           1     -20.545  -5.297  -7.964  0.00  0.00     0.042 A 
HETATM    9  C           1     -22.785  -4.548  -7.468  0.00  0.00     0.014 A 
HETATM   10  N           1     -19.580  -6.087  -7.380  0.00  0.00    -0.365 N 
HETATM   11  C           1     -20.529  -4.596  -9.175  0.00  0.00     0.030 A 
HETATM   12  C           1     -20.030  -6.578  -6.183  0.00  0.00     0.096 A 
HETATM   13  H           1     -18.635  -6.284  -7.792  0.00  0.00     0.165 HD
HETATM   14  C           1     -21.672  -3.866  -9.515  0.00  0.00     0.002 A 
HETATM   15  C           1     -22.784  -3.840  -8.676  0.00  0.00     0.001 A 
ENDBRANCH   5   6
ENDBRANCH   1   5
BRANCH   1  16
HETATM   16  N           1     -22.053  -8.657  -3.960  0.00  0.00    -0.344 N 
HETATM   17  H           1     -23.056  -8.771  -3.890  0.00  0.00     0.163 HD
HETATM   18  C           1     -21.252  -9.751  -4.152  0.00  0.00     0.249 C 
HETATM   19  O           1     -20.812 -10.352  -3.201  0.00  0.00    -0.271 OA
BRANCH  18  20
HETATM   20  C           1     -20.917 -10.204  -5.552  0.00  0.00     0.274 C 
BRANCH  20  21
HETATM   21  N           1     -19.434 -10.133  -5.759  0.00  0.00    -0.067 N 
HETATM   22  H           1     -19.145  -9.134  -5.873  0.00  0.00     0.275 HD
HETATM   23  H           1     -18.947 -10.543  -4.930  0.00  0.00     0.275 HD
HETATM   24  H           1     -19.176 -10.670  -6.617  0.00  0.00     0.275 HD
ENDBRANCH  20  21
BRANCH  20  25
HETATM   25  C           1     -21.388 -11.639  -5.747  0.00  0.00     0.045 C 
BRANCH  25  26
HETATM   26 Se           1     -20.241 -12.528  -7.047  0.00  0.00     0.000 Se
HETATM   27  H           1     -21.242 -12.498  -8.126  0.00  0.00     0.000 HD
ENDBRANCH  25  26
ENDBRANCH  20  25
ENDBRANCH  18  20
ENDBRANCH   1  16
TORSDOF 8
ENDMDL
MODEL 6
REMARK VINA RESULT:      -6.7     11.558     14.312
REMARK  8 active torsions:
REMARK  status: ('A' for Active; 'I' for Inactive)
REMARK    1  A    between atoms: C_4  and  C_6 
REMARK    2  A    between atoms: C_6  and  C_7 
REMARK    3  A    between atoms: C_6  and  N_26 
REMARK    4  A    between atoms: C_7  and  C_8 
REMARK    5  A    between atoms: Se_11  and  C_23 
REMARK    6  A    between atoms: N_12  and  C_24 
REMARK    7  A    between atoms: C_23  and  C_24 
REMARK    8  A    between atoms: C_24  and  C_25 
REMARK       I    between atoms: C_25  and  N_26 
ROOT
HETATM    1  C           1     -26.266  -7.089 -19.720  0.00  0.00     0.190 C 
ENDROOT
BRANCH   1   2
HETATM    2  C           1     -25.533  -7.409 -21.001  0.00  0.00     0.197 C 
HETATM    3  O           1     -25.597  -8.558 -21.488  0.00  0.00    -0.646 OA
HETATM    4  O           1     -24.860  -6.524 -21.574  0.00  0.00    -0.646 OA
ENDBRANCH   1   2
BRANCH   1   5
HETATM    5  C           1     -27.479  -6.223 -20.032  0.00  0.00     0.077 C 
BRANCH   5   6
HETATM    6  C           1     -28.618  -6.621 -19.146  0.00  0.00    -0.028 A 
HETATM    7  C           1     -29.458  -5.738 -18.413  0.00  0.00    -0.002 A 
HETATM    8  C           1     -30.381  -6.525 -17.725  0.00  0.00     0.042 A 
HETATM    9  C           1     -29.520  -4.338 -18.269  0.00  0.00     0.014 A 
HETATM   10  N           1     -30.104  -7.838 -18.035  0.00  0.00    -0.365 N 
HETATM   11  C           1     -31.369  -5.981 -16.896  0.00  0.00     0.030 A 
HETATM   12  C           1     -29.039  -7.907 -18.894  0.00  0.00     0.096 A 
HETATM   13  H           1     -30.633  -8.666 -17.667  0.00  0.00     0.165 HD
HETATM   14  C           1     -31.412  -4.589 -16.768  0.00  0.00     0.002 A 
HETATM   15  C           1     -30.502  -3.777 -17.444  0.00  0.00     0.001 A 
ENDBRANCH   5   6
ENDBRANCH   1   5
BRANCH   1  16
HETATM   16  N           1     -25.380  -6.374 -18.822  0.00  0.00    -0.344 N 
HETATM   17  H           1     -25.516  -5.385 -18.660  0.00  0.00     0.163 HD
HETATM   18  C           1     -24.360  -7.037 -18.195  0.00  0.00     0.249 C 
HETATM   19  O           1     -23.274  -7.111 -18.720  0.00  0.00    -0.271 OA
BRANCH  18  20
HETATM   20  C           1     -24.592  -7.678 -16.849  0.00  0.00     0.274 C 
BRANCH  20  21
HETATM   21  N           1     -23.290  -8.187 -16.307  0.00  0.00    -0.067 N 
HETATM   22  H           1     -23.393  -8.394 -15.287  0.00  0.00     0.275 HD
HETATM   23  H           1     -23.020  -9.061 -16.813  0.00  0.00     0.275 HD
HETATM   24  H           1     -22.549  -7.462 -16.442  0.00  0.00     0.275 HD
ENDBRANCH  20  21
BRANCH  20  25
HETATM   25  C           1     -25.173  -6.647 -15.889  0.00  0.00     0.045 C 
BRANCH  25  26
HETATM   26 Se           1     -27.086  -6.957 -15.684  0.00  0.00     0.000 Se
HETATM   27  H           1     -27.229  -6.042 -14.540  0.00  0.00     0.000 HD
ENDBRANCH  25  26
ENDBRANCH  20  25
ENDBRANCH  18  20
ENDBRANCH   1  16
TORSDOF 8
ENDMDL
MODEL 7
REMARK VINA RESULT:      -6.5     12.245     14.181
REMARK  8 active torsions:
REMARK  status: ('A' for Active; 'I' for Inactive)
REMARK    1  A    between atoms: C_4  and  C_6 
REMARK    2  A    between atoms: C_6  and  C_7 
REMARK    3  A    between atoms: C_6  and  N_26 
REMARK    4  A    between atoms: C_7  and  C_8 
REMARK    5  A    between atoms: Se_11  and  C_23 
REMARK    6  A    between atoms: N_12  and  C_24 
REMARK    7  A    between atoms: C_23  and  C_24 
REMARK    8  A    between atoms: C_24  and  C_25 
REMARK       I    between atoms: C_25  and  N_26 
ROOT
HETATM    1  C           1     -28.085  -6.798 -16.942  0.00  0.00     0.190 C 
ENDROOT
BRANCH   1   2
HETATM    2  C           1     -28.369  -6.862 -15.461  0.00  0.00     0.197 C 
HETATM    3  O           1     -29.001  -5.937 -14.905  0.00  0.00    -0.646 OA
HETATM    4  O           1     -27.973  -7.840 -14.790  0.00  0.00    -0.646 OA
ENDBRANCH   1   2
BRANCH   1   5
HETATM    5  C           1     -27.015  -5.746 -17.209  0.00  0.00     0.077 C 
BRANCH   5   6
HETATM    6  C           1     -25.774  -6.413 -17.713  0.00  0.00    -0.028 A 
HETATM    7  C           1     -25.518  -6.801 -19.057  0.00  0.00    -0.002 A 
HETATM    8  C           1     -24.250  -7.384 -19.082  0.00  0.00     0.042 A 
HETATM    9  C           1     -26.247  -6.712 -20.259  0.00  0.00     0.014 A 
HETATM   10  N           1     -23.762  -7.347 -17.796  0.00  0.00    -0.365 N 
HETATM   11  C           1     -23.672  -7.884 -20.255  0.00  0.00     0.030 A 
HETATM   12  C           1     -24.676  -6.762 -16.959  0.00  0.00     0.096 A 
HETATM   13  H           1     -22.825  -7.713 -17.498  0.00  0.00     0.165 HD
HETATM   14  C           1     -24.414  -7.784 -21.435  0.00  0.00     0.002 A 
HETATM   15  C           1     -25.683  -7.207 -21.440  0.00  0.00     0.001 A 
ENDBRANCH   5   6
ENDBRANCH   1   5
BRANCH   1  16
HETATM   16  N           1     -29.298  -6.444 -17.652  0.00  0.00    -0.344 N 
HETATM   17  H           1     -29.999  -7.150 -17.838  0.00  0.00     0.163 HD
HETATM   18  C           1     -29.494  -5.156 -18.071  0.00  0.00     0.249 C 
HETATM   19  O           1     -29.115  -4.812 -19.166  0.00  0.00    -0.271 OA
BRANCH  18  20
HETATM   20  C           1     -30.185  -4.165 -17.167  0.00  0.00     0.274 C 
BRANCH  20  21
HETATM   21  N           1     -30.381  -2.872 -17.900  0.00  0.00    -0.067 N 
HETATM   22  H           1     -29.450  -2.473 -18.160  0.00  0.00     0.275 HD
HETATM   23  H           1     -30.940  -3.044 -18.766  0.00  0.00     0.275 HD
HETATM   24  H           1     -30.889  -2.197 -17.285  0.00  0.00     0.275 HD
ENDBRANCH  20  21
BRANCH  20  25
HETATM   25  C           1     -31.539  -4.720 -16.745  0.00  0.00     0.045 C 
BRANCH  25  26
HETATM   26 Se           1     -32.947  -3.499 -17.316  0.00  0.00     0.000 Se
HETATM   27  H           1     -32.252  -3.087 -18.546  0.00  0.00     0.000 HD
ENDBRANCH  25  26
ENDBRANCH  20  25
ENDBRANCH  18  20
ENDBRANCH   1  16
TORSDOF 8
ENDMDL
MODEL 8
REMARK VINA RESULT:      -6.5      4.588      7.607
REMARK  8 active torsions:
REMARK  status: ('A' for Active; 'I' for Inactive)
REMARK    1  A    between atoms: C_4  and  C_6 
REMARK    2  A    between atoms: C_6  and  C_7 
REMARK    3  A    between atoms: C_6  and  N_26 
REMARK    4  A    between atoms: C_7  and  C_8 
REMARK    5  A    between atoms: Se_11  and  C_23 
REMARK    6  A    between atoms: N_12  and  C_24 
REMARK    7  A    between atoms: C_23  and  C_24 
REMARK    8  A    between atoms: C_24  and  C_25 
REMARK       I    between atoms: C_25  and  N_26 
ROOT
HETATM    1  C           1     -21.043  -7.808  -3.384  0.00  0.00     0.190 C 
ENDROOT
BRANCH   1   2
HETATM    2  C           1     -21.525  -6.405  -3.663  0.00  0.00     0.197 C 
HETATM    3  O           1     -22.477  -5.928  -3.008  0.00  0.00    -0.646 OA
HETATM    4  O           1     -20.972  -5.719  -4.551  0.00  0.00    -0.646 OA
ENDBRANCH   1   2
BRANCH   1   5
HETATM    5  C           1     -20.547  -7.897  -1.946  0.00  0.00     0.077 C 
BRANCH   5   6
HETATM    6  C           1     -21.653  -8.387  -1.065  0.00  0.00    -0.028 A 
HETATM    7  C           1     -22.328  -9.634  -1.182  0.00  0.00    -0.002 A 
HETATM    8  C           1     -23.282  -9.681  -0.165  0.00  0.00     0.042 A 
HETATM    9  C           1     -22.218 -10.729  -2.061  0.00  0.00     0.014 A 
HETATM   10  N           1     -23.182  -8.502   0.539  0.00  0.00    -0.365 N 
HETATM   11  C           1     -24.135 -10.775   0.019  0.00  0.00     0.030 A 
HETATM   12  C           1     -22.200  -7.712   0.003  0.00  0.00     0.096 A 
HETATM   13  H           1     -23.773  -8.246   1.367  0.00  0.00     0.165 HD
HETATM   14  C           1     -24.008 -11.851  -0.864  0.00  0.00     0.002 A 
HETATM   15  C           1     -23.064 -11.831  -1.890  0.00  0.00     0.001 A 
ENDBRANCH   5   6
ENDBRANCH   1   5
BRANCH   1  16
HETATM   16  N           1     -19.961  -8.136  -4.290  0.00  0.00    -0.344 N 
HETATM   17  H           1     -19.256  -7.443  -4.509  0.00  0.00     0.163 HD
HETATM   18  C           1     -19.892  -9.383  -4.850  0.00  0.00     0.249 C 
HETATM   19  O           1     -20.438  -9.603  -5.906  0.00  0.00    -0.271 OA
BRANCH  18  20
HETATM   20  C           1     -19.135 -10.484  -4.150  0.00  0.00     0.274 C 
BRANCH  20  21
HETATM   21  N           1     -19.658 -11.816  -4.600  0.00  0.00    -0.067 N 
HETATM   22  H           1     -20.236 -11.690  -5.463  0.00  0.00     0.275 HD
HETATM   23  H           1     -18.856 -12.452  -4.809  0.00  0.00     0.275 HD
HETATM   24  H           1     -20.247 -12.232  -3.845  0.00  0.00     0.275 HD
ENDBRANCH  20  21
BRANCH  20  25
HETATM   25  C           1     -17.654 -10.379  -4.489  0.00  0.00     0.045 C 
BRANCH  25  26
HETATM   26 Se           1     -16.692  -9.624  -2.972  0.00  0.00     0.000 Se
HETATM   27  H           1     -15.359  -9.922  -3.521  0.00  0.00     0.000 HD
ENDBRANCH  25  26
ENDBRANCH  20  25
ENDBRANCH  18  20
ENDBRANCH   1  16
TORSDOF 8
ENDMDL
MODEL 9
REMARK VINA RESULT:      -6.5      2.409      3.219
REMARK  8 active torsions:
REMARK  status: ('A' for Active; 'I' for Inactive)
REMARK    1  A    between atoms: C_4  and  C_6 
REMARK    2  A    between atoms: C_6  and  C_7 
REMARK    3  A    between atoms: C_6  and  N_26 
REMARK    4  A    between atoms: C_7  and  C_8 
REMARK    5  A    between atoms: Se_11  and  C_23 
REMARK    6  A    between atoms: N_12  and  C_24 
REMARK    7  A    between atoms: C_23  and  C_24 
REMARK    8  A    between atoms: C_24  and  C_25 
REMARK       I    between atoms: C_25  and  N_26 
ROOT
HETATM    1  C           1     -21.051  -6.258  -5.313  0.00  0.00     0.190 C 
ENDROOT
BRANCH   1   2
HETATM    2  C           1     -21.652  -6.233  -3.928  0.00  0.00     0.197 C 
HETATM    3  O           1     -22.894  -6.216  -3.786  0.00  0.00    -0.646 OA
HETATM    4  O           1     -20.908  -6.229  -2.923  0.00  0.00    -0.646 OA
ENDBRANCH   1   2
BRANCH   1   5
HETATM    5  C           1     -21.915  -5.431  -6.257  0.00  0.00     0.077 C 
BRANCH   5   6
HETATM    6  C           1     -21.066  -4.889  -7.364  0.00  0.00    -0.028 A 
HETATM    7  C           1     -21.491  -4.635  -8.698  0.00  0.00    -0.002 A 
HETATM    8  C           1     -20.388  -4.138  -9.392  0.00  0.00     0.042 A 
HETATM    9  C           1     -22.713  -4.783  -9.382  0.00  0.00     0.014 A 
HETATM   10  N           1     -19.337  -4.094  -8.504  0.00  0.00    -0.365 N 
HETATM   11  C           1     -20.446  -3.778 -10.743  0.00  0.00     0.030 A 
HETATM   12  C           1     -19.736  -4.546  -7.275  0.00  0.00     0.096 A 
HETATM   13  H           1     -18.368  -3.762  -8.736  0.00  0.00     0.165 HD
HETATM   14  C           1     -21.669  -3.933 -11.402  0.00  0.00     0.002 A 
HETATM   15  C           1     -22.788  -4.427 -10.734  0.00  0.00     0.001 A 
ENDBRANCH   5   6
ENDBRANCH   1   5
BRANCH   1  16
HETATM   16  N           1     -20.989  -7.626  -5.788  0.00  0.00    -0.344 N 
HETATM   17  H           1     -21.072  -7.821  -6.778  0.00  0.00     0.163 HD
HETATM   18  C           1     -20.817  -8.652  -4.900  0.00  0.00     0.249 C 
HETATM   19  O           1     -21.780  -9.189  -4.403  0.00  0.00    -0.271 OA
BRANCH  18  20
HETATM   20  C           1     -19.427  -9.114  -4.539  0.00  0.00     0.274 C 
BRANCH  20  21
HETATM   21  N           1     -19.192  -8.894  -3.074  0.00  0.00    -0.067 N 
HETATM   22  H           1     -20.090  -8.623  -2.613  0.00  0.00     0.275 HD
HETATM   23  H           1     -18.832  -9.775  -2.643  0.00  0.00     0.275 HD
HETATM   24  H           1     -18.490  -8.130  -2.945  0.00  0.00     0.275 HD
ENDBRANCH  20  21
BRANCH  20  25
HETATM   25  C           1     -19.284 -10.596  -4.859  0.00  0.00     0.045 C 
BRANCH  25  26
HETATM   26 Se           1     -17.872 -10.842  -6.179  0.00  0.00     0.000 Se
HETATM   27  H           1     -17.774 -12.297  -5.974  0.00  0.00     0.000 HD
ENDBRANCH  25  26
ENDBRANCH  20  25
ENDBRANCH  18  20
ENDBRANCH   1  16
TORSDOF 8
ENDMDL
