MODEL 1
REMARK VINA RESULT:      -7.5      0.000      0.000
REMARK  10 active torsions:
REMARK  status: ('A' for Active; 'I' for Inactive)
REMARK    1  A    between atoms: N_4  and  C_27 
REMARK    2  A    between atoms: C_5  and  C_27 
REMARK    3  A    between atoms: C_5  and  C_13 
REMARK    4  A    between atoms: N_6  and  C_22 
REMARK    5  A    between atoms: C_12  and  C_14 
REMARK    6  A    between atoms: C_12  and  C_29 
REMARK    7  A    between atoms: C_12  and  N_23 
REMARK    8  A    between atoms: C_13  and  C_22 
REMARK       I    between atoms: C_16  and  N_23 
REMARK    9  A    between atoms: C_16  and  C_27 
REMARK   10  A    between atoms: C_24  and  C_29 
ROOT
HETATM    1  H           1     -23.407  -6.006  -4.129  0.00  0.00     0.163 HD
HETATM    2  C           1     -21.677  -6.375  -3.055  0.00  0.00     0.249 C 
HETATM    3  O           1     -21.026  -5.413  -2.719  0.00  0.00    -0.271 OA
HETATM    4  N           1     -22.446  -6.318  -4.186  0.00  0.00    -0.344 N 
ENDROOT
BRANCH   4   5
HETATM    5  C           1     -21.885  -6.706  -5.466  0.00  0.00     0.190 C 
BRANCH   5   6
HETATM    6  C           1     -20.948  -7.873  -5.271  0.00  0.00     0.197 C 
HETATM    7  O           1     -19.714  -7.682  -5.225  0.00  0.00    -0.646 OA
HETATM    8  O           1     -21.406  -9.030  -5.155  0.00  0.00    -0.646 OA
ENDBRANCH   5   6
BRANCH   5   9
HETATM    9  C           1     -21.118  -5.532  -6.058  0.00  0.00     0.077 C 
BRANCH   9  10
HETATM   10  C           1     -21.927  -4.905  -7.151  0.00  0.00    -0.021 A 
HETATM   11  C           1     -21.480  -4.623  -8.471  0.00  0.00     0.005 A 
HETATM   12  C           1     -22.550  -4.044  -9.153  0.00  0.00     0.132 A 
HETATM   13  C           1     -20.262  -4.806  -9.152  0.00  0.00     0.014 A 
HETATM   14  N           1     -23.605  -3.981  -8.271  0.00  0.00    -0.076 N 
HETATM   15  C           1     -22.463  -3.636 -10.489  0.00  0.00     0.037 A 
HETATM   16  C           1     -23.240  -4.501  -7.057  0.00  0.00     0.195 A 
HETATM   17  H           1     -24.555  -3.592  -8.496  0.00  0.00     0.272 HD
HETATM   18  C           1     -21.243  -3.827 -11.145  0.00  0.00     0.002 A 
HETATM   19  C           1     -20.156  -4.403 -10.489  0.00  0.00     0.001 A 
ENDBRANCH   9  10
ENDBRANCH   5   9
ENDBRANCH   4   5
BRANCH   2  20
HETATM   20  C           1     -21.641  -7.637  -2.229  0.00  0.00     0.274 C 
BRANCH  20  21
HETATM   21  N           1     -20.235  -8.157  -2.174  0.00  0.00    -0.067 N 
HETATM   22  H           1     -20.169  -8.907  -1.450  0.00  0.00     0.275 HD
HETATM   23  H           1     -19.973  -8.550  -3.106  0.00  0.00     0.275 HD
HETATM   24  H           1     -19.585  -7.378  -1.928  0.00  0.00     0.275 HD
ENDBRANCH  20  21
BRANCH  20  25
HETATM   25  C           1     -22.126  -7.335  -0.818  0.00  0.00     0.044 C 
BRANCH  25  26
HETATM   26  C           1     -22.182  -8.627  -0.013  0.00  0.00     0.033 C 
BRANCH  26  27
HETATM   27  C           1     -21.285  -8.503   1.212  0.00  0.00     0.619 C 
BRANCH  27  28
HETATM   28  N           1     -20.632  -9.824   1.491  0.00  0.00    -0.077 N 
HETATM   29  H           1     -19.772  -9.673   2.066  0.00  0.00     0.274 HD
HETATM   30  H           1     -21.297 -10.438   2.013  0.00  0.00     0.274 HD
HETATM   31  H           1     -20.373 -10.281   0.588  0.00  0.00     0.274 HD
ENDBRANCH  27  28
ENDBRANCH  26  27
ENDBRANCH  25  26
ENDBRANCH  20  25
ENDBRANCH   2  20
TORSDOF 10
ENDMDL
MODEL 2
REMARK VINA RESULT:      -7.4      3.206      7.151
REMARK  10 active torsions:
REMARK  status: ('A' for Active; 'I' for Inactive)
REMARK    1  A    between atoms: N_4  and  C_27 
REMARK    2  A    between atoms: C_5  and  C_27 
REMARK    3  A    between atoms: C_5  and  C_13 
REMARK    4  A    between atoms: N_6  and  C_22 
REMARK    5  A    between atoms: C_12  and  C_14 
REMARK    6  A    between atoms: C_12  and  C_29 
REMARK    7  A    between atoms: C_12  and  N_23 
REMARK    8  A    between atoms: C_13  and  C_22 
REMARK       I    between atoms: C_16  and  N_23 
REMARK    9  A    between atoms: C_16  and  C_27 
REMARK   10  A    between atoms: C_24  and  C_29 
ROOT
HETATM    1  H           1     -21.247  -5.686  -2.380  0.00  0.00     0.163 HD
HETATM    2  C           1     -21.654  -6.286  -4.319  0.00  0.00     0.249 C 
HETATM    3  O           1     -22.786  -6.131  -4.714  0.00  0.00    -0.271 OA
HETATM    4  N           1     -21.416  -6.480  -2.985  0.00  0.00    -0.344 N 
ENDROOT
BRANCH   4   5
HETATM    5  C           1     -21.404  -7.823  -2.437  0.00  0.00     0.190 C 
BRANCH   5   6
HETATM    6  C           1     -22.185  -7.845  -1.146  0.00  0.00     0.197 C 
HETATM    7  O           1     -22.743  -6.805  -0.735  0.00  0.00    -0.646 OA
HETATM    8  O           1     -22.274  -8.904  -0.487  0.00  0.00    -0.646 OA
ENDBRANCH   5   6
BRANCH   5   9
HETATM    9  C           1     -19.967  -8.248  -2.168  0.00  0.00     0.077 C 
BRANCH   9  10
HETATM   10  C           1     -19.521  -9.203  -3.232  0.00  0.00    -0.021 A 
HETATM   11  C           1     -18.186  -9.638  -3.463  0.00  0.00     0.005 A 
HETATM   12  C           1     -18.223 -10.519  -4.544  0.00  0.00     0.132 A 
HETATM   13  C           1     -16.948  -9.364  -2.853  0.00  0.00     0.014 A 
HETATM   14  N           1     -19.536 -10.610  -4.947  0.00  0.00    -0.076 N 
HETATM   15  C           1     -17.076 -11.143  -5.047  0.00  0.00     0.037 A 
HETATM   16  C           1     -20.330  -9.818  -4.160  0.00  0.00     0.195 A 
HETATM   17  H           1     -19.880 -11.201  -5.744  0.00  0.00     0.272 HD
HETATM   18  C           1     -15.857 -10.856  -4.426  0.00  0.00     0.002 A 
HETATM   19  C           1     -15.790  -9.980  -3.344  0.00  0.00     0.001 A 
ENDBRANCH   9  10
ENDBRANCH   5   9
ENDBRANCH   4   5
BRANCH   2  20
HETATM   20  C           1     -20.505  -6.268  -5.296  0.00  0.00     0.274 C 
BRANCH  20  21
HETATM   21  N           1     -20.858  -7.091  -6.498  0.00  0.00    -0.067 N 
HETATM   22  H           1     -21.892  -7.237  -6.530  0.00  0.00     0.275 HD
HETATM   23  H           1     -20.549  -6.593  -7.364  0.00  0.00     0.275 HD
HETATM   24  H           1     -20.378  -8.018  -6.439  0.00  0.00     0.275 HD
ENDBRANCH  20  21
BRANCH  20  25
HETATM   25  C           1     -20.227  -4.834  -5.727  0.00  0.00     0.044 C 
BRANCH  25  26
HETATM   26  C           1     -20.471  -4.697  -7.224  0.00  0.00     0.033 C 
BRANCH  26  27
HETATM   27  C           1     -21.560  -3.660  -7.469  0.00  0.00     0.619 C 
BRANCH  27  28
HETATM   28  N           1     -22.906  -4.286  -7.255  0.00  0.00    -0.077 N 
HETATM   29  H           1     -22.784  -5.282  -6.963  0.00  0.00     0.274 HD
HETATM   30  H           1     -23.418  -3.765  -6.509  0.00  0.00     0.274 HD
HETATM   31  H           1     -23.453  -4.247  -8.145  0.00  0.00     0.274 HD
ENDBRANCH  27  28
ENDBRANCH  26  27
ENDBRANCH  25  26
ENDBRANCH  20  25
ENDBRANCH   2  20
TORSDOF 10
ENDMDL
MODEL 3
REMARK VINA RESULT:      -7.3      2.129      7.652
REMARK  10 active torsions:
REMARK  status: ('A' for Active; 'I' for Inactive)
REMARK    1  A    between atoms: N_4  and  C_27 
REMARK    2  A    between atoms: C_5  and  C_27 
REMARK    3  A    between atoms: C_5  and  C_13 
REMARK    4  A    between atoms: N_6  and  C_22 
REMARK    5  A    between atoms: C_12  and  C_14 
REMARK    6  A    between atoms: C_12  and  C_29 
REMARK    7  A    between atoms: C_12  and  N_23 
REMARK    8  A    between atoms: C_13  and  C_22 
REMARK       I    between atoms: C_16  and  N_23 
REMARK    9  A    between atoms: C_16  and  C_27 
REMARK   10  A    between atoms: C_24  and  C_29 
ROOT
HETATM    1  H           1     -19.667  -7.856  -7.204  0.00  0.00     0.163 HD
HETATM    2  C           1     -20.191  -5.874  -6.920  0.00  0.00     0.249 C 
HETATM    3  O           1     -19.298  -5.061  -6.959  0.00  0.00    -0.271 OA
HETATM    4  N           1     -19.932  -7.157  -6.522  0.00  0.00    -0.344 N 
ENDROOT
BRANCH   4   5
HETATM    5  C           1     -20.034  -7.517  -5.120  0.00  0.00     0.190 C 
BRANCH   5   6
HETATM    6  C           1     -19.235  -8.770  -4.863  0.00  0.00     0.197 C 
HETATM    7  O           1     -18.680  -8.940  -3.756  0.00  0.00    -0.646 OA
HETATM    8  O           1     -19.127  -9.638  -5.756  0.00  0.00    -0.646 OA
ENDBRANCH   5   6
BRANCH   5   9
HETATM    9  C           1     -21.494  -7.765  -4.767  0.00  0.00     0.077 C 
BRANCH   9  10
HETATM   10  C           1     -21.756  -7.304  -3.367  0.00  0.00    -0.021 A 
HETATM   11  C           1     -21.852  -8.132  -2.214  0.00  0.00     0.005 A 
HETATM   12  C           1     -22.102  -7.296  -1.126  0.00  0.00     0.132 A 
HETATM   13  C           1     -21.749  -9.519  -1.994  0.00  0.00     0.014 A 
HETATM   14  N           1     -22.155  -6.008  -1.610  0.00  0.00    -0.076 N 
HETATM   15  C           1     -22.256  -7.779   0.178  0.00  0.00     0.037 A 
HETATM   16  C           1     -21.946  -6.001  -2.964  0.00  0.00     0.195 A 
HETATM   17  H           1     -22.329  -5.153  -1.025  0.00  0.00     0.272 HD
HETATM   18  C           1     -22.150  -9.160   0.373  0.00  0.00     0.002 A 
HETATM   19  C           1     -21.901 -10.020  -0.695  0.00  0.00     0.001 A 
ENDBRANCH   9  10
ENDBRANCH   5   9
ENDBRANCH   4   5
BRANCH   2  20
HETATM   20  C           1     -21.592  -5.474  -7.311  0.00  0.00     0.274 C 
BRANCH  20  21
HETATM   21  N           1     -22.184  -4.610  -6.237  0.00  0.00    -0.067 N 
HETATM   22  H           1     -22.348  -3.650  -6.613  0.00  0.00     0.275 HD
HETATM   23  H           1     -23.091  -5.021  -5.921  0.00  0.00     0.275 HD
HETATM   24  H           1     -21.523  -4.559  -5.429  0.00  0.00     0.275 HD
ENDBRANCH  20  21
BRANCH  20  25
HETATM   25  C           1     -21.553  -4.699  -8.622  0.00  0.00     0.044 C 
BRANCH  25  26
HETATM   26  C           1     -22.836  -3.891  -8.772  0.00  0.00     0.033 C 
BRANCH  26  27
HETATM   27  C           1     -23.715  -4.528  -9.842  0.00  0.00     0.619 C 
BRANCH  27  28
HETATM   28  N           1     -25.132  -4.070  -9.664  0.00  0.00    -0.077 N 
HETATM   29  H           1     -25.595  -4.001 -10.598  0.00  0.00     0.274 HD
HETATM   30  H           1     -25.648  -4.756  -9.069  0.00  0.00     0.274 HD
HETATM   31  H           1     -25.139  -3.133  -9.201  0.00  0.00     0.274 HD
ENDBRANCH  27  28
ENDBRANCH  26  27
ENDBRANCH  25  26
ENDBRANCH  20  25
ENDBRANCH   2  20
TORSDOF 10
ENDMDL
MODEL 4
REMARK VINA RESULT:      -7.2      2.247      8.206
REMARK  10 active torsions:
REMARK  status: ('A' for Active; 'I' for Inactive)
REMARK    1  A    between atoms: N_4  and  C_27 
REMARK    2  A    between atoms: C_5  and  C_27 
REMARK    3  A    between atoms: C_5  and  C_13 
REMARK    4  A    between atoms: N_6  and  C_22 
REMARK    5  A    between atoms: C_12  and  C_14 
REMARK    6  A    between atoms: C_12  and  C_29 
REMARK    7  A    between atoms: C_12  and  N_23 
REMARK    8  A    between atoms: C_13  and  C_22 
REMARK       I    between atoms: C_16  and  N_23 
REMARK    9  A    between atoms: C_16  and  C_27 
REMARK   10  A    between atoms: C_24  and  C_29 
ROOT
HETATM    1  H           1     -19.183  -7.126  -6.284  0.00  0.00     0.163 HD
HETATM    2  C           1     -20.349  -5.429  -6.498  0.00  0.00     0.249 C 
HETATM    3  O           1     -20.061  -4.477  -5.812  0.00  0.00    -0.271 OA
HETATM    4  N           1     -20.071  -6.696  -6.061  0.00  0.00    -0.344 N 
ENDROOT
BRANCH   4   5
HETATM    5  C           1     -21.050  -7.424  -5.276  0.00  0.00     0.190 C 
BRANCH   5   6
HETATM    6  C           1     -21.964  -6.447  -4.579  0.00  0.00     0.197 C 
HETATM    7  O           1     -21.619  -5.935  -3.492  0.00  0.00    -0.646 OA
HETATM    8  O           1     -23.066  -6.147  -5.088  0.00  0.00    -0.646 OA
ENDBRANCH   5   6
BRANCH   5   9
HETATM    9  C           1     -20.334  -8.278  -4.239  0.00  0.00     0.077 C 
BRANCH   9  10
HETATM   10  C           1     -21.233  -9.393  -3.801  0.00  0.00    -0.021 A 
HETATM   11  C           1     -21.861  -9.514  -2.530  0.00  0.00     0.005 A 
HETATM   12  C           1     -22.604 -10.695  -2.550  0.00  0.00     0.132 A 
HETATM   13  C           1     -21.867  -8.729  -1.362  0.00  0.00     0.014 A 
HETATM   14  N           1     -22.428 -11.262  -3.792  0.00  0.00    -0.076 N 
HETATM   15  C           1     -23.357 -11.132  -1.454  0.00  0.00     0.037 A 
HETATM   16  C           1     -21.601 -10.483  -4.557  0.00  0.00     0.195 A 
HETATM   17  H           1     -22.865 -12.164  -4.108  0.00  0.00     0.272 HD
HETATM   18  C           1     -23.348 -10.336  -0.304  0.00  0.00     0.002 A 
HETATM   19  C           1     -22.615  -9.152  -0.256  0.00  0.00     0.001 A 
ENDBRANCH   9  10
ENDBRANCH   5   9
ENDBRANCH   4   5
BRANCH   2  20
HETATM   20  C           1     -21.017  -5.222  -7.835  0.00  0.00     0.274 C 
BRANCH  20  21
HETATM   21  N           1     -22.372  -4.614  -7.628  0.00  0.00    -0.067 N 
HETATM   22  H           1     -22.961  -4.778  -8.475  0.00  0.00     0.275 HD
HETATM   23  H           1     -22.827  -5.054  -6.797  0.00  0.00     0.275 HD
HETATM   24  H           1     -22.271  -3.586  -7.469  0.00  0.00     0.275 HD
ENDBRANCH  20  21
BRANCH  20  25
HETATM   25  C           1     -20.166  -4.289  -8.688  0.00  0.00     0.044 C 
BRANCH  25  26
HETATM   26  C           1     -20.242  -4.725 -10.146  0.00  0.00     0.033 C 
BRANCH  26  27
HETATM   27  C           1     -21.092  -3.733 -10.930  0.00  0.00     0.619 C 
BRANCH  27  28
HETATM   28  N           1     -21.869  -4.463 -11.985  0.00  0.00    -0.077 N 
HETATM   29  H           1     -22.218  -3.780 -12.694  0.00  0.00     0.274 HD
HETATM   30  H           1     -21.251  -5.164 -12.450  0.00  0.00     0.274 HD
HETATM   31  H           1     -22.680  -4.952 -11.542  0.00  0.00     0.274 HD
ENDBRANCH  27  28
ENDBRANCH  26  27
ENDBRANCH  25  26
ENDBRANCH  20  25
ENDBRANCH   2  20
TORSDOF 10
ENDMDL
MODEL 5
REMARK VINA RESULT:      -7.0     14.048     17.265
REMARK  10 active torsions:
REMARK  status: ('A' for Active; 'I' for Inactive)
REMARK    1  A    between atoms: N_4  and  C_27 
REMARK    2  A    between atoms: C_5  and  C_27 
REMARK    3  A    between atoms: C_5  and  C_13 
REMARK    4  A    between atoms: N_6  and  C_22 
REMARK    5  A    between atoms: C_12  and  C_14 
REMARK    6  A    between atoms: C_12  and  C_29 
REMARK    7  A    between atoms: C_12  and  N_23 
REMARK    8  A    between atoms: C_13  and  C_22 
REMARK       I    between atoms: C_16  and  N_23 
REMARK    9  A    between atoms: C_16  and  C_27 
REMARK   10  A    between atoms: C_24  and  C_29 
ROOT
HETATM    1  H           1     -33.885  -1.766 -13.096  0.00  0.00     0.163 HD
HETATM    2  C           1     -35.350  -0.325 -13.343  0.00  0.00     0.249 C 
HETATM    3  O           1     -35.094   0.789 -12.950  0.00  0.00    -0.271 OA
HETATM    4  N           1     -34.767  -1.411 -12.749  0.00  0.00    -0.344 N 
ENDROOT
BRANCH   4   5
HETATM    5  C           1     -35.412  -2.055 -11.620  0.00  0.00     0.190 C 
BRANCH   5   6
HETATM    6  C           1     -36.418  -1.110 -11.010  0.00  0.00     0.197 C 
HETATM    7  O           1     -36.054  -0.283 -10.147  0.00  0.00    -0.646 OA
HETATM    8  O           1     -37.615  -1.153 -11.369  0.00  0.00    -0.646 OA
ENDBRANCH   5   6
BRANCH   5   9
HETATM    9  C           1     -34.364  -2.422 -10.579  0.00  0.00     0.077 C 
BRANCH   9  10
HETATM   10  C           1     -33.705  -3.710 -10.965  0.00  0.00    -0.021 A 
HETATM   11  C           1     -34.105  -5.013 -10.558  0.00  0.00     0.005 A 
HETATM   12  C           1     -33.220  -5.917 -11.146  0.00  0.00     0.132 A 
HETATM   13  C           1     -35.140  -5.509  -9.744  0.00  0.00     0.014 A 
HETATM   14  N           1     -32.319  -5.181 -11.881  0.00  0.00    -0.076 N 
HETATM   15  C           1     -33.319  -7.300 -10.957  0.00  0.00     0.037 A 
HETATM   16  C           1     -32.603  -3.845 -11.780  0.00  0.00     0.195 A 
HETATM   17  H           1     -31.526  -5.585 -12.440  0.00  0.00     0.272 HD
HETATM   18  C           1     -34.354  -7.771 -10.144  0.00  0.00     0.002 A 
HETATM   19  C           1     -35.253  -6.891  -9.544  0.00  0.00     0.001 A 
ENDBRANCH   9  10
ENDBRANCH   5   9
ENDBRANCH   4   5
BRANCH   2  20
HETATM   20  C           1     -36.313  -0.518 -14.489  0.00  0.00     0.274 C 
BRANCH  20  21
HETATM   21  N           1     -37.558   0.277 -14.234  0.00  0.00    -0.067 N 
HETATM   22  H           1     -37.606   1.076 -14.904  0.00  0.00     0.275 HD
HETATM   23  H           1     -38.395  -0.336 -14.363  0.00  0.00     0.275 HD
HETATM   24  H           1     -37.543   0.644 -13.256  0.00  0.00     0.275 HD
ENDBRANCH  20  21
BRANCH  20  25
HETATM   25  C           1     -35.664  -0.044 -15.783  0.00  0.00     0.044 C 
BRANCH  25  26
HETATM   26  C           1     -35.813  -1.122 -16.849  0.00  0.00     0.033 C 
BRANCH  26  27
HETATM   27  C           1     -35.049  -2.368 -16.422  0.00  0.00     0.619 C 
BRANCH  27  28
HETATM   28  N           1     -33.952  -2.646 -17.407  0.00  0.00    -0.077 N 
HETATM   29  H           1     -34.223  -2.272 -18.345  0.00  0.00     0.274 HD
HETATM   30  H           1     -33.072  -2.183 -17.089  0.00  0.00     0.274 HD
HETATM   31  H           1     -33.799  -3.678 -17.474  0.00  0.00     0.274 HD
ENDBRANCH  27  28
ENDBRANCH  26  27
ENDBRANCH  25  26
ENDBRANCH  20  25
ENDBRANCH   2  20
TORSDOF 10
ENDMDL
MODEL 6
REMARK VINA RESULT:      -6.9     13.706     15.080
REMARK  10 active torsions:
REMARK  status: ('A' for Active; 'I' for Inactive)
REMARK    1  A    between atoms: N_4  and  C_27 
REMARK    2  A    between atoms: C_5  and  C_27 
REMARK    3  A    between atoms: C_5  and  C_13 
REMARK    4  A    between atoms: N_6  and  C_22 
REMARK    5  A    between atoms: C_12  and  C_14 
REMARK    6  A    between atoms: C_12  and  C_29 
REMARK    7  A    between atoms: C_12  and  N_23 
REMARK    8  A    between atoms: C_13  and  C_22 
REMARK       I    between atoms: C_16  and  N_23 
REMARK    9  A    between atoms: C_16  and  C_27 
REMARK   10  A    between atoms: C_24  and  C_29 
ROOT
HETATM    1  H           1     -34.299  -5.201 -16.169  0.00  0.00     0.163 HD
HETATM    2  C           1     -34.111  -3.944 -14.536  0.00  0.00     0.249 C 
HETATM    3  O           1     -34.682  -2.881 -14.595  0.00  0.00    -0.271 OA
HETATM    4  N           1     -33.687  -4.558 -15.684  0.00  0.00    -0.344 N 
ENDROOT
BRANCH   4   5
HETATM    5  C           1     -32.361  -4.286 -16.206  0.00  0.00     0.190 C 
BRANCH   5   6
HETATM    6  C           1     -32.459  -3.283 -17.329  0.00  0.00     0.197 C 
HETATM    7  O           1     -31.442  -2.985 -17.991  0.00  0.00    -0.646 OA
HETATM    8  O           1     -33.558  -2.751 -17.598  0.00  0.00    -0.646 OA
ENDBRANCH   5   6
BRANCH   5   9
HETATM    9  C           1     -31.750  -5.578 -16.730  0.00  0.00     0.077 C 
BRANCH   9  10
HETATM   10  C           1     -30.303  -5.637 -16.349  0.00  0.00    -0.021 A 
HETATM   11  C           1     -29.209  -5.848 -17.234  0.00  0.00     0.005 A 
HETATM   12  C           1     -28.047  -5.829 -16.463  0.00  0.00     0.132 A 
HETATM   13  C           1     -29.099  -6.053 -18.621  0.00  0.00     0.014 A 
HETATM   14  N           1     -28.430  -5.614 -15.158  0.00  0.00    -0.076 N 
HETATM   15  C           1     -26.773  -6.007 -17.013  0.00  0.00     0.037 A 
HETATM   16  C           1     -29.793  -5.495 -15.078  0.00  0.00     0.195 A 
HETATM   17  H           1     -27.773  -5.549 -14.341  0.00  0.00     0.272 HD
HETATM   18  C           1     -26.687  -6.209 -18.394  0.00  0.00     0.002 A 
HETATM   19  C           1     -27.831  -6.233 -19.189  0.00  0.00     0.001 A 
ENDBRANCH   9  10
ENDBRANCH   5   9
ENDBRANCH   4   5
BRANCH   2  20
HETATM   20  C           1     -33.863  -4.595 -13.197  0.00  0.00     0.274 C 
BRANCH  20  21
HETATM   21  N           1     -32.402  -4.521 -12.869  0.00  0.00    -0.067 N 
HETATM   22  H           1     -32.154  -3.543 -12.599  0.00  0.00     0.275 HD
HETATM   23  H           1     -32.192  -5.165 -12.073  0.00  0.00     0.275 HD
HETATM   24  H           1     -31.842  -4.805 -13.704  0.00  0.00     0.275 HD
ENDBRANCH  20  21
BRANCH  20  25
HETATM   25  C           1     -34.662  -3.868 -12.124  0.00  0.00     0.044 C 
BRANCH  25  26
HETATM   26  C           1     -33.783  -3.647 -10.899  0.00  0.00     0.033 C 
BRANCH  26  27
HETATM   27  C           1     -33.698  -2.156 -10.596  0.00  0.00     0.619 C 
BRANCH  27  28
HETATM   28  N           1     -34.425  -1.387 -11.659  0.00  0.00    -0.077 N 
HETATM   29  H           1     -35.395  -1.174 -11.333  0.00  0.00     0.274 HD
HETATM   30  H           1     -33.918  -0.494 -11.851  0.00  0.00     0.274 HD
HETATM   31  H           1     -34.468  -1.957 -12.533  0.00  0.00     0.274 HD
ENDBRANCH  27  28
ENDBRANCH  26  27
ENDBRANCH  25  26
ENDBRANCH  20  25
ENDBRANCH   2  20
TORSDOF 10
ENDMDL
MODEL 7
REMARK VINA RESULT:      -6.8      2.423      3.462
REMARK  10 active torsions:
REMARK  status: ('A' for Active; 'I' for Inactive)
REMARK    1  A    between atoms: N_4  and  C_27 
REMARK    2  A    between atoms: C_5  and  C_27 
REMARK    3  A    between atoms: C_5  and  C_13 
REMARK    4  A    between atoms: N_6  and  C_22 
REMARK    5  A    between atoms: C_12  and  C_14 
REMARK    6  A    between atoms: C_12  and  C_29 
REMARK    7  A    between atoms: C_12  and  N_23 
REMARK    8  A    between atoms: C_13  and  C_22 
REMARK       I    between atoms: C_16  and  N_23 
REMARK    9  A    between atoms: C_16  and  C_27 
REMARK   10  A    between atoms: C_24  and  C_29 
ROOT
HETATM    1  H           1     -19.497  -9.504  -2.653  0.00  0.00     0.163 HD
HETATM    2  C           1     -21.300 -10.432  -2.238  0.00  0.00     0.249 C 
HETATM    3  O           1     -21.307 -11.640  -2.240  0.00  0.00    -0.271 OA
HETATM    4  N           1     -20.407  -9.751  -3.020  0.00  0.00    -0.344 N 
ENDROOT
BRANCH   4   5
HETATM    5  C           1     -20.764  -9.384  -4.377  0.00  0.00     0.190 C 
BRANCH   5   6
HETATM    6  C           1     -20.425 -10.519  -5.311  0.00  0.00     0.197 C 
HETATM    7  O           1     -21.101 -10.701  -6.346  0.00  0.00    -0.646 OA
HETATM    8  O           1     -19.466 -11.279  -5.050  0.00  0.00    -0.646 OA
ENDBRANCH   5   6
BRANCH   5   9
HETATM    9  C           1     -19.986  -8.140  -4.786  0.00  0.00     0.077 C 
BRANCH   9  10
HETATM   10  C           1     -20.938  -7.091  -5.271  0.00  0.00    -0.021 A 
HETATM   11  C           1     -20.641  -6.049  -6.192  0.00  0.00     0.005 A 
HETATM   12  C           1     -21.809  -5.305  -6.362  0.00  0.00     0.132 A 
HETATM   13  C           1     -19.486  -5.668  -6.900  0.00  0.00     0.014 A 
HETATM   14  N           1     -22.775  -5.882  -5.569  0.00  0.00    -0.076 N 
HETATM   15  C           1     -21.879  -4.193  -7.208  0.00  0.00     0.037 A 
HETATM   16  C           1     -22.259  -6.964  -4.905  0.00  0.00     0.195 A 
HETATM   17  H           1     -23.765  -5.543  -5.484  0.00  0.00     0.272 HD
HETATM   18  C           1     -20.719  -3.833  -7.901  0.00  0.00     0.002 A 
HETATM   19  C           1     -19.538  -4.557  -7.751  0.00  0.00     0.001 A 
ENDBRANCH   9  10
ENDBRANCH   5   9
ENDBRANCH   4   5
BRANCH   2  20
HETATM   20  C           1     -22.276  -9.673  -1.372  0.00  0.00     0.274 C 
BRANCH  20  21
HETATM   21  N           1     -23.326 -10.614  -0.861  0.00  0.00    -0.067 N 
HETATM   22  H           1     -23.203 -11.550  -1.307  0.00  0.00     0.275 HD
HETATM   23  H           1     -23.235 -10.707   0.176  0.00  0.00     0.275 HD
HETATM   24  H           1     -24.273 -10.239  -1.096  0.00  0.00     0.275 HD
ENDBRANCH  20  21
BRANCH  20  25
HETATM   25  C           1     -21.535  -9.052  -0.195  0.00  0.00     0.044 C 
BRANCH  25  26
HETATM   26  C           1     -21.873  -7.568  -0.110  0.00  0.00     0.033 C 
BRANCH  26  27
HETATM   27  C           1     -22.386  -7.085  -1.460  0.00  0.00     0.619 C 
BRANCH  27  28
HETATM   28  N           1     -22.147  -5.609  -1.588  0.00  0.00    -0.077 N 
HETATM   29  H           1     -23.053  -5.100  -1.481  0.00  0.00     0.274 HD
HETATM   30  H           1     -21.483  -5.298  -0.845  0.00  0.00     0.274 HD
HETATM   31  H           1     -21.739  -5.404  -2.528  0.00  0.00     0.274 HD
ENDBRANCH  27  28
ENDBRANCH  26  27
ENDBRANCH  25  26
ENDBRANCH  20  25
ENDBRANCH   2  20
TORSDOF 10
ENDMDL
MODEL 8
REMARK VINA RESULT:      -6.8      4.149      7.424
REMARK  10 active torsions:
REMARK  status: ('A' for Active; 'I' for Inactive)
REMARK    1  A    between atoms: N_4  and  C_27 
REMARK    2  A    between atoms: C_5  and  C_27 
REMARK    3  A    between atoms: C_5  and  C_13 
REMARK    4  A    between atoms: N_6  and  C_22 
REMARK    5  A    between atoms: C_12  and  C_14 
REMARK    6  A    between atoms: C_12  and  C_29 
REMARK    7  A    between atoms: C_12  and  N_23 
REMARK    8  A    between atoms: C_13  and  C_22 
REMARK       I    between atoms: C_16  and  N_23 
REMARK    9  A    between atoms: C_16  and  C_27 
REMARK   10  A    between atoms: C_24  and  C_29 
ROOT
HETATM    1  H           1     -19.432  -7.409  -4.736  0.00  0.00     0.163 HD
HETATM    2  C           1     -19.836  -9.439  -4.748  0.00  0.00     0.249 C 
HETATM    3  O           1     -20.409  -9.878  -5.717  0.00  0.00    -0.271 OA
HETATM    4  N           1     -20.030  -8.139  -4.369  0.00  0.00    -0.344 N 
ENDROOT
BRANCH   4   5
HETATM    5  C           1     -21.092  -7.805  -3.439  0.00  0.00     0.190 C 
BRANCH   5   6
HETATM    6  C           1     -21.544  -6.386  -3.681  0.00  0.00     0.197 C 
HETATM    7  O           1     -20.987  -5.694  -4.559  0.00  0.00    -0.646 OA
HETATM    8  O           1     -22.477  -5.902  -3.003  0.00  0.00    -0.646 OA
ENDBRANCH   5   6
BRANCH   5   9
HETATM    9  C           1     -20.577  -7.938  -2.013  0.00  0.00     0.077 C 
BRANCH   9  10
HETATM   10  C           1     -21.670  -8.459  -1.132  0.00  0.00    -0.021 A 
HETATM   11  C           1     -22.316  -9.721  -1.254  0.00  0.00     0.005 A 
HETATM   12  C           1     -23.265  -9.796  -0.235  0.00  0.00     0.132 A 
HETATM   13  C           1     -22.183 -10.807  -2.138  0.00  0.00     0.014 A 
HETATM   14  N           1     -23.190  -8.620   0.476  0.00  0.00    -0.076 N 
HETATM   15  C           1     -24.092 -10.911  -0.054  0.00  0.00     0.037 A 
HETATM   16  C           1     -22.228  -7.804  -0.058  0.00  0.00     0.195 A 
HETATM   17  H           1     -23.785  -8.381   1.309  0.00  0.00     0.272 HD
HETATM   18  C           1     -23.943 -11.978  -0.944  0.00  0.00     0.002 A 
HETATM   19  C           1     -23.003 -11.931  -1.973  0.00  0.00     0.001 A 
ENDBRANCH   9  10
ENDBRANCH   5   9
ENDBRANCH   4   5
BRANCH   2  20
HETATM   20  C           1     -18.906 -10.326  -3.956  0.00  0.00     0.274 C 
BRANCH  20  21
HETATM   21  N           1     -19.064 -11.746  -4.409  0.00  0.00    -0.067 N 
HETATM   22  H           1     -18.219 -12.295  -4.137  0.00  0.00     0.275 HD
HETATM   23  H           1     -19.910 -12.163  -3.959  0.00  0.00     0.275 HD
HETATM   24  H           1     -19.174 -11.770  -5.448  0.00  0.00     0.275 HD
ENDBRANCH  20  21
BRANCH  20  25
HETATM   25  C           1     -17.467  -9.879  -4.177  0.00  0.00     0.044 C 
BRANCH  25  26
HETATM   26  C           1     -16.849  -9.481  -2.843  0.00  0.00     0.033 C 
BRANCH  26  27
HETATM   27  C           1     -15.791 -10.503  -2.447  0.00  0.00     0.619 C 
BRANCH  27  28
HETATM   28  N           1     -16.312 -11.357  -1.330  0.00  0.00    -0.077 N 
HETATM   29  H           1     -15.688 -11.259  -0.497  0.00  0.00     0.274 HD
HETATM   30  H           1     -17.278 -11.051  -1.079  0.00  0.00     0.274 HD
HETATM   31  H           1     -16.332 -12.356  -1.636  0.00  0.00     0.274 HD
ENDBRANCH  27  28
ENDBRANCH  26  27
ENDBRANCH  25  26
ENDBRANCH  20  25
ENDBRANCH   2  20
TORSDOF 10
ENDMDL
MODEL 9
REMARK VINA RESULT:      -6.7      3.954      7.382
REMARK  10 active torsions:
REMARK  status: ('A' for Active; 'I' for Inactive)
REMARK    1  A    between atoms: N_4  and  C_27 
REMARK    2  A    between atoms: C_5  and  C_27 
REMARK    3  A    between atoms: C_5  and  C_13 
REMARK    4  A    between atoms: N_6  and  C_22 
REMARK    5  A    between atoms: C_12  and  C_14 
REMARK    6  A    between atoms: C_12  and  C_29 
REMARK    7  A    between atoms: C_12  and  N_23 
REMARK    8  A    between atoms: C_13  and  C_22 
REMARK       I    between atoms: C_16  and  N_23 
REMARK    9  A    between atoms: C_16  and  C_27 
REMARK   10  A    between atoms: C_24  and  C_29 
ROOT
HETATM    1  H           1     -18.176  -8.255  -6.128  0.00  0.00     0.163 HD
HETATM    2  C           1     -18.263 -10.304  -5.845  0.00  0.00     0.249 C 
HETATM    3  O           1     -18.636 -10.970  -6.782  0.00  0.00    -0.271 OA
HETATM    4  N           1     -18.698  -9.013  -5.707  0.00  0.00    -0.344 N 
ENDROOT
BRANCH   4   5
HETATM    5  C           1     -19.908  -8.731  -4.959  0.00  0.00     0.190 C 
BRANCH   5   6
HETATM    6  C           1     -20.528  -7.454  -5.469  0.00  0.00     0.197 C 
HETATM    7  O           1     -20.170  -6.981  -6.568  0.00  0.00    -0.646 OA
HETATM    8  O           1     -21.402  -6.869  -4.792  0.00  0.00    -0.646 OA
ENDBRANCH   5   6
BRANCH   5   9
HETATM    9  C           1     -19.566  -8.576  -3.484  0.00  0.00     0.077 C 
BRANCH   9  10
HETATM   10  C           1     -20.537  -9.362  -2.659  0.00  0.00    -0.021 A 
HETATM   11  C           1     -21.403  -8.840  -1.657  0.00  0.00     0.005 A 
HETATM   12  C           1     -22.132  -9.913  -1.145  0.00  0.00     0.132 A 
HETATM   13  C           1     -21.635  -7.553  -1.138  0.00  0.00     0.014 A 
HETATM   14  N           1     -21.717 -11.041  -1.816  0.00  0.00    -0.076 N 
HETATM   15  C           1     -23.087  -9.763  -0.133  0.00  0.00     0.037 A 
HETATM   16  C           1     -20.754 -10.719  -2.735  0.00  0.00     0.195 A 
HETATM   17  H           1     -22.087 -12.010  -1.649  0.00  0.00     0.272 HD
HETATM   18  C           1     -23.301  -8.475   0.369  0.00  0.00     0.002 A 
HETATM   19  C           1     -22.587  -7.384  -0.124  0.00  0.00     0.001 A 
ENDBRANCH   9  10
ENDBRANCH   5   9
ENDBRANCH   4   5
BRANCH   2  20
HETATM   20  C           1     -17.319 -10.894  -4.827  0.00  0.00     0.274 C 
BRANCH  20  21
HETATM   21  N           1     -16.739 -12.169  -5.364  0.00  0.00    -0.067 N 
HETATM   22  H           1     -17.496 -12.738  -5.805  0.00  0.00     0.275 HD
HETATM   23  H           1     -16.009 -11.946  -6.078  0.00  0.00     0.275 HD
HETATM   24  H           1     -16.308 -12.711  -4.582  0.00  0.00     0.275 HD
ENDBRANCH  20  21
BRANCH  20  25
HETATM   25  C           1     -16.195  -9.906  -4.542  0.00  0.00     0.044 C 
BRANCH  25  26
HETATM   26  C           1     -16.067  -9.703  -3.038  0.00  0.00     0.033 C 
BRANCH  26  27
HETATM   27  C           1     -16.915 -10.739  -2.311  0.00  0.00     0.619 C 
BRANCH  27  28
HETATM   28  N           1     -16.108 -11.368  -1.215  0.00  0.00    -0.077 N 
HETATM   29  H           1     -16.714 -11.515  -0.376  0.00  0.00     0.274 HD
HETATM   30  H           1     -15.734 -12.287  -1.540  0.00  0.00     0.274 HD
HETATM   31  H           1     -15.312 -10.738  -0.964  0.00  0.00     0.274 HD
ENDBRANCH  27  28
ENDBRANCH  26  27
ENDBRANCH  25  26
ENDBRANCH  20  25
ENDBRANCH   2  20
TORSDOF 10
ENDMDL
