MODEL 1
REMARK VINA RESULT:      -7.7      0.000      0.000
REMARK  8 active torsions:
REMARK  status: ('A' for Active; 'I' for Inactive)
REMARK    1  A    between atoms: C_4  and  C_21 
REMARK    2  A    between atoms: C_4  and  O_6 
REMARK    3  A    between atoms: N_8  and  C_22 
REMARK       I    between atoms: N_8  and  C_28 
REMARK    4  A    between atoms: C_12  and  C_14 
REMARK    5  A    between atoms: C_14  and  C_22 
REMARK    6  A    between atoms: C_17  and  C_22 
REMARK    7  A    between atoms: C_21  and  C_28 
REMARK    8  A    between atoms: C_21  and  N_26 
ROOT
HETATM    1  C           1     -21.896  -6.661  -5.545  0.00  0.00     0.190 C 
ENDROOT
BRANCH   1   2
HETATM    2  N           1     -22.399  -6.446  -4.203  0.00  0.00    -0.344 N 
HETATM    3  C           1     -21.566  -6.599  -3.127  0.00  0.00     0.251 C 
HETATM    4  O           1     -20.932  -5.658  -2.715  0.00  0.00    -0.271 OA
HETATM    5  H           1     -23.365  -6.181  -4.062  0.00  0.00     0.163 HD
BRANCH   3   6
HETATM    6  C           1     -21.442  -7.945  -2.456  0.00  0.00     0.302 C 
BRANCH   6   7
HETATM    7  C           1     -22.199  -7.926  -1.134  0.00  0.00     0.153 C 
HETATM    8  C           1     -21.243  -8.266   0.002  0.00  0.00     0.042 C 
BRANCH   7   9
HETATM    9  O           1     -22.739  -6.650  -0.924  0.00  0.00    -0.393 OA
HETATM   10  H           1     -23.661  -6.708  -1.113  0.00  0.00     0.210 HD
ENDBRANCH   7   9
ENDBRANCH   6   7
BRANCH   6  11
HETATM   11  N           1     -19.994  -8.243  -2.198  0.00  0.00    -0.064 N 
HETATM   12  H           1     -19.400  -7.571  -2.735  0.00  0.00     0.275 HD
HETATM   13  H           1     -19.796  -8.145  -1.177  0.00  0.00     0.275 HD
HETATM   14  H           1     -19.778  -9.218  -2.503  0.00  0.00     0.275 HD
ENDBRANCH   6  11
ENDBRANCH   3   6
ENDBRANCH   1   2
BRANCH   1  15
HETATM   15  C           1     -21.224  -5.388  -6.045  0.00  0.00     0.077 C 
BRANCH  15  16
HETATM   16  C           1     -22.018  -4.816  -7.178  0.00  0.00    -0.028 A 
HETATM   17  C           1     -21.542  -4.574  -8.496  0.00  0.00    -0.002 A 
HETATM   18  C           1     -22.605  -4.039  -9.225  0.00  0.00     0.042 A 
HETATM   19  C           1     -20.304  -4.760  -9.142  0.00  0.00     0.014 A 
HETATM   20  N           1     -23.682  -3.963  -8.371  0.00  0.00    -0.365 N 
HETATM   21  C           1     -22.491  -3.679 -10.573  0.00  0.00     0.030 A 
HETATM   22  C           1     -23.338  -4.430  -7.130  0.00  0.00     0.096 A 
HETATM   23  H           1     -24.632  -3.599  -8.634  0.00  0.00     0.165 HD
HETATM   24  C           1     -21.252  -3.873 -11.191  0.00  0.00     0.002 A 
HETATM   25  C           1     -20.173  -4.405 -10.489  0.00  0.00     0.001 A 
ENDBRANCH  15  16
ENDBRANCH   1  15
BRANCH   1  26
HETATM   26  C           1     -20.891  -7.788  -5.530  0.00  0.00     0.197 C 
HETATM   27  O           1     -19.679  -7.542  -5.349  0.00  0.00    -0.646 OA
HETATM   28  O           1     -21.272  -8.967  -5.700  0.00  0.00    -0.646 OA
ENDBRANCH   1  26
TORSDOF 8
ENDMDL
MODEL 2
REMARK VINA RESULT:      -7.2     14.555     17.309
REMARK  8 active torsions:
REMARK  status: ('A' for Active; 'I' for Inactive)
REMARK    1  A    between atoms: C_4  and  C_21 
REMARK    2  A    between atoms: C_4  and  O_6 
REMARK    3  A    between atoms: N_8  and  C_22 
REMARK       I    between atoms: N_8  and  C_28 
REMARK    4  A    between atoms: C_12  and  C_14 
REMARK    5  A    between atoms: C_14  and  C_22 
REMARK    6  A    between atoms: C_17  and  C_22 
REMARK    7  A    between atoms: C_21  and  C_28 
REMARK    8  A    between atoms: C_21  and  N_26 
ROOT
HETATM    1  C           1     -36.890  -0.382 -11.094  0.00  0.00     0.190 C 
ENDROOT
BRANCH   1   2
HETATM    2  N           1     -37.139   0.334 -12.329  0.00  0.00    -0.344 N 
HETATM    3  C           1     -36.976  -0.301 -13.532  0.00  0.00     0.251 C 
HETATM    4  O           1     -37.903  -0.886 -14.038  0.00  0.00    -0.271 OA
HETATM    5  H           1     -37.434   1.300 -12.303  0.00  0.00     0.163 HD
BRANCH   3   6
HETATM    6  C           1     -35.636  -0.268 -14.226  0.00  0.00     0.302 C 
BRANCH   6   7
HETATM    7  C           1     -35.797   0.341 -15.613  0.00  0.00     0.153 C 
HETATM    8  C           1     -35.876  -0.773 -16.649  0.00  0.00     0.042 C 
BRANCH   7   9
HETATM    9  O           1     -36.973   1.102 -15.656  0.00  0.00    -0.393 OA
HETATM   10  H           1     -37.692   0.503 -15.541  0.00  0.00     0.210 HD
ENDBRANCH   7   9
ENDBRANCH   6   7
BRANCH   6  11
HETATM   11  N           1     -35.105  -1.665 -14.352  0.00  0.00    -0.064 N 
HETATM   12  H           1     -34.587  -1.759 -15.256  0.00  0.00     0.275 HD
HETATM   13  H           1     -34.458  -1.865 -13.557  0.00  0.00     0.275 HD
HETATM   14  H           1     -35.899  -2.344 -14.335  0.00  0.00     0.275 HD
ENDBRANCH   6  11
ENDBRANCH   3   6
ENDBRANCH   1   2
BRANCH   1  15
HETATM   15  C           1     -35.464  -0.918 -11.096  0.00  0.00     0.077 C 
BRANCH  15  16
HETATM   16  C           1     -35.487  -2.403 -10.908  0.00  0.00    -0.028 A 
HETATM   17  C           1     -34.419  -3.300 -11.184  0.00  0.00    -0.002 A 
HETATM   18  C           1     -34.867  -4.583 -10.868  0.00  0.00     0.042 A 
HETATM   19  C           1     -33.108  -3.142 -11.676  0.00  0.00     0.014 A 
HETATM   20  N           1     -36.162  -4.458 -10.417  0.00  0.00    -0.365 N 
HETATM   21  C           1     -34.067  -5.721 -11.019  0.00  0.00     0.030 A 
HETATM   22  C           1     -36.547  -3.144 -10.437  0.00  0.00     0.096 A 
HETATM   23  H           1     -36.767  -5.257 -10.102  0.00  0.00     0.165 HD
HETATM   24  C           1     -32.769  -5.539 -11.508  0.00  0.00     0.002 A 
HETATM   25  C           1     -32.294  -4.270 -11.832  0.00  0.00     0.001 A 
ENDBRANCH  15  16
ENDBRANCH   1  15
BRANCH   1  26
HETATM   26  C           1     -37.074   0.554  -9.925  0.00  0.00     0.197 C 
HETATM   27  O           1     -38.075   1.301  -9.874  0.00  0.00    -0.646 OA
HETATM   28  O           1     -36.225   0.583  -9.007  0.00  0.00    -0.646 OA
ENDBRANCH   1  26
TORSDOF 8
ENDMDL
MODEL 3
REMARK VINA RESULT:      -7.1      2.332      7.050
REMARK  8 active torsions:
REMARK  status: ('A' for Active; 'I' for Inactive)
REMARK    1  A    between atoms: C_4  and  C_21 
REMARK    2  A    between atoms: C_4  and  O_6 
REMARK    3  A    between atoms: N_8  and  C_22 
REMARK       I    between atoms: N_8  and  C_28 
REMARK    4  A    between atoms: C_12  and  C_14 
REMARK    5  A    between atoms: C_14  and  C_22 
REMARK    6  A    between atoms: C_17  and  C_22 
REMARK    7  A    between atoms: C_21  and  C_28 
REMARK    8  A    between atoms: C_21  and  N_26 
ROOT
HETATM    1  C           1     -20.035  -7.362  -5.343  0.00  0.00     0.190 C 
ENDROOT
BRANCH   1   2
HETATM    2  N           1     -20.089  -6.905  -6.717  0.00  0.00    -0.344 N 
HETATM    3  C           1     -20.166  -5.565  -6.990  0.00  0.00     0.251 C 
HETATM    4  O           1     -19.157  -4.918  -7.132  0.00  0.00    -0.271 OA
HETATM    5  H           1     -20.068  -7.575  -7.474  0.00  0.00     0.163 HD
BRANCH   3   6
HETATM    6  C           1     -21.513  -4.898  -7.114  0.00  0.00     0.302 C 
BRANCH   6   7
HETATM    7  C           1     -21.996  -4.991  -8.556  0.00  0.00     0.153 C 
HETATM    8  C           1     -23.217  -4.099  -8.740  0.00  0.00     0.042 C 
BRANCH   7   9
HETATM    9  O           1     -20.975  -4.568  -9.419  0.00  0.00    -0.393 OA
HETATM   10  H           1     -21.376  -4.397 -10.255  0.00  0.00     0.210 HD
ENDBRANCH   7   9
ENDBRANCH   6   7
BRANCH   6  11
HETATM   11  N           1     -21.395  -3.455  -6.720  0.00  0.00    -0.064 N 
HETATM   12  H           1     -20.384  -3.202  -6.629  0.00  0.00     0.275 HD
HETATM   13  H           1     -21.840  -2.857  -7.452  0.00  0.00     0.275 HD
HETATM   14  H           1     -21.875  -3.302  -5.805  0.00  0.00     0.275 HD
ENDBRANCH   6  11
ENDBRANCH   3   6
ENDBRANCH   1   2
BRANCH   1  15
HETATM   15  C           1     -21.419  -7.830  -4.910  0.00  0.00     0.077 C 
BRANCH  15  16
HETATM   16  C           1     -21.728  -7.284  -3.550  0.00  0.00    -0.028 A 
HETATM   17  C           1     -21.834  -8.038  -2.349  0.00  0.00    -0.002 A 
HETATM   18  C           1     -22.133  -7.139  -1.324  0.00  0.00     0.042 A 
HETATM   19  C           1     -21.704  -9.405  -2.034  0.00  0.00     0.014 A 
HETATM   20  N           1     -22.204  -5.888  -1.893  0.00  0.00    -0.365 N 
HETATM   21  C           1     -22.309  -7.541   0.005  0.00  0.00     0.030 A 
HETATM   22  C           1     -21.961  -5.964  -3.239  0.00  0.00     0.096 A 
HETATM   23  H           1     -22.414  -5.002  -1.370  0.00  0.00     0.165 HD
HETATM   24  C           1     -22.174  -8.903   0.293  0.00  0.00     0.002 A 
HETATM   25  C           1     -21.876  -9.823  -0.709  0.00  0.00     0.001 A 
ENDBRANCH  15  16
ENDBRANCH   1  15
BRANCH   1  26
HETATM   26  C           1     -19.059  -8.508  -5.232  0.00  0.00     0.197 C 
HETATM   27  O           1     -18.756  -8.964  -4.109  0.00  0.00    -0.646 OA
HETATM   28  O           1     -18.553  -9.000  -6.264  0.00  0.00    -0.646 OA
ENDBRANCH   1  26
TORSDOF 8
ENDMDL
MODEL 4
REMARK VINA RESULT:      -7.1     14.029     16.870
REMARK  8 active torsions:
REMARK  status: ('A' for Active; 'I' for Inactive)
REMARK    1  A    between atoms: C_4  and  C_21 
REMARK    2  A    between atoms: C_4  and  O_6 
REMARK    3  A    between atoms: N_8  and  C_22 
REMARK       I    between atoms: N_8  and  C_28 
REMARK    4  A    between atoms: C_12  and  C_14 
REMARK    5  A    between atoms: C_14  and  C_22 
REMARK    6  A    between atoms: C_17  and  C_22 
REMARK    7  A    between atoms: C_21  and  C_28 
REMARK    8  A    between atoms: C_21  and  N_26 
ROOT
HETATM    1  C           1     -35.407  -2.041 -11.564  0.00  0.00     0.190 C 
ENDROOT
BRANCH   1   2
HETATM    2  N           1     -34.834  -1.377 -12.718  0.00  0.00    -0.344 N 
HETATM    3  C           1     -35.466  -0.294 -13.268  0.00  0.00     0.251 C 
HETATM    4  O           1     -35.208   0.819 -12.877  0.00  0.00    -0.271 OA
HETATM    5  H           1     -33.967  -1.712 -13.115  0.00  0.00     0.163 HD
BRANCH   3   6
HETATM    6  C           1     -36.485  -0.491 -14.362  0.00  0.00     0.302 C 
BRANCH   6   7
HETATM    7  C           1     -35.940   0.068 -15.671  0.00  0.00     0.153 C 
HETATM    8  C           1     -36.353  -0.842 -16.821  0.00  0.00     0.042 C 
BRANCH   7   9
HETATM    9  O           1     -36.458   1.352 -15.882  0.00  0.00    -0.393 OA
HETATM   10  H           1     -36.518   1.474 -16.815  0.00  0.00     0.210 HD
ENDBRANCH   7   9
ENDBRANCH   6   7
BRANCH   6  11
HETATM   11  N           1     -37.751   0.228 -14.002  0.00  0.00    -0.064 N 
HETATM   12  H           1     -38.137  -0.170 -13.116  0.00  0.00     0.275 HD
HETATM   13  H           1     -37.549   1.244 -13.870  0.00  0.00     0.275 HD
HETATM   14  H           1     -38.451   0.109 -14.769  0.00  0.00     0.275 HD
ENDBRANCH   6  11
ENDBRANCH   3   6
ENDBRANCH   1   2
BRANCH   1  15
HETATM   15  C           1     -34.300  -2.389 -10.577  0.00  0.00     0.077 C 
BRANCH  15  16
HETATM   16  C           1     -33.669  -3.688 -10.971  0.00  0.00    -0.028 A 
HETATM   17  C           1     -34.091  -4.983 -10.562  0.00  0.00    -0.002 A 
HETATM   18  C           1     -33.228  -5.904 -11.158  0.00  0.00     0.042 A 
HETATM   19  C           1     -35.129  -5.461  -9.739  0.00  0.00     0.014 A 
HETATM   20  N           1     -32.318  -5.183 -11.899  0.00  0.00    -0.365 N 
HETATM   21  C           1     -33.351  -7.285 -10.970  0.00  0.00     0.030 A 
HETATM   22  C           1     -32.575  -3.842 -11.793  0.00  0.00     0.096 A 
HETATM   23  H           1     -31.539  -5.603 -12.464  0.00  0.00     0.165 HD
HETATM   24  C           1     -34.390  -7.736 -10.149  0.00  0.00     0.002 A 
HETATM   25  C           1     -35.267  -6.840  -9.542  0.00  0.00     0.001 A 
ENDBRANCH  15  16
ENDBRANCH   1  15
BRANCH   1  26
HETATM   26  C           1     -36.405  -1.124 -10.900  0.00  0.00     0.197 C 
HETATM   27  O           1     -37.616  -1.195 -11.200  0.00  0.00    -0.646 OA
HETATM   28  O           1     -36.019  -0.292 -10.050  0.00  0.00    -0.646 OA
ENDBRANCH   1  26
TORSDOF 8
ENDMDL
MODEL 5
REMARK VINA RESULT:      -7.0      2.288      6.996
REMARK  8 active torsions:
REMARK  status: ('A' for Active; 'I' for Inactive)
REMARK    1  A    between atoms: C_4  and  C_21 
REMARK    2  A    between atoms: C_4  and  O_6 
REMARK    3  A    between atoms: N_8  and  C_22 
REMARK       I    between atoms: N_8  and  C_28 
REMARK    4  A    between atoms: C_12  and  C_14 
REMARK    5  A    between atoms: C_14  and  C_22 
REMARK    6  A    between atoms: C_17  and  C_22 
REMARK    7  A    between atoms: C_21  and  C_28 
REMARK    8  A    between atoms: C_21  and  N_26 
ROOT
HETATM    1  C           1     -19.912  -8.109  -4.935  0.00  0.00     0.190 C 
ENDROOT
BRANCH   1   2
HETATM    2  N           1     -19.891  -7.197  -6.062  0.00  0.00    -0.344 N 
HETATM    3  C           1     -20.542  -5.995  -5.981  0.00  0.00     0.251 C 
HETATM    4  O           1     -19.962  -5.019  -5.568  0.00  0.00    -0.271 OA
HETATM    5  H           1     -19.394  -7.447  -6.906  0.00  0.00     0.163 HD
BRANCH   3   6
HETATM    6  C           1     -21.985  -5.890  -6.409  0.00  0.00     0.302 C 
BRANCH   6   7
HETATM    7  C           1     -22.195  -4.588  -7.172  0.00  0.00     0.153 C 
HETATM    8  C           1     -21.650  -4.736  -8.587  0.00  0.00     0.042 C 
BRANCH   7   9
HETATM    9  O           1     -23.565  -4.295  -7.228  0.00  0.00    -0.393 OA
HETATM   10  H           1     -23.672  -3.419  -6.896  0.00  0.00     0.210 HD
ENDBRANCH   7   9
ENDBRANCH   6   7
BRANCH   6  11
HETATM   11  N           1     -22.868  -5.905  -5.197  0.00  0.00    -0.064 N 
HETATM   12  H           1     -22.277  -5.972  -4.337  0.00  0.00     0.275 HD
HETATM   13  H           1     -23.432  -5.026  -5.165  0.00  0.00     0.275 HD
HETATM   14  H           1     -23.510  -6.729  -5.243  0.00  0.00     0.275 HD
ENDBRANCH   6  11
ENDBRANCH   3   6
ENDBRANCH   1   2
BRANCH   1  15
HETATM   15  C           1     -21.227  -8.878  -4.930  0.00  0.00     0.077 C 
BRANCH  15  16
HETATM   16  C           1     -21.481  -9.424  -3.559  0.00  0.00    -0.028 A 
HETATM   17  C           1     -21.774  -8.662  -2.395  0.00  0.00    -0.002 A 
HETATM   18  C           1     -21.938  -9.565  -1.343  0.00  0.00     0.042 A 
HETATM   19  C           1     -21.915  -7.285  -2.133  0.00  0.00     0.014 A 
HETATM   20  N           1     -21.749 -10.827  -1.862  0.00  0.00    -0.365 N 
HETATM   21  C           1     -22.238  -9.159  -0.038  0.00  0.00     0.030 A 
HETATM   22  C           1     -21.472 -10.753  -3.201  0.00  0.00     0.096 A 
HETATM   23  H           1     -21.810 -11.718  -1.309  0.00  0.00     0.165 HD
HETATM   24  C           1     -22.373  -7.786   0.196  0.00  0.00     0.002 A 
HETATM   25  C           1     -22.215  -6.862  -0.833  0.00  0.00     0.001 A 
ENDBRANCH  15  16
ENDBRANCH   1  15
BRANCH   1  26
HETATM   26  C           1     -18.762  -9.079  -5.053  0.00  0.00     0.197 C 
HETATM   27  O           1     -18.034  -9.308  -4.063  0.00  0.00    -0.646 OA
HETATM   28  O           1     -18.537  -9.653  -6.140  0.00  0.00    -0.646 OA
ENDBRANCH   1  26
TORSDOF 8
ENDMDL
MODEL 6
REMARK VINA RESULT:      -7.0      2.494      7.608
REMARK  8 active torsions:
REMARK  status: ('A' for Active; 'I' for Inactive)
REMARK    1  A    between atoms: C_4  and  C_21 
REMARK    2  A    between atoms: C_4  and  O_6 
REMARK    3  A    between atoms: N_8  and  C_22 
REMARK       I    between atoms: N_8  and  C_28 
REMARK    4  A    between atoms: C_12  and  C_14 
REMARK    5  A    between atoms: C_14  and  C_22 
REMARK    6  A    between atoms: C_17  and  C_22 
REMARK    7  A    between atoms: C_21  and  C_28 
REMARK    8  A    between atoms: C_21  and  N_26 
ROOT
HETATM    1  C           1     -21.183  -7.605  -5.156  0.00  0.00     0.190 C 
ENDROOT
BRANCH   1   2
HETATM    2  N           1     -20.187  -6.974  -6.000  0.00  0.00    -0.344 N 
HETATM    3  C           1     -20.360  -5.680  -6.411  0.00  0.00     0.251 C 
HETATM    4  O           1     -19.930  -4.771  -5.742  0.00  0.00    -0.271 OA
HETATM    5  H           1     -19.365  -7.490  -6.283  0.00  0.00     0.163 HD
BRANCH   3   6
HETATM    6  C           1     -21.086  -5.390  -7.701  0.00  0.00     0.302 C 
BRANCH   6   7
HETATM    7  C           1     -20.110  -4.806  -8.715  0.00  0.00     0.153 C 
HETATM    8  C           1     -20.863  -4.422  -9.981  0.00  0.00     0.042 C 
BRANCH   7   9
HETATM    9  O           1     -19.498  -3.668  -8.172  0.00  0.00    -0.393 OA
HETATM   10  H           1     -18.881  -3.969  -7.526  0.00  0.00     0.210 HD
ENDBRANCH   7   9
ENDBRANCH   6   7
BRANCH   6  11
HETATM   11  N           1     -22.186  -4.403  -7.444  0.00  0.00    -0.064 N 
HETATM   12  H           1     -21.913  -3.470  -7.827  0.00  0.00     0.275 HD
HETATM   13  H           1     -23.063  -4.729  -7.910  0.00  0.00     0.275 HD
HETATM   14  H           1     -22.349  -4.321  -6.415  0.00  0.00     0.275 HD
ENDBRANCH   6  11
ENDBRANCH   3   6
ENDBRANCH   1   2
BRANCH   1  15
HETATM   15  C           1     -20.487  -8.436  -4.085  0.00  0.00     0.077 C 
BRANCH  15  16
HETATM   16  C           1     -21.374  -9.573  -3.680  0.00  0.00    -0.028 A 
HETATM   17  C           1     -22.038  -9.713  -2.431  0.00  0.00    -0.002 A 
HETATM   18  C           1     -22.754 -10.910  -2.478  0.00  0.00     0.042 A 
HETATM   19  C           1     -22.100  -8.933  -1.260  0.00  0.00     0.014 A 
HETATM   20  N           1     -22.524 -11.469  -3.715  0.00  0.00    -0.365 N 
HETATM   21  C           1     -23.531 -11.369  -1.408  0.00  0.00     0.030 A 
HETATM   22  C           1     -21.692 -10.668  -4.451  0.00  0.00     0.096 A 
HETATM   23  H           1     -22.931 -12.378  -4.047  0.00  0.00     0.165 HD
HETATM   24  C           1     -23.576 -10.576  -0.256  0.00  0.00     0.002 A 
HETATM   25  C           1     -22.873  -9.377  -0.180  0.00  0.00     0.001 A 
ENDBRANCH  15  16
ENDBRANCH   1  15
BRANCH   1  26
HETATM   26  C           1     -22.029  -6.543  -4.498  0.00  0.00     0.197 C 
HETATM   27  O           1     -23.095  -6.171  -5.035  0.00  0.00    -0.646 OA
HETATM   28  O           1     -21.664  -6.034  -3.416  0.00  0.00    -0.646 OA
ENDBRANCH   1  26
TORSDOF 8
ENDMDL
MODEL 7
REMARK VINA RESULT:      -6.8      4.257      8.118
REMARK  8 active torsions:
REMARK  status: ('A' for Active; 'I' for Inactive)
REMARK    1  A    between atoms: C_4  and  C_21 
REMARK    2  A    between atoms: C_4  and  O_6 
REMARK    3  A    between atoms: N_8  and  C_22 
REMARK       I    between atoms: N_8  and  C_28 
REMARK    4  A    between atoms: C_12  and  C_14 
REMARK    5  A    between atoms: C_14  and  C_22 
REMARK    6  A    between atoms: C_17  and  C_22 
REMARK    7  A    between atoms: C_21  and  C_28 
REMARK    8  A    between atoms: C_21  and  N_26 
ROOT
HETATM    1  C           1     -21.277  -7.838  -3.061  0.00  0.00     0.190 C 
ENDROOT
BRANCH   1   2
HETATM    2  N           1     -20.321  -7.993  -4.139  0.00  0.00    -0.344 N 
HETATM    3  C           1     -20.633  -8.766  -5.225  0.00  0.00     0.251 C 
HETATM    4  O           1     -21.177  -8.272  -6.183  0.00  0.00    -0.271 OA
HETATM    5  H           1     -19.424  -7.528  -4.091  0.00  0.00     0.163 HD
BRANCH   3   6
HETATM    6  C           1     -20.298 -10.237  -5.225  0.00  0.00     0.302 C 
BRANCH   6   7
HETATM    7  C           1     -18.811 -10.419  -5.504  0.00  0.00     0.153 C 
HETATM    8  C           1     -18.611 -11.620  -6.419  0.00  0.00     0.042 C 
BRANCH   7   9
HETATM    9  O           1     -18.308  -9.269  -6.128  0.00  0.00    -0.393 OA
HETATM   10  H           1     -17.465  -9.096  -5.744  0.00  0.00     0.210 HD
ENDBRANCH   7   9
ENDBRANCH   6   7
BRANCH   6  11
HETATM   11  N           1     -21.094 -10.932  -6.289  0.00  0.00    -0.064 N 
HETATM   12  H           1     -21.168 -10.312  -7.128  0.00  0.00     0.275 HD
HETATM   13  H           1     -20.618 -11.823  -6.555  0.00  0.00     0.275 HD
HETATM   14  H           1     -22.051 -11.143  -5.928  0.00  0.00     0.275 HD
ENDBRANCH   6  11
ENDBRANCH   3   6
ENDBRANCH   1   2
BRANCH   1  15
HETATM   15  C           1     -20.581  -8.081  -1.728  0.00  0.00     0.077 C 
BRANCH  15  16
HETATM   16  C           1     -20.664  -9.535  -1.378  0.00  0.00    -0.028 A 
HETATM   17  C           1     -21.796 -10.202  -0.835  0.00  0.00    -0.002 A 
HETATM   18  C           1     -21.441 -11.541  -0.664  0.00  0.00     0.042 A 
HETATM   19  C           1     -23.094  -9.794  -0.471  0.00  0.00     0.014 A 
HETATM   20  N           1     -20.138 -11.671  -1.091  0.00  0.00    -0.365 N 
HETATM   21  C           1     -22.323 -12.496  -0.145  0.00  0.00     0.030 A 
HETATM   22  C           1     -19.659 -10.463  -1.525  0.00  0.00     0.096 A 
HETATM   23  H           1     -19.592 -12.567  -1.086  0.00  0.00     0.165 HD
HETATM   24  C           1     -23.606 -12.067   0.209  0.00  0.00     0.002 A 
HETATM   25  C           1     -23.988 -10.737   0.049  0.00  0.00     0.001 A 
ENDBRANCH  15  16
ENDBRANCH   1  15
BRANCH   1  26
HETATM   26  C           1     -21.841  -6.438  -3.087  0.00  0.00     0.197 C 
HETATM   27  O           1     -22.327  -5.942  -2.048  0.00  0.00    -0.646 OA
HETATM   28  O           1     -21.822  -5.776  -4.147  0.00  0.00    -0.646 OA
ENDBRANCH   1  26
TORSDOF 8
ENDMDL
MODEL 8
REMARK VINA RESULT:      -6.8      2.226      3.076
REMARK  8 active torsions:
REMARK  status: ('A' for Active; 'I' for Inactive)
REMARK    1  A    between atoms: C_4  and  C_21 
REMARK    2  A    between atoms: C_4  and  O_6 
REMARK    3  A    between atoms: N_8  and  C_22 
REMARK       I    between atoms: N_8  and  C_28 
REMARK    4  A    between atoms: C_12  and  C_14 
REMARK    5  A    between atoms: C_14  and  C_22 
REMARK    6  A    between atoms: C_17  and  C_22 
REMARK    7  A    between atoms: C_21  and  C_28 
REMARK    8  A    between atoms: C_21  and  N_26 
ROOT
HETATM    1  C           1     -21.008  -9.284  -4.393  0.00  0.00     0.190 C 
ENDROOT
BRANCH   1   2
HETATM    2  N           1     -20.767  -9.742  -3.039  0.00  0.00    -0.344 N 
HETATM    3  C           1     -21.580  -9.323  -2.020  0.00  0.00     0.251 C 
HETATM    4  O           1     -22.568  -9.955  -1.736  0.00  0.00    -0.271 OA
HETATM    5  H           1     -20.000 -10.373  -2.848  0.00  0.00     0.163 HD
BRANCH   3   6
HETATM    6  C           1     -21.240  -8.070  -1.252  0.00  0.00     0.302 C 
BRANCH   6   7
HETATM    7  C           1     -20.991  -8.422   0.210  0.00  0.00     0.153 C 
HETATM    8  C           1     -22.177  -7.964   1.049  0.00  0.00     0.042 C 
BRANCH   7   9
HETATM    9  O           1     -20.837  -9.809   0.337  0.00  0.00    -0.393 OA
HETATM   10  H           1     -21.678 -10.157   0.581  0.00  0.00     0.210 HD
ENDBRANCH   7   9
ENDBRANCH   6   7
BRANCH   6  11
HETATM   11  N           1     -22.382  -7.101  -1.344  0.00  0.00    -0.064 N 
HETATM   12  H           1     -23.285  -7.618  -1.242  0.00  0.00     0.275 HD
HETATM   13  H           1     -22.298  -6.390  -0.584  0.00  0.00     0.275 HD
HETATM   14  H           1     -22.359  -6.622  -2.273  0.00  0.00     0.275 HD
ENDBRANCH   6  11
ENDBRANCH   3   6
ENDBRANCH   1   2
BRANCH   1  15
HETATM   15  C           1     -20.189  -8.025  -4.655  0.00  0.00     0.077 C 
BRANCH  15  16
HETATM   16  C           1     -21.079  -6.957  -5.212  0.00  0.00    -0.028 A 
HETATM   17  C           1     -20.723  -6.002  -6.202  0.00  0.00    -0.002 A 
HETATM   18  C           1     -21.844  -5.202  -6.425  0.00  0.00     0.042 A 
HETATM   19  C           1     -19.548  -5.739  -6.934  0.00  0.00     0.014 A 
HETATM   20  N           1     -22.840  -5.664  -5.593  0.00  0.00    -0.365 N 
HETATM   21  C           1     -21.850  -4.148  -7.346  0.00  0.00     0.030 A 
HETATM   22  C           1     -22.388  -6.725  -4.856  0.00  0.00     0.096 A 
HETATM   23  H           1     -23.808  -5.260  -5.535  0.00  0.00     0.165 HD
HETATM   24  C           1     -20.672  -3.907  -8.060  0.00  0.00     0.002 A 
HETATM   25  C           1     -19.537  -4.689  -7.860  0.00  0.00     0.001 A 
ENDBRANCH  15  16
ENDBRANCH   1  15
BRANCH   1  26
HETATM   26  C           1     -20.601 -10.361  -5.369  0.00  0.00     0.197 C 
HETATM   27  O           1     -21.349 -11.343  -5.562  0.00  0.00    -0.646 OA
HETATM   28  O           1     -19.515 -10.271  -5.983  0.00  0.00    -0.646 OA
ENDBRANCH   1  26
TORSDOF 8
ENDMDL
MODEL 9
REMARK VINA RESULT:      -6.8      3.224      6.824
REMARK  8 active torsions:
REMARK  status: ('A' for Active; 'I' for Inactive)
REMARK    1  A    between atoms: C_4  and  C_21 
REMARK    2  A    between atoms: C_4  and  O_6 
REMARK    3  A    between atoms: N_8  and  C_22 
REMARK       I    between atoms: N_8  and  C_28 
REMARK    4  A    between atoms: C_12  and  C_14 
REMARK    5  A    between atoms: C_14  and  C_22 
REMARK    6  A    between atoms: C_17  and  C_22 
REMARK    7  A    between atoms: C_21  and  C_28 
REMARK    8  A    between atoms: C_21  and  N_26 
ROOT
HETATM    1  C           1     -21.380  -7.785  -2.504  0.00  0.00     0.190 C 
ENDROOT
BRANCH   1   2
HETATM    2  N           1     -21.415  -6.449  -3.063  0.00  0.00    -0.344 N 
HETATM    3  C           1     -21.702  -6.269  -4.391  0.00  0.00     0.251 C 
HETATM    4  O           1     -22.846  -6.123  -4.747  0.00  0.00    -0.271 OA
HETATM    5  H           1     -21.231  -5.649  -2.473  0.00  0.00     0.163 HD
BRANCH   3   6
HETATM    6  C           1     -20.587  -6.255  -5.407  0.00  0.00     0.302 C 
BRANCH   6   7
HETATM    7  C           1     -20.451  -4.855  -5.992  0.00  0.00     0.153 C 
HETATM    8  C           1     -19.296  -4.831  -6.984  0.00  0.00     0.042 C 
BRANCH   7   9
HETATM    9  O           1     -21.639  -4.506  -6.650  0.00  0.00    -0.393 OA
HETATM   10  H           1     -21.680  -3.564  -6.661  0.00  0.00     0.210 HD
ENDBRANCH   7   9
ENDBRANCH   6   7
BRANCH   6  11
HETATM   11  N           1     -20.901  -7.227  -6.506  0.00  0.00    -0.064 N 
HETATM   12  H           1     -21.931  -7.400  -6.533  0.00  0.00     0.275 HD
HETATM   13  H           1     -20.589  -6.830  -7.421  0.00  0.00     0.275 HD
HETATM   14  H           1     -20.402  -8.128  -6.329  0.00  0.00     0.275 HD
ENDBRANCH   6  11
ENDBRANCH   3   6
ENDBRANCH   1   2
BRANCH   1  15
HETATM   15  C           1     -19.934  -8.184  -2.235  0.00  0.00     0.077 C 
BRANCH  15  16
HETATM   16  C           1     -19.492  -9.183  -3.259  0.00  0.00    -0.028 A 
HETATM   17  C           1     -18.163  -9.650  -3.455  0.00  0.00    -0.002 A 
HETATM   18  C           1     -18.201 -10.567  -4.507  0.00  0.00     0.042 A 
HETATM   19  C           1     -16.927  -9.379  -2.837  0.00  0.00     0.014 A 
HETATM   20  N           1     -19.510 -10.646  -4.927  0.00  0.00    -0.365 N 
HETATM   21  C           1     -17.060 -11.229  -4.973  0.00  0.00     0.030 A 
HETATM   22  C           1     -20.299  -9.813  -4.179  0.00  0.00     0.096 A 
HETATM   23  H           1     -19.853 -11.258  -5.708  0.00  0.00     0.165 HD
HETATM   24  C           1     -15.844 -10.944  -4.342  0.00  0.00     0.002 A 
HETATM   25  C           1     -15.776 -10.034  -3.291  0.00  0.00     0.001 A 
ENDBRANCH  15  16
ENDBRANCH   1  15
BRANCH   1  26
HETATM   26  C           1     -22.158  -7.811  -1.211  0.00  0.00     0.197 C 
HETATM   27  O           1     -22.696  -6.766  -0.785  0.00  0.00    -0.646 OA
HETATM   28  O           1     -22.264  -8.877  -0.566  0.00  0.00    -0.646 OA
ENDBRANCH   1  26
TORSDOF 8
ENDMDL
