MODEL 1
REMARK VINA RESULT:      -6.0      0.000      0.000
REMARK  9 active torsions:
REMARK  status: ('A' for Active; 'I' for Inactive)
REMARK    1  A    between atoms: C_2  and  C_15 
REMARK    2  A    between atoms: C_2  and  C_3 
REMARK    3  A    between atoms: C_3  and  C_10 
REMARK    4  A    between atoms: C_3  and  N_4 
REMARK       I    between atoms: N_4  and  C_5 
REMARK    5  A    between atoms: C_5  and  C_6 
REMARK    6  A    between atoms: C_6  and  C_17 
REMARK    7  A    between atoms: C_6  and  N_18 
REMARK    8  A    between atoms: S_12  and  C_16 
REMARK    9  A    between atoms: C_16  and  C_17 
ROOT
HETATM    1  N           1     -35.538  -1.724 -12.153  0.00  0.00    -0.344 N 
HETATM    2  C           1     -34.623  -2.524 -11.524  0.00  0.00     0.249 C 
HETATM    3  H           1     -36.240  -2.136 -12.755  0.00  0.00     0.163 HD
HETATM    4  O           1     -33.785  -2.032 -10.805  0.00  0.00    -0.271 OA
ENDROOT
BRANCH   2   5
HETATM    5  C           1     -34.659  -4.018 -11.726  0.00  0.00     0.275 C 
BRANCH   5   6
HETATM    6  C           1     -33.943  -4.706 -10.572  0.00  0.00     0.053 C 
BRANCH   6   7
HETATM    7  C           1     -33.749  -6.180 -10.900  0.00  0.00     0.076 C 
BRANCH   7   8
HETATM    8  S           1     -34.935  -7.173  -9.949  0.00  0.00    -0.173 SA
HETATM    9  C           1     -33.903  -8.662  -9.838  0.00  0.00     0.089 C 
ENDBRANCH   7   8
ENDBRANCH   6   7
ENDBRANCH   5   6
BRANCH   5  10
HETATM   10  N           1     -33.975  -4.364 -13.015  0.00  0.00    -0.066 N 
HETATM   11  H           1     -33.414  -3.545 -13.343  0.00  0.00     0.275 HD
HETATM   12  H           1     -33.341  -5.181 -12.864  0.00  0.00     0.275 HD
HETATM   13  H           1     -34.691  -4.606 -13.736  0.00  0.00     0.275 HD
ENDBRANCH   5  10
ENDBRANCH   2   5
BRANCH   1  14
HETATM   14  C           1     -35.502  -0.288 -11.958  0.00  0.00     0.195 C 
BRANCH  14  15
HETATM   15  C           1     -35.669   0.410 -13.301  0.00  0.00     0.149 C 
BRANCH  15  16
HETATM   16  C           1     -36.094  -0.596 -14.343  0.00  0.00     0.175 C 
HETATM   17  O           1     -37.305  -0.736 -14.620  0.00  0.00    -0.648 OA
HETATM   18  O           1     -35.235  -1.290 -14.929  0.00  0.00    -0.648 OA
ENDBRANCH  15  16
ENDBRANCH  14  15
BRANCH  14  19
HETATM   19  C           1     -36.623   0.121 -11.035  0.00  0.00     0.197 C 
HETATM   20  O           1     -36.402   0.283  -9.815  0.00  0.00    -0.646 OA
HETATM   21  O           1     -37.774   0.299 -11.489  0.00  0.00    -0.646 OA
ENDBRANCH  14  19
ENDBRANCH   1  14
TORSDOF 9
ENDMDL
MODEL 2
REMARK VINA RESULT:      -5.6     12.526     14.184
REMARK  9 active torsions:
REMARK  status: ('A' for Active; 'I' for Inactive)
REMARK    1  A    between atoms: C_2  and  C_15 
REMARK    2  A    between atoms: C_2  and  C_3 
REMARK    3  A    between atoms: C_3  and  C_10 
REMARK    4  A    between atoms: C_3  and  N_4 
REMARK       I    between atoms: N_4  and  C_5 
REMARK    5  A    between atoms: C_5  and  C_6 
REMARK    6  A    between atoms: C_6  and  C_17 
REMARK    7  A    between atoms: C_6  and  N_18 
REMARK    8  A    between atoms: S_12  and  C_16 
REMARK    9  A    between atoms: C_16  and  C_17 
ROOT
HETATM    1  N           1     -22.244  -4.178  -9.288  0.00  0.00    -0.344 N 
HETATM    2  C           1     -21.370  -4.569  -8.310  0.00  0.00     0.249 C 
HETATM    3  H           1     -23.065  -3.638  -9.046  0.00  0.00     0.163 HD
HETATM    4  O           1     -20.389  -5.213  -8.599  0.00  0.00    -0.271 OA
ENDROOT
BRANCH   2   5
HETATM    5  C           1     -21.631  -4.197  -6.871  0.00  0.00     0.275 C 
BRANCH   5   6
HETATM    6  C           1     -20.498  -4.720  -5.997  0.00  0.00     0.053 C 
BRANCH   6   7
HETATM    7  C           1     -21.051  -5.725  -4.997  0.00  0.00     0.076 C 
BRANCH   7   8
HETATM    8  S           1     -20.366  -7.369  -5.348  0.00  0.00    -0.173 SA
HETATM    9  C           1     -21.533  -8.296  -4.311  0.00  0.00     0.089 C 
ENDBRANCH   7   8
ENDBRANCH   6   7
ENDBRANCH   5   6
BRANCH   5  10
HETATM   10  N           1     -22.927  -4.805  -6.425  0.00  0.00    -0.066 N 
HETATM   11  H           1     -23.444  -5.173  -7.256  0.00  0.00     0.275 HD
HETATM   12  H           1     -22.733  -5.589  -5.762  0.00  0.00     0.275 HD
HETATM   13  H           1     -23.507  -4.078  -5.949  0.00  0.00     0.275 HD
ENDBRANCH   5  10
ENDBRANCH   2   5
BRANCH   1  14
HETATM   14  C           1     -21.994  -4.536 -10.670  0.00  0.00     0.195 C 
BRANCH  14  15
HETATM   15  C           1     -23.320  -4.742 -11.389  0.00  0.00     0.149 C 
BRANCH  15  16
HETATM   16  C           1     -24.445  -4.216 -10.531  0.00  0.00     0.175 C 
HETATM   17  O           1     -24.924  -4.928  -9.622  0.00  0.00    -0.648 OA
HETATM   18  O           1     -24.898  -3.067 -10.730  0.00  0.00    -0.648 OA
ENDBRANCH  15  16
ENDBRANCH  14  15
BRANCH  14  19
HETATM   19  C           1     -21.222  -3.428 -11.344  0.00  0.00     0.197 C 
HETATM   20  O           1     -19.982  -3.519 -11.474  0.00  0.00    -0.646 OA
HETATM   21  O           1     -21.822  -2.420 -11.773  0.00  0.00    -0.646 OA
ENDBRANCH  14  19
ENDBRANCH   1  14
TORSDOF 9
ENDMDL
MODEL 3
REMARK VINA RESULT:      -5.4     12.635     14.223
REMARK  9 active torsions:
REMARK  status: ('A' for Active; 'I' for Inactive)
REMARK    1  A    between atoms: C_2  and  C_15 
REMARK    2  A    between atoms: C_2  and  C_3 
REMARK    3  A    between atoms: C_3  and  C_10 
REMARK    4  A    between atoms: C_3  and  N_4 
REMARK       I    between atoms: N_4  and  C_5 
REMARK    5  A    between atoms: C_5  and  C_6 
REMARK    6  A    between atoms: C_6  and  C_17 
REMARK    7  A    between atoms: C_6  and  N_18 
REMARK    8  A    between atoms: S_12  and  C_16 
REMARK    9  A    between atoms: C_16  and  C_17 
ROOT
HETATM    1  N           1     -22.449  -4.772  -8.915  0.00  0.00    -0.344 N 
HETATM    2  C           1     -21.814  -4.714  -7.704  0.00  0.00     0.249 C 
HETATM    3  H           1     -22.516  -5.652  -9.409  0.00  0.00     0.163 HD
HETATM    4  O           1     -21.735  -3.664  -7.113  0.00  0.00    -0.271 OA
ENDROOT
BRANCH   2   5
HETATM    5  C           1     -21.214  -5.963  -7.106  0.00  0.00     0.275 C 
BRANCH   5   6
HETATM    6  C           1     -21.254  -5.869  -5.586  0.00  0.00     0.053 C 
BRANCH   6   7
HETATM    7  C           1     -20.418  -6.990  -4.986  0.00  0.00     0.076 C 
BRANCH   7   8
HETATM    8  S           1     -21.342  -7.781  -3.638  0.00  0.00    -0.173 SA
HETATM    9  C           1     -21.680  -6.259  -2.708  0.00  0.00     0.089 C 
ENDBRANCH   7   8
ENDBRANCH   6   7
ENDBRANCH   5   6
BRANCH   5  10
HETATM   10  N           1     -19.791  -6.099  -7.560  0.00  0.00    -0.066 N 
HETATM   11  H           1     -19.598  -7.096  -7.808  0.00  0.00     0.275 HD
HETATM   12  H           1     -19.635  -5.496  -8.400  0.00  0.00     0.275 HD
HETATM   13  H           1     -19.150  -5.801  -6.791  0.00  0.00     0.275 HD
ENDBRANCH   5  10
ENDBRANCH   2   5
BRANCH   1  14
HETATM   14  C           1     -23.026  -3.572  -9.489  0.00  0.00     0.195 C 
BRANCH  14  15
HETATM   15  C           1     -22.120  -3.055 -10.598  0.00  0.00     0.149 C 
BRANCH  15  16
HETATM   16  C           1     -21.405  -4.215 -11.247  0.00  0.00     0.175 C 
HETATM   17  O           1     -20.231  -4.490 -10.917  0.00  0.00    -0.648 OA
HETATM   18  O           1     -21.987  -4.902 -12.115  0.00  0.00    -0.648 OA
ENDBRANCH  15  16
ENDBRANCH  14  15
BRANCH  14  19
HETATM   19  C           1     -24.387  -3.891 -10.058  0.00  0.00     0.197 C 
HETATM   20  O           1     -24.955  -4.962  -9.755  0.00  0.00    -0.646 OA
HETATM   21  O           1     -24.946  -3.085 -10.831  0.00  0.00    -0.646 OA
ENDBRANCH  14  19
ENDBRANCH   1  14
TORSDOF 9
ENDMDL
MODEL 4
REMARK VINA RESULT:      -5.1     12.797     14.459
REMARK  9 active torsions:
REMARK  status: ('A' for Active; 'I' for Inactive)
REMARK    1  A    between atoms: C_2  and  C_15 
REMARK    2  A    between atoms: C_2  and  C_3 
REMARK    3  A    between atoms: C_3  and  C_10 
REMARK    4  A    between atoms: C_3  and  N_4 
REMARK       I    between atoms: N_4  and  C_5 
REMARK    5  A    between atoms: C_5  and  C_6 
REMARK    6  A    between atoms: C_6  and  C_17 
REMARK    7  A    between atoms: C_6  and  N_18 
REMARK    8  A    between atoms: S_12  and  C_16 
REMARK    9  A    between atoms: C_16  and  C_17 
ROOT
HETATM    1  N           1     -22.587  -4.806  -8.199  0.00  0.00    -0.344 N 
HETATM    2  C           1     -21.838  -4.367  -7.141  0.00  0.00     0.249 C 
HETATM    3  H           1     -22.976  -5.740  -8.191  0.00  0.00     0.163 HD
HETATM    4  O           1     -21.375  -3.251  -7.151  0.00  0.00    -0.271 OA
ENDROOT
BRANCH   2   5
HETATM    5  C           1     -21.592  -5.275  -5.962  0.00  0.00     0.275 C 
BRANCH   5   6
HETATM    6  C           1     -20.697  -6.431  -6.388  0.00  0.00     0.053 C 
BRANCH   6   7
HETATM    7  C           1     -21.219  -7.728  -5.785  0.00  0.00     0.076 C 
BRANCH   7   8
HETATM    8  S           1     -20.255  -8.139  -4.303  0.00  0.00    -0.173 SA
HETATM    9  C           1     -19.009  -9.151  -5.151  0.00  0.00     0.089 C 
ENDBRANCH   7   8
ENDBRANCH   6   7
ENDBRANCH   5   6
BRANCH   5  10
HETATM   10  N           1     -22.901  -5.814  -5.466  0.00  0.00    -0.066 N 
HETATM   11  H           1     -23.099  -6.730  -5.929  0.00  0.00     0.275 HD
HETATM   12  H           1     -22.850  -5.953  -4.431  0.00  0.00     0.275 HD
HETATM   13  H           1     -23.665  -5.138  -5.691  0.00  0.00     0.275 HD
ENDBRANCH   5  10
ENDBRANCH   2   5
BRANCH   1  14
HETATM   14  C           1     -22.823  -3.932  -9.332  0.00  0.00     0.195 C 
BRANCH  14  15
HETATM   15  C           1     -22.135  -4.504 -10.565  0.00  0.00     0.149 C 
BRANCH  15  16
HETATM   16  C           1     -20.677  -4.112 -10.556  0.00  0.00     0.175 C 
HETATM   17  O           1     -20.300  -3.094 -11.175  0.00  0.00    -0.648 OA
HETATM   18  O           1     -19.848  -4.806  -9.929  0.00  0.00    -0.648 OA
ENDBRANCH  15  16
ENDBRANCH  14  15
BRANCH  14  19
HETATM   19  C           1     -24.307  -3.829  -9.586  0.00  0.00     0.197 C 
HETATM   20  O           1     -24.880  -2.721  -9.502  0.00  0.00    -0.646 OA
HETATM   21  O           1     -24.964  -4.850  -9.881  0.00  0.00    -0.646 OA
ENDBRANCH  14  19
ENDBRANCH   1  14
TORSDOF 9
ENDMDL
MODEL 5
REMARK VINA RESULT:      -5.0     26.569     27.491
REMARK  9 active torsions:
REMARK  status: ('A' for Active; 'I' for Inactive)
REMARK    1  A    between atoms: C_2  and  C_15 
REMARK    2  A    between atoms: C_2  and  C_3 
REMARK    3  A    between atoms: C_3  and  C_10 
REMARK    4  A    between atoms: C_3  and  N_4 
REMARK       I    between atoms: N_4  and  C_5 
REMARK    5  A    between atoms: C_5  and  C_6 
REMARK    6  A    between atoms: C_6  and  C_17 
REMARK    7  A    between atoms: C_6  and  N_18 
REMARK    8  A    between atoms: S_12  and  C_16 
REMARK    9  A    between atoms: C_16  and  C_17 
ROOT
HETATM    1  N           1     -10.621   7.392 -20.659  0.00  0.00    -0.344 N 
HETATM    2  C           1     -10.568   6.111 -21.139  0.00  0.00     0.249 C 
HETATM    3  H           1     -10.367   7.583 -19.699  0.00  0.00     0.163 HD
HETATM    4  O           1     -10.871   5.884 -22.286  0.00  0.00    -0.271 OA
ENDROOT
BRANCH   2   5
HETATM    5  C           1     -10.130   4.984 -20.237  0.00  0.00     0.275 C 
BRANCH   5   6
HETATM    6  C           1     -11.353   4.218 -19.750  0.00  0.00     0.053 C 
BRANCH   6   7
HETATM    7  C           1     -11.498   2.931 -20.550  0.00  0.00     0.076 C 
BRANCH   7   8
HETATM    8  S           1     -13.120   2.903 -21.366  0.00  0.00    -0.173 SA
HETATM    9  C           1     -13.801   4.349 -20.505  0.00  0.00     0.089 C 
ENDBRANCH   7   8
ENDBRANCH   6   7
ENDBRANCH   5   6
BRANCH   5  10
HETATM   10  N           1      -9.392   5.547 -19.059  0.00  0.00    -0.066 N 
HETATM   11  H           1      -9.186   6.557 -19.226  0.00  0.00     0.275 HD
HETATM   12  H           1      -9.981   5.450 -18.201  0.00  0.00     0.275 HD
HETATM   13  H           1      -8.496   5.026 -18.929  0.00  0.00     0.275 HD
ENDBRANCH   5  10
ENDBRANCH   2   5
BRANCH   1  14
HETATM   14  C           1     -11.042   8.475 -21.527  0.00  0.00     0.195 C 
BRANCH  14  15
HETATM   15  C           1     -12.160   9.260 -20.852  0.00  0.00     0.149 C 
BRANCH  15  16
HETATM   16  C           1     -12.391   8.715 -19.464  0.00  0.00     0.175 C 
HETATM   17  O           1     -13.224   7.800 -19.282  0.00  0.00    -0.648 OA
HETATM   18  O           1     -11.750   9.178 -18.496  0.00  0.00    -0.648 OA
ENDBRANCH  15  16
ENDBRANCH  14  15
BRANCH  14  19
HETATM   19  C           1      -9.872   9.390 -21.791  0.00  0.00     0.197 C 
HETATM   20  O           1      -9.776   9.983 -22.887  0.00  0.00    -0.646 OA
HETATM   21  O           1      -8.998   9.558 -20.913  0.00  0.00    -0.646 OA
ENDBRANCH  14  19
ENDBRANCH   1  14
TORSDOF 9
ENDMDL
MODEL 6
REMARK VINA RESULT:      -5.0     14.262     16.769
REMARK  9 active torsions:
REMARK  status: ('A' for Active; 'I' for Inactive)
REMARK    1  A    between atoms: C_2  and  C_15 
REMARK    2  A    between atoms: C_2  and  C_3 
REMARK    3  A    between atoms: C_3  and  C_10 
REMARK    4  A    between atoms: C_3  and  N_4 
REMARK       I    between atoms: N_4  and  C_5 
REMARK    5  A    between atoms: C_5  and  C_6 
REMARK    6  A    between atoms: C_6  and  C_17 
REMARK    7  A    between atoms: C_6  and  N_18 
REMARK    8  A    between atoms: S_12  and  C_16 
REMARK    9  A    between atoms: C_16  and  C_17 
ROOT
HETATM    1  N           1     -20.961  -6.780  -4.747  0.00  0.00    -0.344 N 
HETATM    2  C           1     -21.548  -5.883  -5.597  0.00  0.00     0.249 C 
HETATM    3  H           1     -19.960  -6.930  -4.781  0.00  0.00     0.163 HD
HETATM    4  O           1     -22.741  -5.704  -5.556  0.00  0.00    -0.271 OA
ENDROOT
BRANCH   2   5
HETATM    5  C           1     -20.704  -5.117  -6.586  0.00  0.00     0.275 C 
BRANCH   5   6
HETATM    6  C           1     -21.607  -4.290  -7.492  0.00  0.00     0.053 C 
BRANCH   6   7
HETATM    7  C           1     -21.003  -4.225  -8.888  0.00  0.00     0.076 C 
BRANCH   7   8
HETATM    8  S           1     -22.303  -3.833 -10.093  0.00  0.00    -0.173 SA
HETATM    9  C           1     -23.698  -4.003  -8.944  0.00  0.00     0.089 C 
ENDBRANCH   7   8
ENDBRANCH   6   7
ENDBRANCH   5   6
BRANCH   5  10
HETATM   10  N           1     -19.910  -6.081  -7.417  0.00  0.00    -0.066 N 
HETATM   11  H           1     -20.541  -6.832  -7.777  0.00  0.00     0.275 HD
HETATM   12  H           1     -19.481  -5.572  -8.223  0.00  0.00     0.275 HD
HETATM   13  H           1     -19.158  -6.508  -6.831  0.00  0.00     0.275 HD
ENDBRANCH   5  10
ENDBRANCH   2   5
BRANCH   1  14
HETATM   14  C           1     -21.771  -7.517  -3.797  0.00  0.00     0.195 C 
BRANCH  14  15
HETATM   15  C           1     -21.302  -8.964  -3.743  0.00  0.00     0.149 C 
BRANCH  15  16
HETATM   16  C           1     -20.437  -9.257  -4.945  0.00  0.00     0.175 C 
HETATM   17  O           1     -20.963  -9.613  -6.022  0.00  0.00    -0.648 OA
HETATM   18  O           1     -19.195  -9.145  -4.864  0.00  0.00    -0.648 OA
ENDBRANCH  15  16
ENDBRANCH  14  15
BRANCH  14  19
HETATM   19  C           1     -21.635  -6.892  -2.430  0.00  0.00     0.197 C 
HETATM   20  O           1     -20.874  -7.405  -1.581  0.00  0.00    -0.646 OA
HETATM   21  O           1     -22.281  -5.861  -2.145  0.00  0.00    -0.646 OA
ENDBRANCH  14  19
ENDBRANCH   1  14
TORSDOF 9
ENDMDL
MODEL 7
REMARK VINA RESULT:      -4.9     13.108     14.866
REMARK  9 active torsions:
REMARK  status: ('A' for Active; 'I' for Inactive)
REMARK    1  A    between atoms: C_2  and  C_15 
REMARK    2  A    between atoms: C_2  and  C_3 
REMARK    3  A    between atoms: C_3  and  C_10 
REMARK    4  A    between atoms: C_3  and  N_4 
REMARK       I    between atoms: N_4  and  C_5 
REMARK    5  A    between atoms: C_5  and  C_6 
REMARK    6  A    between atoms: C_6  and  C_17 
REMARK    7  A    between atoms: C_6  and  N_18 
REMARK    8  A    between atoms: S_12  and  C_16 
REMARK    9  A    between atoms: C_16  and  C_17 
ROOT
HETATM    1  N           1     -22.032  -4.684  -7.240  0.00  0.00    -0.344 N 
HETATM    2  C           1     -21.474  -5.788  -6.655  0.00  0.00     0.249 C 
HETATM    3  H           1     -22.434  -3.955  -6.665  0.00  0.00     0.163 HD
HETATM    4  O           1     -20.992  -6.657  -7.342  0.00  0.00    -0.271 OA
ENDROOT
BRANCH   2   5
HETATM    5  C           1     -21.458  -5.919  -5.152  0.00  0.00     0.275 C 
BRANCH   5   6
HETATM    6  C           1     -20.596  -7.110  -4.754  0.00  0.00     0.053 C 
BRANCH   6   7
HETATM    7  C           1     -21.391  -8.030  -3.838  0.00  0.00     0.076 C 
BRANCH   7   8
HETATM    8  S           1     -20.822  -7.822  -2.127  0.00  0.00    -0.173 SA
HETATM    9  C           1     -21.880  -9.110  -1.407  0.00  0.00     0.089 C 
ENDBRANCH   7   8
ENDBRANCH   6   7
ENDBRANCH   5   6
BRANCH   5  10
HETATM   10  N           1     -22.858  -6.129  -4.655  0.00  0.00    -0.066 N 
HETATM   11  H           1     -22.837  -6.714  -3.790  0.00  0.00     0.275 HD
HETATM   12  H           1     -23.291  -5.202  -4.437  0.00  0.00     0.275 HD
HETATM   13  H           1     -23.420  -6.614  -5.390  0.00  0.00     0.275 HD
ENDBRANCH   5  10
ENDBRANCH   2   5
BRANCH   1  14
HETATM   14  C           1     -22.046  -4.558  -8.684  0.00  0.00     0.195 C 
BRANCH  14  15
HETATM   15  C           1     -23.078  -3.515  -9.092  0.00  0.00     0.149 C 
BRANCH  15  16
HETATM   16  C           1     -23.968  -4.082 -10.171  0.00  0.00     0.175 C 
HETATM   17  O           1     -23.844  -5.277 -10.521  0.00  0.00    -0.648 OA
HETATM   18  O           1     -24.829  -3.358 -10.716  0.00  0.00    -0.648 OA
ENDBRANCH  15  16
ENDBRANCH  14  15
BRANCH  14  19
HETATM   19  C           1     -20.681  -4.131  -9.165  0.00  0.00     0.197 C 
HETATM   20  O           1     -19.850  -3.668  -8.355  0.00  0.00    -0.646 OA
HETATM   21  O           1     -20.381  -4.240 -10.373  0.00  0.00    -0.646 OA
ENDBRANCH  14  19
ENDBRANCH   1  14
TORSDOF 9
ENDMDL
MODEL 8
REMARK VINA RESULT:      -4.9     25.681     26.635
REMARK  9 active torsions:
REMARK  status: ('A' for Active; 'I' for Inactive)
REMARK    1  A    between atoms: C_2  and  C_15 
REMARK    2  A    between atoms: C_2  and  C_3 
REMARK    3  A    between atoms: C_3  and  C_10 
REMARK    4  A    between atoms: C_3  and  N_4 
REMARK       I    between atoms: N_4  and  C_5 
REMARK    5  A    between atoms: C_5  and  C_6 
REMARK    6  A    between atoms: C_6  and  C_17 
REMARK    7  A    between atoms: C_6  and  N_18 
REMARK    8  A    between atoms: S_12  and  C_16 
REMARK    9  A    between atoms: C_16  and  C_17 
ROOT
HETATM    1  N           1     -12.803   6.850 -21.644  0.00  0.00    -0.344 N 
HETATM    2  C           1     -13.577   6.002 -20.899  0.00  0.00     0.249 C 
HETATM    3  H           1     -12.806   6.781 -22.654  0.00  0.00     0.163 HD
HETATM    4  O           1     -13.575   6.085 -19.694  0.00  0.00    -0.271 OA
ENDROOT
BRANCH   2   5
HETATM    5  C           1     -14.435   4.966 -21.582  0.00  0.00     0.275 C 
BRANCH   5   6
HETATM    6  C           1     -13.546   3.990 -22.342  0.00  0.00     0.053 C 
BRANCH   6   7
HETATM    7  C           1     -13.180   2.824 -21.435  0.00  0.00     0.076 C 
BRANCH   7   8
HETATM    8  S           1     -11.463   3.008 -20.874  0.00  0.00    -0.173 SA
HETATM    9  C           1     -10.861   3.870 -22.354  0.00  0.00     0.089 C 
ENDBRANCH   7   8
ENDBRANCH   6   7
ENDBRANCH   5   6
BRANCH   5  10
HETATM   10  N           1     -15.367   5.644 -22.542  0.00  0.00    -0.066 N 
HETATM   11  H           1     -16.145   4.992 -22.791  0.00  0.00     0.275 HD
HETATM   12  H           1     -15.763   6.502 -22.094  0.00  0.00     0.275 HD
HETATM   13  H           1     -14.845   5.909 -23.407  0.00  0.00     0.275 HD
ENDBRANCH   5  10
ENDBRANCH   2   5
BRANCH   1  14
HETATM   14  C           1     -11.979   7.845 -20.988  0.00  0.00     0.195 C 
BRANCH  14  15
HETATM   15  C           1     -10.515   7.595 -21.326  0.00  0.00     0.149 C 
BRANCH  15  16
HETATM   16  C           1      -9.847   6.886 -20.173  0.00  0.00     0.175 C 
HETATM   17  O           1     -10.355   6.931 -19.032  0.00  0.00    -0.648 OA
HETATM   18  O           1      -8.785   6.253 -20.360  0.00  0.00    -0.648 OA
ENDBRANCH  15  16
ENDBRANCH  14  15
BRANCH  14  19
HETATM   19  C           1     -12.378   9.221 -21.464  0.00  0.00     0.197 C 
HETATM   20  O           1     -13.510   9.407 -21.959  0.00  0.00    -0.646 OA
HETATM   21  O           1     -11.576  10.174 -21.363  0.00  0.00    -0.646 OA
ENDBRANCH  14  19
ENDBRANCH   1  14
TORSDOF 9
ENDMDL
MODEL 9
REMARK VINA RESULT:      -4.9     25.921     26.807
REMARK  9 active torsions:
REMARK  status: ('A' for Active; 'I' for Inactive)
REMARK    1  A    between atoms: C_2  and  C_15 
REMARK    2  A    between atoms: C_2  and  C_3 
REMARK    3  A    between atoms: C_3  and  C_10 
REMARK    4  A    between atoms: C_3  and  N_4 
REMARK       I    between atoms: N_4  and  C_5 
REMARK    5  A    between atoms: C_5  and  C_6 
REMARK    6  A    between atoms: C_6  and  C_17 
REMARK    7  A    between atoms: C_6  and  N_18 
REMARK    8  A    between atoms: S_12  and  C_16 
REMARK    9  A    between atoms: C_16  and  C_17 
ROOT
HETATM    1  N           1     -12.065   8.008 -20.659  0.00  0.00    -0.344 N 
HETATM    2  C           1     -12.817   6.889 -20.896  0.00  0.00     0.249 C 
HETATM    3  H           1     -11.641   8.506 -21.431  0.00  0.00     0.163 HD
HETATM    4  O           1     -13.323   6.296 -19.975  0.00  0.00    -0.271 OA
ENDROOT
BRANCH   2   5
HETATM    5  C           1     -13.013   6.398 -22.309  0.00  0.00     0.275 C 
BRANCH   5   6
HETATM    6  C           1     -13.939   5.189 -22.303  0.00  0.00     0.053 C 
BRANCH   6   7
HETATM    7  C           1     -13.154   3.946 -22.698  0.00  0.00     0.076 C 
BRANCH   7   8
HETATM    8  S           1     -13.238   2.724 -21.358  0.00  0.00    -0.173 SA
HETATM    9  C           1     -11.649   3.156 -20.594  0.00  0.00     0.089 C 
ENDBRANCH   7   8
ENDBRANCH   6   7
ENDBRANCH   5   6
BRANCH   5  10
HETATM   10  N           1     -11.687   6.009 -22.891  0.00  0.00    -0.066 N 
HETATM   11  H           1     -11.837   5.508 -23.796  0.00  0.00     0.275 HD
HETATM   12  H           1     -11.116   6.868 -23.060  0.00  0.00     0.275 HD
HETATM   13  H           1     -11.185   5.380 -22.225  0.00  0.00     0.275 HD
ENDBRANCH   5  10
ENDBRANCH   2   5
BRANCH   1  14
HETATM   14  C           1     -11.876   8.480 -19.301  0.00  0.00     0.195 C 
BRANCH  14  15
HETATM   15  C           1     -10.492   9.101 -19.168  0.00  0.00     0.149 C 
BRANCH  15  16
HETATM   16  C           1      -9.727   8.907 -20.455  0.00  0.00     0.175 C 
HETATM   17  O           1      -9.746   9.796 -21.333  0.00  0.00    -0.648 OA
HETATM   18  O           1      -9.074   7.857 -20.642  0.00  0.00    -0.648 OA
ENDBRANCH  15  16
ENDBRANCH  14  15
BRANCH  14  19
HETATM   19  C           1     -12.926   9.515 -18.979  0.00  0.00     0.197 C 
HETATM   20  O           1     -13.357   9.626 -17.811  0.00  0.00    -0.646 OA
HETATM   21  O           1     -13.363  10.264 -19.879  0.00  0.00    -0.646 OA
ENDBRANCH  14  19
ENDBRANCH   1  14
TORSDOF 9
ENDMDL
