MODEL 1
REMARK VINA RESULT:      -7.0      0.000      0.000
REMARK  8 active torsions:
REMARK  status: ('A' for Active; 'I' for Inactive)
REMARK    1  A    between atoms: C_2  and  C_3 
REMARK    2  A    between atoms: C_2  and  C_10 
REMARK    3  A    between atoms: C_2  and  N_20 
REMARK       I    between atoms: C_3  and  N_18 
REMARK    4  A    between atoms: C_8  and  C_11 
REMARK    5  A    between atoms: C_10  and  C_21 
REMARK    6  A    between atoms: C_11  and  C_12 
REMARK    7  A    between atoms: C_11  and  N_18 
REMARK    8  A    between atoms: C_12  and  C_17 
ROOT
HETATM    1  C           1     -34.138  -3.921 -12.620  0.00  0.00     0.278 C 
ENDROOT
BRANCH   1   2
HETATM    2  C           1     -34.325  -2.456 -12.310  0.00  0.00     0.249 C 
HETATM    3  O           1     -33.848  -1.987 -11.304  0.00  0.00    -0.271 OA
HETATM    4  N           1     -35.034  -1.661 -13.169  0.00  0.00    -0.344 N 
HETATM    5  H           1     -35.433  -2.054 -14.011  0.00  0.00     0.163 HD
BRANCH   4   6
HETATM    6  C           1     -35.213  -0.253 -12.871  0.00  0.00     0.195 C 
BRANCH   6   7
HETATM    7  C           1     -36.393  -0.082 -11.945  0.00  0.00     0.197 C 
HETATM    8  O           1     -36.232   0.431 -10.816  0.00  0.00    -0.646 OA
HETATM    9  O           1     -37.530  -0.453 -12.307  0.00  0.00    -0.646 OA
ENDBRANCH   6   7
BRANCH   6  10
HETATM   10  C           1     -35.469   0.512 -14.164  0.00  0.00     0.149 C 
BRANCH  10  11
HETATM   11  C           1     -35.734  -0.465 -15.283  0.00  0.00     0.175 C 
HETATM   12  O           1     -36.903  -0.838 -15.523  0.00  0.00    -0.648 OA
HETATM   13  O           1     -34.785  -0.901 -15.970  0.00  0.00    -0.648 OA
ENDBRANCH  10  11
ENDBRANCH   6  10
ENDBRANCH   4   6
ENDBRANCH   1   2
BRANCH   1  14
HETATM   14  C           1     -33.061  -4.500 -11.712  0.00  0.00     0.081 C 
BRANCH  14  15
HETATM   15  C           1     -33.608  -5.687 -10.981  0.00  0.00    -0.056 A 
HETATM   16  C           1     -32.893  -6.884 -10.964  0.00  0.00     0.007 A 
HETATM   17  C           1     -33.402  -7.990 -10.283  0.00  0.00     0.001 A 
HETATM   18  C           1     -34.626  -7.898  -9.620  0.00  0.00     0.000 A 
HETATM   19  C           1     -35.340  -6.700  -9.637  0.00  0.00     0.001 A 
HETATM   20  C           1     -34.831  -5.594 -10.317  0.00  0.00     0.007 A 
ENDBRANCH  14  15
ENDBRANCH   1  14
BRANCH   1  21
HETATM   21  N           1     -33.722  -4.080 -14.052  0.00  0.00    -0.066 N 
HETATM   22  H           1     -33.404  -5.062 -14.215  0.00  0.00     0.275 HD
HETATM   23  H           1     -32.939  -3.421 -14.263  0.00  0.00     0.275 HD
HETATM   24  H           1     -34.533  -3.868 -14.676  0.00  0.00     0.275 HD
ENDBRANCH   1  21
TORSDOF 8
ENDMDL
MODEL 2
REMARK VINA RESULT:      -7.0     14.031     16.470
REMARK  8 active torsions:
REMARK  status: ('A' for Active; 'I' for Inactive)
REMARK    1  A    between atoms: C_2  and  C_3 
REMARK    2  A    between atoms: C_2  and  C_10 
REMARK    3  A    between atoms: C_2  and  N_20 
REMARK       I    between atoms: C_3  and  N_18 
REMARK    4  A    between atoms: C_8  and  C_11 
REMARK    5  A    between atoms: C_10  and  C_21 
REMARK    6  A    between atoms: C_11  and  C_12 
REMARK    7  A    between atoms: C_11  and  N_18 
REMARK    8  A    between atoms: C_12  and  C_17 
ROOT
HETATM    1  C           1     -22.285  -5.211  -6.767  0.00  0.00     0.278 C 
ENDROOT
BRANCH   1   2
HETATM    2  C           1     -21.408  -5.674  -5.630  0.00  0.00     0.249 C 
HETATM    3  O           1     -20.469  -4.999  -5.279  0.00  0.00    -0.271 OA
HETATM    4  N           1     -21.677  -6.856  -4.996  0.00  0.00    -0.344 N 
HETATM    5  H           1     -22.464  -7.421  -5.290  0.00  0.00     0.163 HD
BRANCH   4   6
HETATM    6  C           1     -20.834  -7.301  -3.904  0.00  0.00     0.195 C 
BRANCH   6   7
HETATM    7  C           1     -19.926  -8.405  -4.387  0.00  0.00     0.197 C 
HETATM    8  O           1     -20.014  -8.817  -5.564  0.00  0.00    -0.646 OA
HETATM    9  O           1     -19.087  -8.909  -3.609  0.00  0.00    -0.646 OA
ENDBRANCH   6   7
BRANCH   6  10
HETATM   10  C           1     -21.706  -7.823  -2.768  0.00  0.00     0.149 C 
BRANCH  10  11
HETATM   11  C           1     -22.121  -6.673  -1.884  0.00  0.00     0.175 C 
HETATM   12  O           1     -22.689  -6.897  -0.792  0.00  0.00    -0.648 OA
HETATM   13  O           1     -21.898  -5.496  -2.242  0.00  0.00    -0.648 OA
ENDBRANCH  10  11
ENDBRANCH   6  10
ENDBRANCH   4   6
ENDBRANCH   1   2
BRANCH   1  14
HETATM   14  C           1     -21.701  -3.943  -7.377  0.00  0.00     0.081 C 
BRANCH  14  15
HETATM   15  C           1     -21.654  -4.080  -8.867  0.00  0.00    -0.056 A 
HETATM   16  C           1     -20.425  -4.100  -9.526  0.00  0.00     0.007 A 
HETATM   17  C           1     -20.380  -4.228 -10.914  0.00  0.00     0.001 A 
HETATM   18  C           1     -21.565  -4.334 -11.643  0.00  0.00     0.000 A 
HETATM   19  C           1     -22.794  -4.314 -10.983  0.00  0.00     0.001 A 
HETATM   20  C           1     -22.839  -4.186  -9.596  0.00  0.00     0.007 A 
ENDBRANCH  14  15
ENDBRANCH   1  14
BRANCH   1  21
HETATM   21  N           1     -23.665  -4.927  -6.251  0.00  0.00    -0.066 N 
HETATM   22  H           1     -24.307  -4.751  -7.056  0.00  0.00     0.275 HD
HETATM   23  H           1     -23.640  -4.085  -5.633  0.00  0.00     0.275 HD
HETATM   24  H           1     -24.007  -5.750  -5.705  0.00  0.00     0.275 HD
ENDBRANCH   1  21
TORSDOF 8
ENDMDL
MODEL 3
REMARK VINA RESULT:      -6.9     12.570     14.282
REMARK  8 active torsions:
REMARK  status: ('A' for Active; 'I' for Inactive)
REMARK    1  A    between atoms: C_2  and  C_3 
REMARK    2  A    between atoms: C_2  and  C_10 
REMARK    3  A    between atoms: C_2  and  N_20 
REMARK       I    between atoms: C_3  and  N_18 
REMARK    4  A    between atoms: C_8  and  C_11 
REMARK    5  A    between atoms: C_10  and  C_21 
REMARK    6  A    between atoms: C_11  and  C_12 
REMARK    7  A    between atoms: C_11  and  N_18 
REMARK    8  A    between atoms: C_12  and  C_17 
ROOT
HETATM    1  C           1     -21.214  -5.696  -6.992  0.00  0.00     0.278 C 
ENDROOT
BRANCH   1   2
HETATM    2  C           1     -21.754  -4.595  -7.871  0.00  0.00     0.249 C 
HETATM    3  O           1     -21.683  -3.444  -7.508  0.00  0.00    -0.271 OA
HETATM    4  N           1     -22.322  -4.900  -9.078  0.00  0.00    -0.344 N 
HETATM    5  H           1     -22.381  -5.863  -9.381  0.00  0.00     0.163 HD
BRANCH   4   6
HETATM    6  C           1     -22.840  -3.841  -9.922  0.00  0.00     0.195 C 
BRANCH   6   7
HETATM    7  C           1     -24.329  -4.018 -10.094  0.00  0.00     0.197 C 
HETATM    8  O           1     -25.014  -3.099 -10.593  0.00  0.00    -0.646 OA
HETATM    9  O           1     -24.877  -5.083  -9.737  0.00  0.00    -0.646 OA
ENDBRANCH   6   7
BRANCH   6  10
HETATM   10  C           1     -22.163  -3.900 -11.286  0.00  0.00     0.149 C 
BRANCH  10  11
HETATM   11  C           1     -20.675  -3.715 -11.117  0.00  0.00     0.175 C 
HETATM   12  O           1     -20.169  -2.577 -11.237  0.00  0.00    -0.648 OA
HETATM   13  O           1     -19.947  -4.697 -10.856  0.00  0.00    -0.648 OA
ENDBRANCH  10  11
ENDBRANCH   6  10
ENDBRANCH   4   6
ENDBRANCH   1   2
BRANCH   1  14
HETATM   14  C           1     -21.056  -5.179  -5.568  0.00  0.00     0.081 C 
BRANCH  14  15
HETATM   15  C           1     -21.254  -6.306  -4.602  0.00  0.00    -0.056 A 
HETATM   16  C           1     -21.409  -7.609  -5.073  0.00  0.00     0.007 A 
HETATM   17  C           1     -21.593  -8.659  -4.174  0.00  0.00     0.001 A 
HETATM   18  C           1     -21.623  -8.405  -2.803  0.00  0.00     0.000 A 
HETATM   19  C           1     -21.467  -7.101  -2.331  0.00  0.00     0.001 A 
HETATM   20  C           1     -21.283  -6.052  -3.230  0.00  0.00     0.007 A 
ENDBRANCH  14  15
ENDBRANCH   1  14
BRANCH   1  21
HETATM   21  N           1     -19.880  -6.143  -7.512  0.00  0.00    -0.066 N 
HETATM   22  H           1     -19.857  -6.030  -8.551  0.00  0.00     0.275 HD
HETATM   23  H           1     -19.729  -7.147  -7.268  0.00  0.00     0.275 HD
HETATM   24  H           1     -19.127  -5.562  -7.081  0.00  0.00     0.275 HD
ENDBRANCH   1  21
TORSDOF 8
ENDMDL
MODEL 4
REMARK VINA RESULT:      -6.8      4.702      6.416
REMARK  8 active torsions:
REMARK  status: ('A' for Active; 'I' for Inactive)
REMARK    1  A    between atoms: C_2  and  C_3 
REMARK    2  A    between atoms: C_2  and  C_10 
REMARK    3  A    between atoms: C_2  and  N_20 
REMARK       I    between atoms: C_3  and  N_18 
REMARK    4  A    between atoms: C_8  and  C_11 
REMARK    5  A    between atoms: C_10  and  C_21 
REMARK    6  A    between atoms: C_11  and  C_12 
REMARK    7  A    between atoms: C_11  and  N_18 
REMARK    8  A    between atoms: C_12  and  C_17 
ROOT
HETATM    1  C           1     -32.911  -4.515 -16.679  0.00  0.00     0.278 C 
ENDROOT
BRANCH   1   2
HETATM    2  C           1     -33.827  -4.455 -15.481  0.00  0.00     0.249 C 
HETATM    3  O           1     -34.983  -4.790 -15.587  0.00  0.00    -0.271 OA
HETATM    4  N           1     -33.347  -4.021 -14.275  0.00  0.00    -0.344 N 
HETATM    5  H           1     -32.379  -3.741 -14.186  0.00  0.00     0.163 HD
BRANCH   4   6
HETATM    6  C           1     -34.226  -3.963 -13.124  0.00  0.00     0.195 C 
BRANCH   6   7
HETATM    7  C           1     -34.602  -2.527 -12.849  0.00  0.00     0.197 C 
HETATM    8  O           1     -34.450  -2.050 -11.703  0.00  0.00    -0.646 OA
HETATM    9  O           1     -35.065  -1.816 -13.766  0.00  0.00    -0.646 OA
ENDBRANCH   6   7
BRANCH   6  10
HETATM   10  C           1     -33.513  -4.541 -11.908  0.00  0.00     0.149 C 
BRANCH  10  11
HETATM   11  C           1     -34.320  -5.686 -11.348  0.00  0.00     0.175 C 
HETATM   12  O           1     -34.238  -5.973 -10.133  0.00  0.00    -0.648 OA
HETATM   13  O           1     -35.071  -6.347 -12.097  0.00  0.00    -0.648 OA
ENDBRANCH  10  11
ENDBRANCH   6  10
ENDBRANCH   4   6
ENDBRANCH   1   2
BRANCH   1  14
HETATM   14  C           1     -31.462  -4.494 -16.213  0.00  0.00     0.081 C 
BRANCH  14  15
HETATM   15  C           1     -30.636  -5.367 -17.107  0.00  0.00    -0.056 A 
HETATM   16  C           1     -31.023  -6.685 -17.344  0.00  0.00     0.007 A 
HETATM   17  C           1     -30.254  -7.498 -18.177  0.00  0.00     0.001 A 
HETATM   18  C           1     -29.098  -6.993 -18.771  0.00  0.00     0.000 A 
HETATM   19  C           1     -28.711  -5.674 -18.534  0.00  0.00     0.001 A 
HETATM   20  C           1     -29.480  -4.861 -17.701  0.00  0.00     0.007 A 
ENDBRANCH  14  15
ENDBRANCH   1  14
BRANCH   1  21
HETATM   21  N           1     -33.169  -3.333 -17.565  0.00  0.00    -0.066 N 
HETATM   22  H           1     -33.934  -3.563 -18.238  0.00  0.00     0.275 HD
HETATM   23  H           1     -32.299  -3.097 -18.093  0.00  0.00     0.275 HD
HETATM   24  H           1     -33.454  -2.515 -16.980  0.00  0.00     0.275 HD
ENDBRANCH   1  21
TORSDOF 8
ENDMDL
MODEL 5
REMARK VINA RESULT:      -6.7     13.973     16.637
REMARK  8 active torsions:
REMARK  status: ('A' for Active; 'I' for Inactive)
REMARK    1  A    between atoms: C_2  and  C_3 
REMARK    2  A    between atoms: C_2  and  C_10 
REMARK    3  A    between atoms: C_2  and  N_20 
REMARK       I    between atoms: C_3  and  N_18 
REMARK    4  A    between atoms: C_8  and  C_11 
REMARK    5  A    between atoms: C_10  and  C_21 
REMARK    6  A    between atoms: C_11  and  C_12 
REMARK    7  A    between atoms: C_11  and  N_18 
REMARK    8  A    between atoms: C_12  and  C_17 
ROOT
HETATM    1  C           1     -21.013  -4.962  -6.301  0.00  0.00     0.278 C 
ENDROOT
BRANCH   1   2
HETATM    2  C           1     -21.711  -5.908  -5.355  0.00  0.00     0.249 C 
HETATM    3  O           1     -22.917  -5.982  -5.356  0.00  0.00    -0.271 OA
HETATM    4  N           1     -20.978  -6.682  -4.497  0.00  0.00    -0.344 N 
HETATM    5  H           1     -19.968  -6.619  -4.496  0.00  0.00     0.163 HD
BRANCH   4   6
HETATM    6  C           1     -21.649  -7.590  -3.588  0.00  0.00     0.195 C 
BRANCH   6   7
HETATM    7  C           1     -21.682  -6.985  -2.205  0.00  0.00     0.197 C 
HETATM    8  O           1     -22.321  -5.931  -2.000  0.00  0.00    -0.646 OA
HETATM    9  O           1     -21.068  -7.537  -1.267  0.00  0.00    -0.646 OA
ENDBRANCH   6   7
BRANCH   6  10
HETATM   10  C           1     -20.895  -8.914  -3.543  0.00  0.00     0.149 C 
BRANCH  10  11
HETATM   11  C           1     -20.193  -9.138  -4.859  0.00  0.00     0.175 C 
HETATM   12  O           1     -18.954  -8.988  -4.941  0.00  0.00    -0.648 OA
HETATM   13  O           1     -20.849  -9.474  -5.870  0.00  0.00    -0.648 OA
ENDBRANCH  10  11
ENDBRANCH   6  10
ENDBRANCH   4   6
ENDBRANCH   1   2
BRANCH   1  14
HETATM   14  C           1     -20.647  -5.702  -7.581  0.00  0.00     0.081 C 
BRANCH  14  15
HETATM   15  C           1     -21.061  -4.886  -8.767  0.00  0.00    -0.056 A 
HETATM   16  C           1     -22.358  -4.380  -8.845  0.00  0.00     0.007 A 
HETATM   17  C           1     -22.744  -3.620  -9.949  0.00  0.00     0.001 A 
HETATM   18  C           1     -21.833  -3.367 -10.975  0.00  0.00     0.000 A 
HETATM   19  C           1     -20.536  -3.873 -10.896  0.00  0.00     0.001 A 
HETATM   20  C           1     -20.150  -4.633  -9.792  0.00  0.00     0.007 A 
ENDBRANCH  14  15
ENDBRANCH   1  14
BRANCH   1  21
HETATM   21  N           1     -19.767  -4.437  -5.654  0.00  0.00    -0.066 N 
HETATM   22  H           1     -18.979  -4.468  -6.340  0.00  0.00     0.275 HD
HETATM   23  H           1     -19.529  -5.025  -4.824  0.00  0.00     0.275 HD
HETATM   24  H           1     -19.923  -3.450  -5.348  0.00  0.00     0.275 HD
ENDBRANCH   1  21
TORSDOF 8
ENDMDL
MODEL 6
REMARK VINA RESULT:      -6.7     14.120     16.773
REMARK  8 active torsions:
REMARK  status: ('A' for Active; 'I' for Inactive)
REMARK    1  A    between atoms: C_2  and  C_3 
REMARK    2  A    between atoms: C_2  and  C_10 
REMARK    3  A    between atoms: C_2  and  N_20 
REMARK       I    between atoms: C_3  and  N_18 
REMARK    4  A    between atoms: C_8  and  C_11 
REMARK    5  A    between atoms: C_10  and  C_21 
REMARK    6  A    between atoms: C_11  and  C_12 
REMARK    7  A    between atoms: C_11  and  N_18 
REMARK    8  A    between atoms: C_12  and  C_17 
ROOT
HETATM    1  C           1     -21.070  -5.053  -6.177  0.00  0.00     0.278 C 
ENDROOT
BRANCH   1   2
HETATM    2  C           1     -21.750  -6.014  -5.232  0.00  0.00     0.249 C 
HETATM    3  O           1     -22.956  -6.064  -5.187  0.00  0.00    -0.271 OA
HETATM    4  N           1     -20.999  -6.828  -4.428  0.00  0.00    -0.344 N 
HETATM    5  H           1     -19.990  -6.786  -4.466  0.00  0.00     0.163 HD
BRANCH   4   6
HETATM    6  C           1     -21.653  -7.751  -3.521  0.00  0.00     0.195 C 
BRANCH   6   7
HETATM    7  C           1     -21.496  -7.258  -2.102  0.00  0.00     0.197 C 
HETATM    8  O           1     -20.655  -7.790  -1.345  0.00  0.00    -0.646 OA
HETATM    9  O           1     -22.209  -6.320  -1.685  0.00  0.00    -0.646 OA
ENDBRANCH   6   7
BRANCH   6  10
HETATM   10  C           1     -21.016  -9.129  -3.650  0.00  0.00     0.149 C 
BRANCH  10  11
HETATM   11  C           1     -19.797  -9.039  -4.535  0.00  0.00     0.175 C 
HETATM   12  O           1     -18.663  -8.902  -4.025  0.00  0.00    -0.648 OA
HETATM   13  O           1     -19.920  -9.100  -5.778  0.00  0.00    -0.648 OA
ENDBRANCH  10  11
ENDBRANCH   6  10
ENDBRANCH   4   6
ENDBRANCH   1   2
BRANCH   1  14
HETATM   14  C           1     -20.695  -5.782  -7.461  0.00  0.00     0.081 C 
BRANCH  14  15
HETATM   15  C           1     -21.098  -4.953  -8.642  0.00  0.00    -0.056 A 
HETATM   16  C           1     -20.175  -4.687  -9.652  0.00  0.00     0.007 A 
HETATM   17  C           1     -20.549  -3.915 -10.752  0.00  0.00     0.001 A 
HETATM   18  C           1     -21.846  -3.410 -10.841  0.00  0.00     0.000 A 
HETATM   19  C           1     -22.769  -3.677  -9.829  0.00  0.00     0.001 A 
HETATM   20  C           1     -22.395  -4.448  -8.730  0.00  0.00     0.007 A 
ENDBRANCH  14  15
ENDBRANCH   1  14
BRANCH   1  21
HETATM   21  N           1     -19.830  -4.510  -5.531  0.00  0.00    -0.066 N 
HETATM   22  H           1     -19.460  -3.716  -6.101  0.00  0.00     0.275 HD
HETATM   23  H           1     -19.109  -5.263  -5.472  0.00  0.00     0.275 HD
HETATM   24  H           1     -20.059  -4.171  -4.569  0.00  0.00     0.275 HD
ENDBRANCH   1  21
TORSDOF 8
ENDMDL
MODEL 7
REMARK VINA RESULT:      -6.4     13.137     14.967
REMARK  8 active torsions:
REMARK  status: ('A' for Active; 'I' for Inactive)
REMARK    1  A    between atoms: C_2  and  C_3 
REMARK    2  A    between atoms: C_2  and  C_10 
REMARK    3  A    between atoms: C_2  and  N_20 
REMARK       I    between atoms: C_3  and  N_18 
REMARK    4  A    between atoms: C_8  and  C_11 
REMARK    5  A    between atoms: C_10  and  C_21 
REMARK    6  A    between atoms: C_11  and  C_12 
REMARK    7  A    between atoms: C_11  and  N_18 
REMARK    8  A    between atoms: C_12  and  C_17 
ROOT
HETATM    1  C           1     -21.741  -5.903  -5.150  0.00  0.00     0.278 C 
ENDROOT
BRANCH   1   2
HETATM    2  C           1     -21.517  -5.845  -6.641  0.00  0.00     0.249 C 
HETATM    3  O           1     -20.915  -6.734  -7.196  0.00  0.00    -0.271 OA
HETATM    4  N           1     -21.996  -4.787  -7.365  0.00  0.00    -0.344 N 
HETATM    5  H           1     -22.500  -4.043  -6.900  0.00  0.00     0.163 HD
BRANCH   4   6
HETATM    6  C           1     -21.781  -4.732  -8.797  0.00  0.00     0.195 C 
BRANCH   6   7
HETATM    7  C           1     -20.343  -4.366  -9.076  0.00  0.00     0.197 C 
HETATM    8  O           1     -19.716  -3.640  -8.273  0.00  0.00    -0.646 OA
HETATM    9  O           1     -19.780  -4.786 -10.109  0.00  0.00    -0.646 OA
ENDBRANCH   6   7
BRANCH   6  10
HETATM   10  C           1     -22.698  -3.681  -9.410  0.00  0.00     0.149 C 
BRANCH  10  11
HETATM   11  C           1     -23.669  -4.349 -10.352  0.00  0.00     0.175 C 
HETATM   12  O           1     -23.377  -4.480 -11.561  0.00  0.00    -0.648 OA
HETATM   13  O           1     -24.765  -4.772  -9.925  0.00  0.00    -0.648 OA
ENDBRANCH  10  11
ENDBRANCH   6  10
ENDBRANCH   4   6
ENDBRANCH   1   2
BRANCH   1  14
HETATM   14  C           1     -20.852  -6.981  -4.544  0.00  0.00     0.081 C 
BRANCH  14  15
HETATM   15  C           1     -21.345  -7.322  -3.171  0.00  0.00    -0.056 A 
HETATM   16  C           1     -21.379  -8.652  -2.754  0.00  0.00     0.007 A 
HETATM   17  C           1     -21.838  -8.970  -1.476  0.00  0.00     0.001 A 
HETATM   18  C           1     -22.264  -7.958  -0.617  0.00  0.00     0.000 A 
HETATM   19  C           1     -22.231  -6.628  -1.034  0.00  0.00     0.001 A 
HETATM   20  C           1     -21.771  -6.310  -2.312  0.00  0.00     0.007 A 
ENDBRANCH  14  15
ENDBRANCH   1  14
BRANCH   1  21
HETATM   21  N           1     -23.179  -6.227  -4.873  0.00  0.00    -0.066 N 
HETATM   22  H           1     -23.290  -6.480  -3.865  0.00  0.00     0.275 HD
HETATM   23  H           1     -23.476  -7.032  -5.469  0.00  0.00     0.275 HD
HETATM   24  H           1     -23.771  -5.395  -5.091  0.00  0.00     0.275 HD
ENDBRANCH   1  21
TORSDOF 8
ENDMDL
MODEL 8
REMARK VINA RESULT:      -6.3     14.662     17.276
REMARK  8 active torsions:
REMARK  status: ('A' for Active; 'I' for Inactive)
REMARK    1  A    between atoms: C_2  and  C_3 
REMARK    2  A    between atoms: C_2  and  C_10 
REMARK    3  A    between atoms: C_2  and  N_20 
REMARK       I    between atoms: C_3  and  N_18 
REMARK    4  A    between atoms: C_8  and  C_11 
REMARK    5  A    between atoms: C_10  and  C_21 
REMARK    6  A    between atoms: C_11  and  C_12 
REMARK    7  A    between atoms: C_11  and  N_18 
REMARK    8  A    between atoms: C_12  and  C_17 
ROOT
HETATM    1  C           1     -21.526  -6.072  -6.345  0.00  0.00     0.278 C 
ENDROOT
BRANCH   1   2
HETATM    2  C           1     -20.401  -6.998  -5.953  0.00  0.00     0.249 C 
HETATM    3  O           1     -19.362  -6.978  -6.568  0.00  0.00    -0.271 OA
HETATM    4  N           1     -20.559  -7.859  -4.901  0.00  0.00    -0.344 N 
HETATM    5  H           1     -21.430  -7.875  -4.386  0.00  0.00     0.163 HD
BRANCH   4   6
HETATM    6  C           1     -19.478  -8.748  -4.525  0.00  0.00     0.195 C 
BRANCH   6   7
HETATM    7  C           1     -19.648 -10.073  -5.229  0.00  0.00     0.197 C 
HETATM    8  O           1     -20.510 -10.886  -4.831  0.00  0.00    -0.646 OA
HETATM    9  O           1     -18.926 -10.356  -6.209  0.00  0.00    -0.646 OA
ENDBRANCH   6   7
BRANCH   6  10
HETATM   10  C           1     -19.503  -8.971  -3.018  0.00  0.00     0.149 C 
BRANCH  10  11
HETATM   11  C           1     -20.771  -8.388  -2.444  0.00  0.00     0.175 C 
HETATM   12  O           1     -21.786  -9.107  -2.313  0.00  0.00    -0.648 OA
HETATM   13  O           1     -20.807  -7.187  -2.099  0.00  0.00    -0.648 OA
ENDBRANCH  10  11
ENDBRANCH   6  10
ENDBRANCH   4   6
ENDBRANCH   1   2
BRANCH   1  14
HETATM   14  C           1     -20.959  -4.704  -6.700  0.00  0.00     0.081 C 
BRANCH  14  15
HETATM   15  C           1     -21.198  -4.424  -8.151  0.00  0.00    -0.056 A 
HETATM   16  C           1     -20.174  -4.620  -9.077  0.00  0.00     0.007 A 
HETATM   17  C           1     -20.396  -4.359 -10.428  0.00  0.00     0.001 A 
HETATM   18  C           1     -21.643  -3.901 -10.854  0.00  0.00     0.000 A 
HETATM   19  C           1     -22.668  -3.705  -9.928  0.00  0.00     0.001 A 
HETATM   20  C           1     -22.445  -3.966  -8.576  0.00  0.00     0.007 A 
ENDBRANCH  14  15
ENDBRANCH   1  14
BRANCH   1  21
HETATM   21  N           1     -22.483  -5.934  -5.198  0.00  0.00    -0.066 N 
HETATM   22  H           1     -22.784  -4.937  -5.115  0.00  0.00     0.275 HD
HETATM   23  H           1     -22.012  -6.230  -4.314  0.00  0.00     0.275 HD
HETATM   24  H           1     -23.319  -6.538  -5.368  0.00  0.00     0.275 HD
ENDBRANCH   1  21
TORSDOF 8
ENDMDL
MODEL 9
REMARK VINA RESULT:      -6.3     15.448     17.913
REMARK  8 active torsions:
REMARK  status: ('A' for Active; 'I' for Inactive)
REMARK    1  A    between atoms: C_2  and  C_3 
REMARK    2  A    between atoms: C_2  and  C_10 
REMARK    3  A    between atoms: C_2  and  N_20 
REMARK       I    between atoms: C_3  and  N_18 
REMARK    4  A    between atoms: C_8  and  C_11 
REMARK    5  A    between atoms: C_10  and  C_21 
REMARK    6  A    between atoms: C_11  and  C_12 
REMARK    7  A    between atoms: C_11  and  N_18 
REMARK    8  A    between atoms: C_12  and  C_17 
ROOT
HETATM    1  C           1     -20.420  -7.789  -4.766  0.00  0.00     0.278 C 
ENDROOT
BRANCH   1   2
HETATM    2  C           1     -20.212  -8.488  -3.445  0.00  0.00     0.249 C 
HETATM    3  O           1     -19.122  -8.924  -3.158  0.00  0.00    -0.271 OA
HETATM    4  N           1     -21.257  -8.626  -2.572  0.00  0.00    -0.344 N 
HETATM    5  H           1     -22.169  -8.261  -2.813  0.00  0.00     0.163 HD
BRANCH   4   6
HETATM    6  C           1     -21.057  -9.297  -1.303  0.00  0.00     0.195 C 
BRANCH   6   7
HETATM    7  C           1     -22.110 -10.364  -1.126  0.00  0.00     0.197 C 
HETATM    8  O           1     -22.224 -10.954  -0.030  0.00  0.00    -0.646 OA
HETATM    9  O           1     -22.865 -10.659  -2.077  0.00  0.00    -0.646 OA
ENDBRANCH   6   7
BRANCH   6  10
HETATM   10  C           1     -21.167  -8.285  -0.169  0.00  0.00     0.149 C 
BRANCH  10  11
HETATM   11  C           1     -22.484  -7.558  -0.271  0.00  0.00     0.175 C 
HETATM   12  O           1     -22.638  -6.659  -1.127  0.00  0.00    -0.648 OA
HETATM   13  O           1     -23.424  -7.853   0.500  0.00  0.00    -0.648 OA
ENDBRANCH  10  11
ENDBRANCH   6  10
ENDBRANCH   4   6
ENDBRANCH   1   2
BRANCH   1  14
HETATM   14  C           1     -21.195  -6.498  -4.542  0.00  0.00     0.081 C 
BRANCH  14  15
HETATM   15  C           1     -21.058  -5.617  -5.745  0.00  0.00    -0.056 A 
HETATM   16  C           1     -22.196  -5.168  -6.413  0.00  0.00     0.007 A 
HETATM   17  C           1     -22.069  -4.347  -7.534  0.00  0.00     0.001 A 
HETATM   18  C           1     -20.803  -3.977  -7.987  0.00  0.00     0.000 A 
HETATM   19  C           1     -19.664  -4.426  -7.318  0.00  0.00     0.001 A 
HETATM   20  C           1     -19.791  -5.247  -6.197  0.00  0.00     0.007 A 
ENDBRANCH  14  15
ENDBRANCH   1  14
BRANCH   1  21
HETATM   21  N           1     -21.194  -8.684  -5.688  0.00  0.00    -0.066 N 
HETATM   22  H           1     -21.884  -8.113  -6.227  0.00  0.00     0.275 HD
HETATM   23  H           1     -21.700  -9.407  -5.129  0.00  0.00     0.275 HD
HETATM   24  H           1     -20.537  -9.153  -6.351  0.00  0.00     0.275 HD
ENDBRANCH   1  21
TORSDOF 8
ENDMDL
