MODEL 1
REMARK VINA RESULT:      -7.0      0.000      0.000
REMARK  9 active torsions:
REMARK  status: ('A' for Active; 'I' for Inactive)
REMARK       I    between atoms: C_1  and  N_10 
REMARK    1  A    between atoms: C_1  and  C_22 
REMARK    2  A    between atoms: C_2  and  C_19 
REMARK    3  A    between atoms: C_2  and  C_17 
REMARK    4  A    between atoms: C_3  and  C_17 
REMARK    5  A    between atoms: C_9  and  C_23 
REMARK    6  A    between atoms: N_10  and  C_17 
REMARK    7  A    between atoms: N_11  and  C_22 
REMARK    8  A    between atoms: S_18  and  C_19 
REMARK    9  A    between atoms: C_22  and  C_23 
ROOT
HETATM    1  C           1     -21.279  -6.108  -5.336  0.00  0.00     0.278 C 
ENDROOT
BRANCH   1   2
HETATM    2  C           1     -20.401  -7.319  -5.533  0.00  0.00     0.249 C 
HETATM    3  N           1     -20.487  -8.375  -4.664  0.00  0.00    -0.345 N 
HETATM    4  H           1     -21.139  -8.341  -3.891  0.00  0.00     0.163 HD
HETATM    5  O           1     -19.624  -7.358  -6.456  0.00  0.00    -0.271 OA
BRANCH   3   6
HETATM    6  C           1     -19.644  -9.539  -4.853  0.00  0.00     0.186 C 
BRANCH   6   7
HETATM    7  C           1     -19.072  -9.976  -3.510  0.00  0.00     0.046 C 
BRANCH   7   8
HETATM    8  C           1     -19.470  -8.972  -2.438  0.00  0.00     0.076 C 
BRANCH   8   9
HETATM    9  S           1     -20.636  -9.749  -1.284  0.00  0.00    -0.173 SA
HETATM   10  C           1     -21.602  -8.251  -0.938  0.00  0.00     0.089 C 
ENDBRANCH   8   9
ENDBRANCH   7   8
ENDBRANCH   6   7
BRANCH   6  11
HETATM   11  C           1     -20.463 -10.662  -5.439  0.00  0.00     0.196 C 
HETATM   12  O           1     -20.227 -11.070  -6.597  0.00  0.00    -0.646 OA
HETATM   13  O           1     -21.377 -11.186  -4.766  0.00  0.00    -0.646 OA
ENDBRANCH   6  11
ENDBRANCH   3   6
ENDBRANCH   1   2
BRANCH   1  14
HETATM   14  N           1     -21.269  -5.713  -3.889  0.00  0.00    -0.066 N 
HETATM   15  H           1     -21.227  -6.571  -3.293  0.00  0.00     0.275 HD
HETATM   16  H           1     -20.434  -5.115  -3.698  0.00  0.00     0.275 HD
HETATM   17  H           1     -22.139  -5.179  -3.668  0.00  0.00     0.275 HD
ENDBRANCH   1  14
BRANCH   1  18
HETATM   18  C           1     -20.751  -4.955  -6.180  0.00  0.00     0.083 C 
BRANCH  18  19
HETATM   19  C           1     -21.741  -4.627  -7.253  0.00  0.00    -0.028 A 
HETATM   20  C           1     -21.454  -4.457  -8.636  0.00  0.00    -0.002 A 
HETATM   21  C           1     -22.659  -4.161  -9.273  0.00  0.00     0.042 A 
HETATM   22  C           1     -20.279  -4.529  -9.408  0.00  0.00     0.014 A 
HETATM   23  C           1     -22.749  -3.931 -10.651  0.00  0.00     0.030 A 
HETATM   24  N           1     -23.637  -4.153  -8.304  0.00  0.00    -0.365 N 
HETATM   25  C           1     -21.569  -4.007 -11.397  0.00  0.00     0.002 A 
HETATM   26  C           1     -20.351  -4.301 -10.787  0.00  0.00     0.001 A 
HETATM   27  C           1     -23.093  -4.433  -7.078  0.00  0.00     0.096 A 
HETATM   28  H           1     -24.655  -3.959  -8.478  0.00  0.00     0.165 HD
ENDBRANCH  18  19
ENDBRANCH   1  18
TORSDOF 9
ENDMDL
MODEL 2
REMARK VINA RESULT:      -7.0      1.368      2.053
REMARK  9 active torsions:
REMARK  status: ('A' for Active; 'I' for Inactive)
REMARK       I    between atoms: C_1  and  N_10 
REMARK    1  A    between atoms: C_1  and  C_22 
REMARK    2  A    between atoms: C_2  and  C_19 
REMARK    3  A    between atoms: C_2  and  C_17 
REMARK    4  A    between atoms: C_3  and  C_17 
REMARK    5  A    between atoms: C_9  and  C_23 
REMARK    6  A    between atoms: N_10  and  C_17 
REMARK    7  A    between atoms: N_11  and  C_22 
REMARK    8  A    between atoms: S_18  and  C_19 
REMARK    9  A    between atoms: C_22  and  C_23 
ROOT
HETATM    1  C           1     -21.434  -6.240  -5.458  0.00  0.00     0.278 C 
ENDROOT
BRANCH   1   2
HETATM    2  C           1     -20.370  -7.307  -5.524  0.00  0.00     0.249 C 
HETATM    3  N           1     -20.316  -8.280  -4.562  0.00  0.00    -0.345 N 
HETATM    4  H           1     -20.990  -8.282  -3.807  0.00  0.00     0.163 HD
HETATM    5  O           1     -19.566  -7.304  -6.426  0.00  0.00    -0.271 OA
BRANCH   3   6
HETATM    6  C           1     -19.294  -9.306  -4.625  0.00  0.00     0.186 C 
BRANCH   6   7
HETATM    7  C           1     -18.832  -9.652  -3.215  0.00  0.00     0.046 C 
BRANCH   7   8
HETATM    8  C           1     -17.673 -10.636  -3.287  0.00  0.00     0.076 C 
BRANCH   8   9
HETATM    9  S           1     -16.102  -9.731  -3.199  0.00  0.00    -0.173 SA
HETATM   10  C           1     -15.662  -9.923  -4.949  0.00  0.00     0.089 C 
ENDBRANCH   8   9
ENDBRANCH   7   8
ENDBRANCH   6   7
BRANCH   6  11
HETATM   11  C           1     -19.861 -10.539  -5.284  0.00  0.00     0.196 C 
HETATM   12  O           1     -20.781 -11.178  -4.728  0.00  0.00    -0.646 OA
HETATM   13  O           1     -19.413 -10.921  -6.387  0.00  0.00    -0.646 OA
ENDBRANCH   6  11
ENDBRANCH   3   6
ENDBRANCH   1   2
BRANCH   1  14
HETATM   14  N           1     -21.747  -5.934  -4.023  0.00  0.00    -0.066 N 
HETATM   15  H           1     -21.118  -5.172  -3.683  0.00  0.00     0.275 HD
HETATM   16  H           1     -22.742  -5.626  -3.942  0.00  0.00     0.275 HD
HETATM   17  H           1     -21.599  -6.791  -3.445  0.00  0.00     0.275 HD
ENDBRANCH   1  14
BRANCH   1  18
HETATM   18  C           1     -20.932  -4.978  -6.147  0.00  0.00     0.083 C 
BRANCH  18  19
HETATM   19  C           1     -21.859  -4.615  -7.265  0.00  0.00    -0.028 A 
HETATM   20  C           1     -21.501  -4.446  -8.631  0.00  0.00    -0.002 A 
HETATM   21  C           1     -22.665  -4.112  -9.323  0.00  0.00     0.042 A 
HETATM   22  C           1     -20.293  -4.546  -9.346  0.00  0.00     0.014 A 
HETATM   23  C           1     -22.682  -3.872 -10.703  0.00  0.00     0.030 A 
HETATM   24  N           1     -23.688  -4.082  -8.402  0.00  0.00    -0.365 N 
HETATM   25  C           1     -21.470  -3.978 -11.391  0.00  0.00     0.002 A 
HETATM   26  C           1     -20.292  -4.309 -10.726  0.00  0.00     0.001 A 
HETATM   27  C           1     -23.212  -4.384  -7.154  0.00  0.00     0.096 A 
HETATM   28  H           1     -24.690  -3.858  -8.624  0.00  0.00     0.165 HD
ENDBRANCH  18  19
ENDBRANCH   1  18
TORSDOF 9
ENDMDL
MODEL 3
REMARK VINA RESULT:      -6.8      2.204      2.872
REMARK  9 active torsions:
REMARK  status: ('A' for Active; 'I' for Inactive)
REMARK       I    between atoms: C_1  and  N_10 
REMARK    1  A    between atoms: C_1  and  C_22 
REMARK    2  A    between atoms: C_2  and  C_19 
REMARK    3  A    between atoms: C_2  and  C_17 
REMARK    4  A    between atoms: C_3  and  C_17 
REMARK    5  A    between atoms: C_9  and  C_23 
REMARK    6  A    between atoms: N_10  and  C_17 
REMARK    7  A    between atoms: N_11  and  C_22 
REMARK    8  A    between atoms: S_18  and  C_19 
REMARK    9  A    between atoms: C_22  and  C_23 
ROOT
HETATM    1  C           1     -20.208  -5.955  -5.946  0.00  0.00     0.278 C 
ENDROOT
BRANCH   1   2
HETATM    2  C           1     -21.082  -6.703  -4.970  0.00  0.00     0.249 C 
HETATM    3  N           1     -20.725  -6.780  -3.651  0.00  0.00    -0.345 N 
HETATM    4  H           1     -19.874  -6.336  -3.331  0.00  0.00     0.163 HD
HETATM    5  O           1     -22.098  -7.232  -5.353  0.00  0.00    -0.271 OA
BRANCH   3   6
HETATM    6  C           1     -21.565  -7.498  -2.713  0.00  0.00     0.186 C 
BRANCH   6   7
HETATM    7  C           1     -20.730  -8.534  -1.971  0.00  0.00     0.046 C 
BRANCH   7   8
HETATM    8  C           1     -21.122  -9.930  -2.436  0.00  0.00     0.076 C 
BRANCH   8   9
HETATM    9  S           1     -22.492 -10.545  -1.417  0.00  0.00    -0.173 SA
HETATM   10  C           1     -21.708 -10.226   0.188  0.00  0.00     0.089 C 
ENDBRANCH   8   9
ENDBRANCH   7   8
ENDBRANCH   6   7
BRANCH   6  11
HETATM   11  C           1     -22.154  -6.525  -1.721  0.00  0.00     0.196 C 
HETATM   12  O           1     -21.986  -5.296  -1.876  0.00  0.00    -0.646 OA
HETATM   13  O           1     -22.812  -6.948  -0.746  0.00  0.00    -0.646 OA
ENDBRANCH   6  11
ENDBRANCH   3   6
ENDBRANCH   1   2
BRANCH   1  14
HETATM   14  N           1     -20.311  -6.594  -7.300  0.00  0.00    -0.066 N 
HETATM   15  H           1     -20.675  -5.897  -7.988  0.00  0.00     0.275 HD
HETATM   16  H           1     -19.367  -6.921  -7.603  0.00  0.00     0.275 HD
HETATM   17  H           1     -20.964  -7.409  -7.252  0.00  0.00     0.275 HD
ENDBRANCH   1  14
BRANCH   1  18
HETATM   18  C           1     -20.667  -4.506  -6.034  0.00  0.00     0.083 C 
BRANCH  18  19
HETATM   19  C           1     -21.696  -4.371  -7.112  0.00  0.00    -0.028 A 
HETATM   20  C           1     -21.440  -4.133  -8.491  0.00  0.00    -0.002 A 
HETATM   21  C           1     -22.676  -4.078  -9.135  0.00  0.00     0.042 A 
HETATM   22  C           1     -20.270  -3.960  -9.254  0.00  0.00     0.014 A 
HETATM   23  C           1     -22.802  -3.857 -10.512  0.00  0.00     0.030 A 
HETATM   24  N           1     -23.642  -4.276  -8.174  0.00  0.00    -0.365 N 
HETATM   25  C           1     -21.626  -3.687 -11.249  0.00  0.00     0.002 A 
HETATM   26  C           1     -20.378  -3.738 -10.632  0.00  0.00     0.001 A 
HETATM   27  C           1     -23.060  -4.454  -6.946  0.00  0.00     0.096 A 
HETATM   28  H           1     -24.677  -4.288  -8.355  0.00  0.00     0.165 HD
ENDBRANCH  18  19
ENDBRANCH   1  18
TORSDOF 9
ENDMDL
MODEL 4
REMARK VINA RESULT:      -6.5      2.797      4.425
REMARK  9 active torsions:
REMARK  status: ('A' for Active; 'I' for Inactive)
REMARK       I    between atoms: C_1  and  N_10 
REMARK    1  A    between atoms: C_1  and  C_22 
REMARK    2  A    between atoms: C_2  and  C_19 
REMARK    3  A    between atoms: C_2  and  C_17 
REMARK    4  A    between atoms: C_3  and  C_17 
REMARK    5  A    between atoms: C_9  and  C_23 
REMARK    6  A    between atoms: N_10  and  C_17 
REMARK    7  A    between atoms: N_11  and  C_22 
REMARK    8  A    between atoms: S_18  and  C_19 
REMARK    9  A    between atoms: C_22  and  C_23 
ROOT
HETATM    1  C           1     -19.565  -8.515  -3.699  0.00  0.00     0.278 C 
ENDROOT
BRANCH   1   2
HETATM    2  C           1     -20.544  -9.059  -2.689  0.00  0.00     0.249 C 
HETATM    3  N           1     -20.757  -8.390  -1.513  0.00  0.00    -0.345 N 
HETATM    4  H           1     -20.257  -7.532  -1.322  0.00  0.00     0.163 HD
HETATM    5  O           1     -21.141 -10.084  -2.918  0.00  0.00    -0.271 OA
BRANCH   3   6
HETATM    6  C           1     -21.699  -8.913  -0.542  0.00  0.00     0.186 C 
BRANCH   6   7
HETATM    7  C           1     -20.948  -9.364   0.704  0.00  0.00     0.046 C 
BRANCH   7   8
HETATM    8  C           1     -20.810 -10.880   0.694  0.00  0.00     0.076 C 
BRANCH   8   9
HETATM    9  S           1     -22.351 -11.625   0.092  0.00  0.00    -0.173 SA
HETATM   10  C           1     -22.279 -13.106   1.137  0.00  0.00     0.089 C 
ENDBRANCH   8   9
ENDBRANCH   7   8
ENDBRANCH   6   7
BRANCH   6  11
HETATM   11  C           1     -22.687  -7.835  -0.171  0.00  0.00     0.196 C 
HETATM   12  O           1     -23.446  -7.993   0.810  0.00  0.00    -0.646 OA
HETATM   13  O           1     -22.745  -6.782  -0.842  0.00  0.00    -0.646 OA
ENDBRANCH   6  11
ENDBRANCH   3   6
ENDBRANCH   1   2
BRANCH   1  14
HETATM   14  N           1     -18.298  -9.318  -3.649  0.00  0.00    -0.066 N 
HETATM   15  H           1     -18.084  -9.692  -4.601  0.00  0.00     0.275 HD
HETATM   16  H           1     -17.512  -8.708  -3.331  0.00  0.00     0.275 HD
HETATM   17  H           1     -18.416 -10.113  -2.981  0.00  0.00     0.275 HD
ENDBRANCH   1  14
BRANCH   1  18
HETATM   18  C           1     -20.169  -8.607  -5.094  0.00  0.00     0.083 C 
BRANCH  18  19
HETATM   19  C           1     -21.004  -7.394  -5.359  0.00  0.00    -0.028 A 
HETATM   20  C           1     -20.647  -6.295  -6.189  0.00  0.00    -0.002 A 
HETATM   21  C           1     -21.709  -5.391  -6.152  0.00  0.00     0.042 A 
HETATM   22  C           1     -19.519  -5.983  -6.970  0.00  0.00     0.014 A 
HETATM   23  C           1     -21.699  -4.184  -6.862  0.00  0.00     0.030 A 
HETATM   24  N           1     -22.671  -5.930  -5.327  0.00  0.00    -0.365 N 
HETATM   25  C           1     -20.567  -3.896  -7.630  0.00  0.00     0.002 A 
HETATM   26  C           1     -19.492  -4.780  -7.685  0.00  0.00     0.001 A 
HETATM   27  C           1     -22.254  -7.141  -4.842  0.00  0.00     0.096 A 
HETATM   28  H           1     -23.591  -5.477  -5.102  0.00  0.00     0.165 HD
ENDBRANCH  18  19
ENDBRANCH   1  18
TORSDOF 9
ENDMDL
MODEL 5
REMARK VINA RESULT:      -6.4      3.091      8.213
REMARK  9 active torsions:
REMARK  status: ('A' for Active; 'I' for Inactive)
REMARK       I    between atoms: C_1  and  N_10 
REMARK    1  A    between atoms: C_1  and  C_22 
REMARK    2  A    between atoms: C_2  and  C_19 
REMARK    3  A    between atoms: C_2  and  C_17 
REMARK    4  A    between atoms: C_3  and  C_17 
REMARK    5  A    between atoms: C_9  and  C_23 
REMARK    6  A    between atoms: N_10  and  C_17 
REMARK    7  A    between atoms: N_11  and  C_22 
REMARK    8  A    between atoms: S_18  and  C_19 
REMARK    9  A    between atoms: C_22  and  C_23 
ROOT
HETATM    1  C           1     -21.073  -7.042  -4.271  0.00  0.00     0.278 C 
ENDROOT
BRANCH   1   2
HETATM    2  C           1     -21.178  -6.710  -5.739  0.00  0.00     0.249 C 
HETATM    3  N           1     -21.193  -5.402  -6.145  0.00  0.00    -0.345 N 
HETATM    4  H           1     -21.135  -4.660  -5.461  0.00  0.00     0.163 HD
HETATM    5  O           1     -21.247  -7.597  -6.556  0.00  0.00    -0.271 OA
BRANCH   3   6
HETATM    6  C           1     -21.293  -5.082  -7.556  0.00  0.00     0.186 C 
BRANCH   6   7
HETATM    7  C           1     -22.202  -3.874  -7.741  0.00  0.00     0.046 C 
BRANCH   7   8
HETATM    8  C           1     -23.496  -4.311  -8.415  0.00  0.00     0.076 C 
BRANCH   8   9
HETATM    9  S           1     -23.688  -3.426  -9.988  0.00  0.00    -0.173 SA
HETATM   10  C           1     -23.603  -4.892 -11.055  0.00  0.00     0.089 C 
ENDBRANCH   8   9
ENDBRANCH   7   8
ENDBRANCH   6   7
BRANCH   6  11
HETATM   11  C           1     -19.920  -4.764  -8.097  0.00  0.00     0.196 C 
HETATM   12  O           1     -19.741  -4.669  -9.330  0.00  0.00    -0.646 OA
HETATM   13  O           1     -18.963  -4.595  -7.311  0.00  0.00    -0.646 OA
ENDBRANCH   6  11
ENDBRANCH   3   6
ENDBRANCH   1   2
BRANCH   1  14
HETATM   14  N           1     -21.545  -5.872  -3.459  0.00  0.00    -0.066 N 
HETATM   15  H           1     -20.964  -5.789  -2.595  0.00  0.00     0.275 HD
HETATM   16  H           1     -21.456  -4.998  -4.024  0.00  0.00     0.275 HD
HETATM   17  H           1     -22.546  -6.014  -3.193  0.00  0.00     0.275 HD
ENDBRANCH   1  14
BRANCH   1  18
HETATM   18  C           1     -21.940  -8.256  -3.962  0.00  0.00     0.083 C 
BRANCH  18  19
HETATM   19  C           1     -21.315  -9.048  -2.856  0.00  0.00    -0.028 A 
HETATM   20  C           1     -21.468  -8.807  -1.462  0.00  0.00    -0.002 A 
HETATM   21  C           1     -20.718  -9.775  -0.794  0.00  0.00     0.042 A 
HETATM   22  C           1     -22.175  -7.855  -0.705  0.00  0.00     0.014 A 
HETATM   23  C           1     -20.640  -9.839   0.603  0.00  0.00     0.030 A 
HETATM   24  N           1     -20.135 -10.570  -1.755  0.00  0.00    -0.365 N 
HETATM   25  C           1     -21.351  -8.883   1.334  0.00  0.00     0.002 A 
HETATM   26  C           1     -22.107  -7.904   0.693  0.00  0.00     0.001 A 
HETATM   27  C           1     -20.490 -10.139  -3.006  0.00  0.00     0.096 A 
HETATM   28  H           1     -19.508 -11.389  -1.558  0.00  0.00     0.165 HD
ENDBRANCH  18  19
ENDBRANCH   1  18
TORSDOF 9
ENDMDL
MODEL 6
REMARK VINA RESULT:      -6.4      2.557      3.532
REMARK  9 active torsions:
REMARK  status: ('A' for Active; 'I' for Inactive)
REMARK       I    between atoms: C_1  and  N_10 
REMARK    1  A    between atoms: C_1  and  C_22 
REMARK    2  A    between atoms: C_2  and  C_19 
REMARK    3  A    between atoms: C_2  and  C_17 
REMARK    4  A    between atoms: C_3  and  C_17 
REMARK    5  A    between atoms: C_9  and  C_23 
REMARK    6  A    between atoms: N_10  and  C_17 
REMARK    7  A    between atoms: N_11  and  C_22 
REMARK    8  A    between atoms: S_18  and  C_19 
REMARK    9  A    between atoms: C_22  and  C_23 
ROOT
HETATM    1  C           1     -20.357  -6.639  -5.371  0.00  0.00     0.278 C 
ENDROOT
BRANCH   1   2
HETATM    2  C           1     -21.171  -7.302  -4.288  0.00  0.00     0.249 C 
HETATM    3  N           1     -20.751  -7.249  -2.985  0.00  0.00    -0.345 N 
HETATM    4  H           1     -19.894  -6.765  -2.751  0.00  0.00     0.163 HD
HETATM    5  O           1     -22.195  -7.880  -4.569  0.00  0.00    -0.271 OA
BRANCH   3   6
HETATM    6  C           1     -21.534  -7.886  -1.944  0.00  0.00     0.186 C 
BRANCH   6   7
HETATM    7  C           1     -20.601  -8.566  -0.951  0.00  0.00     0.046 C 
BRANCH   7   8
HETATM    8  C           1     -20.682 -10.076  -1.130  0.00  0.00     0.076 C 
BRANCH   8   9
HETATM    9  S           1     -22.263 -10.680  -0.476  0.00  0.00    -0.173 SA
HETATM   10  C           1     -21.555 -11.915   0.650  0.00  0.00     0.089 C 
ENDBRANCH   8   9
ENDBRANCH   7   8
ENDBRANCH   6   7
BRANCH   6  11
HETATM   11  C           1     -22.357  -6.844  -1.227  0.00  0.00     0.196 C 
HETATM   12  O           1     -22.998  -7.152  -0.200  0.00  0.00    -0.646 OA
HETATM   13  O           1     -22.395  -5.672  -1.659  0.00  0.00    -0.646 OA
ENDBRANCH   6  11
ENDBRANCH   3   6
ENDBRANCH   1   2
BRANCH   1  14
HETATM   14  N           1     -20.618  -7.323  -6.681  0.00  0.00    -0.066 N 
HETATM   15  H           1     -20.986  -8.285  -6.506  0.00  0.00     0.275 HD
HETATM   16  H           1     -21.322  -6.775  -7.224  0.00  0.00     0.275 HD
HETATM   17  H           1     -19.728  -7.384  -7.225  0.00  0.00     0.275 HD
ENDBRANCH   1  14
BRANCH   1  18
HETATM   18  C           1     -20.751  -5.172  -5.477  0.00  0.00     0.083 C 
BRANCH  18  19
HETATM   19  C           1     -20.563  -4.704  -6.886  0.00  0.00    -0.028 A 
HETATM   20  C           1     -21.597  -4.408  -7.817  0.00  0.00    -0.002 A 
HETATM   21  C           1     -20.980  -4.010  -9.003  0.00  0.00     0.042 A 
HETATM   22  C           1     -23.003  -4.440  -7.762  0.00  0.00     0.014 A 
HETATM   23  C           1     -21.703  -3.640 -10.144  0.00  0.00     0.030 A 
HETATM   24  N           1     -19.621  -4.065  -8.791  0.00  0.00    -0.365 N 
HETATM   25  C           1     -23.098  -3.680 -10.065  0.00  0.00     0.002 A 
HETATM   26  C           1     -23.741  -4.074  -8.894  0.00  0.00     0.001 A 
HETATM   27  C           1     -19.357  -4.485  -7.514  0.00  0.00     0.096 A 
HETATM   28  H           1     -18.890  -3.823  -9.505  0.00  0.00     0.165 HD
ENDBRANCH  18  19
ENDBRANCH   1  18
TORSDOF 9
ENDMDL
MODEL 7
REMARK VINA RESULT:      -6.3      3.407      8.089
REMARK  9 active torsions:
REMARK  status: ('A' for Active; 'I' for Inactive)
REMARK       I    between atoms: C_1  and  N_10 
REMARK    1  A    between atoms: C_1  and  C_22 
REMARK    2  A    between atoms: C_2  and  C_19 
REMARK    3  A    between atoms: C_2  and  C_17 
REMARK    4  A    between atoms: C_3  and  C_17 
REMARK    5  A    between atoms: C_9  and  C_23 
REMARK    6  A    between atoms: N_10  and  C_17 
REMARK    7  A    between atoms: N_11  and  C_22 
REMARK    8  A    between atoms: S_18  and  C_19 
REMARK    9  A    between atoms: C_22  and  C_23 
ROOT
HETATM    1  C           1     -21.147  -7.772  -5.010  0.00  0.00     0.278 C 
ENDROOT
BRANCH   1   2
HETATM    2  C           1     -20.830  -6.474  -5.711  0.00  0.00     0.249 C 
HETATM    3  N           1     -21.054  -6.349  -7.056  0.00  0.00    -0.345 N 
HETATM    4  H           1     -21.433  -7.128  -7.579  0.00  0.00     0.163 HD
HETATM    5  O           1     -20.378  -5.545  -5.085  0.00  0.00    -0.271 OA
BRANCH   3   6
HETATM    6  C           1     -20.749  -5.101  -7.729  0.00  0.00     0.186 C 
BRANCH   6   7
HETATM    7  C           1     -20.757  -5.322  -9.236  0.00  0.00     0.046 C 
BRANCH   7   8
HETATM    8  C           1     -20.536  -3.993  -9.945  0.00  0.00     0.076 C 
BRANCH   8   9
HETATM    9  S           1     -21.378  -4.015 -11.552  0.00  0.00    -0.173 SA
HETATM   10  C           1     -22.976  -4.611 -10.932  0.00  0.00     0.089 C 
ENDBRANCH   8   9
ENDBRANCH   7   8
ENDBRANCH   6   7
BRANCH   6  11
HETATM   11  C           1     -21.789  -4.070  -7.367  0.00  0.00     0.196 C 
HETATM   12  O           1     -23.004  -4.345  -7.468  0.00  0.00    -0.646 OA
HETATM   13  O           1     -21.435  -2.940  -6.965  0.00  0.00    -0.646 OA
ENDBRANCH   6  11
ENDBRANCH   3   6
ENDBRANCH   1   2
BRANCH   1  14
HETATM   14  N           1     -21.272  -8.870  -6.025  0.00  0.00    -0.066 N 
HETATM   15  H           1     -22.156  -9.401  -5.857  0.00  0.00     0.275 HD
HETATM   16  H           1     -21.292  -8.456  -6.984  0.00  0.00     0.275 HD
HETATM   17  H           1     -20.456  -9.516  -5.941  0.00  0.00     0.275 HD
ENDBRANCH   1  14
BRANCH   1  18
HETATM   18  C           1     -20.028  -8.110  -4.034  0.00  0.00     0.083 C 
BRANCH  18  19
HETATM   19  C           1     -20.575  -8.939  -2.915  0.00  0.00    -0.028 A 
HETATM   20  C           1     -21.373  -8.470  -1.834  0.00  0.00    -0.002 A 
HETATM   21  C           1     -21.660  -9.571  -1.027  0.00  0.00     0.042 A 
HETATM   22  C           1     -21.880  -7.210  -1.467  0.00  0.00     0.014 A 
HETATM   23  C           1     -22.433  -9.473   0.137  0.00  0.00     0.030 A 
HETATM   24  N           1     -21.054 -10.664  -1.603  0.00  0.00    -0.365 N 
HETATM   25  C           1     -22.926  -8.211   0.481  0.00  0.00     0.002 A 
HETATM   26  C           1     -22.655  -7.095  -0.307  0.00  0.00     0.001 A 
HETATM   27  C           1     -20.394 -10.294  -2.745  0.00  0.00     0.096 A 
HETATM   28  H           1     -21.090 -11.642  -1.222  0.00  0.00     0.165 HD
ENDBRANCH  18  19
ENDBRANCH   1  18
TORSDOF 9
ENDMDL
MODEL 8
REMARK VINA RESULT:      -6.0      3.030      7.727
REMARK  9 active torsions:
REMARK  status: ('A' for Active; 'I' for Inactive)
REMARK       I    between atoms: C_1  and  N_10 
REMARK    1  A    between atoms: C_1  and  C_22 
REMARK    2  A    between atoms: C_2  and  C_19 
REMARK    3  A    between atoms: C_2  and  C_17 
REMARK    4  A    between atoms: C_3  and  C_17 
REMARK    5  A    between atoms: C_9  and  C_23 
REMARK    6  A    between atoms: N_10  and  C_17 
REMARK    7  A    between atoms: N_11  and  C_22 
REMARK    8  A    between atoms: S_18  and  C_19 
REMARK    9  A    between atoms: C_22  and  C_23 
ROOT
HETATM    1  C           1     -20.321 -10.803  -4.631  0.00  0.00     0.278 C 
ENDROOT
BRANCH   1   2
HETATM    2  C           1     -20.061  -9.318  -4.562  0.00  0.00     0.249 C 
HETATM    3  N           1     -21.027  -8.435  -4.965  0.00  0.00    -0.345 N 
HETATM    4  H           1     -21.914  -8.778  -5.308  0.00  0.00     0.163 HD
HETATM    5  O           1     -19.001  -8.909  -4.152  0.00  0.00    -0.271 OA
BRANCH   3   6
HETATM    6  C           1     -20.777  -7.008  -4.898  0.00  0.00     0.186 C 
BRANCH   6   7
HETATM    7  C           1     -20.536  -6.468  -6.303  0.00  0.00     0.046 C 
BRANCH   7   8
HETATM    8  C           1     -19.930  -5.074  -6.214  0.00  0.00     0.076 C 
BRANCH   8   9
HETATM    9  S           1     -20.076  -4.247  -7.823  0.00  0.00    -0.173 SA
HETATM   10  C           1     -21.825  -3.791  -7.655  0.00  0.00     0.089 C 
ENDBRANCH   8   9
ENDBRANCH   7   8
ENDBRANCH   6   7
BRANCH   6  11
HETATM   11  C           1     -21.973  -6.317  -4.293  0.00  0.00     0.196 C 
HETATM   12  O           1     -21.939  -5.936  -3.103  0.00  0.00    -0.646 OA
HETATM   13  O           1     -22.998  -6.122  -4.982  0.00  0.00    -0.646 OA
ENDBRANCH   6  11
ENDBRANCH   3   6
ENDBRANCH   1   2
BRANCH   1  14
HETATM   14  N           1     -19.348 -11.438  -5.580  0.00  0.00    -0.066 N 
HETATM   15  H           1     -19.095 -10.754  -6.329  0.00  0.00     0.275 HD
HETATM   16  H           1     -18.487 -11.718  -5.059  0.00  0.00     0.275 HD
HETATM   17  H           1     -19.785 -12.283  -6.013  0.00  0.00     0.275 HD
ENDBRANCH   1  14
BRANCH   1  18
HETATM   18  C           1     -20.151 -11.413  -3.246  0.00  0.00     0.083 C 
BRANCH  18  19
HETATM   19  C           1     -21.390 -11.182  -2.441  0.00  0.00    -0.028 A 
HETATM   20  C           1     -21.597 -10.133  -1.502  0.00  0.00    -0.002 A 
HETATM   21  C           1     -22.883 -10.292  -0.984  0.00  0.00     0.042 A 
HETATM   22  C           1     -20.810  -9.061  -1.043  0.00  0.00     0.014 A 
HETATM   23  C           1     -23.424  -9.427  -0.025  0.00  0.00     0.030 A 
HETATM   24  N           1     -23.429 -11.400  -1.593  0.00  0.00    -0.365 N 
HETATM   25  C           1     -22.623  -8.370   0.416  0.00  0.00     0.002 A 
HETATM   26  C           1     -21.335  -8.187  -0.083  0.00  0.00     0.001 A 
HETATM   27  C           1     -22.535 -11.945  -2.476  0.00  0.00     0.096 A 
HETATM   28  H           1     -24.393 -11.773  -1.407  0.00  0.00     0.165 HD
ENDBRANCH  18  19
ENDBRANCH   1  18
TORSDOF 9
ENDMDL
MODEL 9
REMARK VINA RESULT:      -5.9      3.199      7.944
REMARK  9 active torsions:
REMARK  status: ('A' for Active; 'I' for Inactive)
REMARK       I    between atoms: C_1  and  N_10 
REMARK    1  A    between atoms: C_1  and  C_22 
REMARK    2  A    between atoms: C_2  and  C_19 
REMARK    3  A    between atoms: C_2  and  C_17 
REMARK    4  A    between atoms: C_3  and  C_17 
REMARK    5  A    between atoms: C_9  and  C_23 
REMARK    6  A    between atoms: N_10  and  C_17 
REMARK    7  A    between atoms: N_11  and  C_22 
REMARK    8  A    between atoms: S_18  and  C_19 
REMARK    9  A    between atoms: C_22  and  C_23 
ROOT
HETATM    1  C           1     -21.601  -6.217  -4.727  0.00  0.00     0.278 C 
ENDROOT
BRANCH   1   2
HETATM    2  C           1     -20.982  -6.134  -6.100  0.00  0.00     0.249 C 
HETATM    3  N           1     -21.211  -5.038  -6.889  0.00  0.00    -0.345 N 
HETATM    4  H           1     -21.796  -4.285  -6.550  0.00  0.00     0.163 HD
HETATM    5  O           1     -20.284  -7.033  -6.503  0.00  0.00    -0.271 OA
BRANCH   3   6
HETATM    6  C           1     -20.616  -4.958  -8.209  0.00  0.00     0.186 C 
BRANCH   6   7
HETATM    7  C           1     -21.612  -4.336  -9.179  0.00  0.00     0.046 C 
BRANCH   7   8
HETATM    8  C           1     -23.012  -4.408  -8.585  0.00  0.00     0.076 C 
BRANCH   8   9
HETATM    9  S           1     -24.202  -4.829  -9.889  0.00  0.00    -0.173 SA
HETATM   10  C           1     -24.873  -3.155 -10.096  0.00  0.00     0.089 C 
ENDBRANCH   8   9
ENDBRANCH   7   8
ENDBRANCH   6   7
BRANCH   6  11
HETATM   11  C           1     -19.374  -4.103  -8.148  0.00  0.00     0.196 C 
HETATM   12  O           1     -19.315  -3.038  -8.800  0.00  0.00    -0.646 OA
HETATM   13  O           1     -18.405  -4.458  -7.443  0.00  0.00    -0.646 OA
ENDBRANCH   6  11
ENDBRANCH   3   6
ENDBRANCH   1   2
BRANCH   1  14
HETATM   14  N           1     -23.078  -6.446  -4.857  0.00  0.00    -0.066 N 
HETATM   15  H           1     -23.307  -6.689  -5.847  0.00  0.00     0.275 HD
HETATM   16  H           1     -23.365  -7.231  -4.231  0.00  0.00     0.275 HD
HETATM   17  H           1     -23.590  -5.577  -4.585  0.00  0.00     0.275 HD
ENDBRANCH   1  14
BRANCH   1  18
HETATM   18  C           1     -20.975  -7.372  -3.956  0.00  0.00     0.083 C 
BRANCH  18  19
HETATM   19  C           1     -21.566  -7.435  -2.583  0.00  0.00    -0.028 A 
HETATM   20  C           1     -21.985  -8.613  -1.903  0.00  0.00    -0.002 A 
HETATM   21  C           1     -22.472  -8.217  -0.657  0.00  0.00     0.042 A 
HETATM   22  C           1     -21.994  -9.982  -2.231  0.00  0.00     0.014 A 
HETATM   23  C           1     -22.971  -9.127   0.283  0.00  0.00     0.030 A 
HETATM   24  N           1     -22.350  -6.847  -0.592  0.00  0.00    -0.365 N 
HETATM   25  C           1     -22.971 -10.481  -0.065  0.00  0.00     0.002 A 
HETATM   26  C           1     -22.490 -10.905  -1.302  0.00  0.00     0.001 A 
HETATM   27  C           1     -21.803  -6.364  -1.751  0.00  0.00     0.096 A 
HETATM   28  H           1     -22.635  -6.257   0.229  0.00  0.00     0.165 HD
ENDBRANCH  18  19
ENDBRANCH   1  18
TORSDOF 9
ENDMDL
