MODEL 1
REMARK VINA RESULT:      -7.7      0.000      0.000
REMARK  9 active torsions:
REMARK  status: ('A' for Active; 'I' for Inactive)
REMARK    1  A    between atoms: N_6  and  C_13 
REMARK    2  A    between atoms: C_8  and  C_17 
REMARK    3  A    between atoms: C_8  and  C_10 
REMARK    4  A    between atoms: C_10  and  C_27 
REMARK    5  A    between atoms: N_11  and  C_27 
REMARK       I    between atoms: N_11  and  C_29 
REMARK    6  A    between atoms: C_12  and  C_13 
REMARK    7  A    between atoms: C_12  and  C_23 
REMARK    8  A    between atoms: C_13  and  C_29 
REMARK    9  A    between atoms: C_25  and  C_27 
ROOT
HETATM    1  C           1     -21.286  -7.706  -5.384  0.00  0.00     0.278 C 
ENDROOT
BRANCH   1   2
HETATM    2  N           1     -21.120  -9.125  -5.840  0.00  0.00    -0.066 N 
HETATM    3  H           1     -20.543  -9.146  -6.711  0.00  0.00     0.275 HD
HETATM    4  H           1     -20.642  -9.678  -5.093  0.00  0.00     0.275 HD
HETATM    5  H           1     -22.060  -9.539  -6.035  0.00  0.00     0.275 HD
ENDBRANCH   1   2
BRANCH   1   6
HETATM    6  C           1     -20.337  -7.431  -4.225  0.00  0.00     0.083 C 
BRANCH   6   7
HETATM    7  C           1     -21.127  -7.077  -3.004  0.00  0.00    -0.028 A 
HETATM    8  C           1     -21.550  -5.817  -2.648  0.00  0.00     0.096 A 
HETATM    9  N           1     -22.239  -5.924  -1.469  0.00  0.00    -0.365 N 
HETATM   10  H           1     -22.679  -5.121  -0.956  0.00  0.00     0.165 HD
HETATM   11  C           1     -22.269  -7.236  -1.052  0.00  0.00     0.042 A 
HETATM   12  C           1     -22.852  -7.811   0.083  0.00  0.00     0.030 A 
HETATM   13  C           1     -21.575  -7.984  -2.003  0.00  0.00    -0.002 A 
HETATM   14  C           1     -22.719  -9.194   0.247  0.00  0.00     0.002 A 
HETATM   15  C           1     -22.032  -9.966  -0.687  0.00  0.00     0.001 A 
HETATM   16  C           1     -21.454  -9.374  -1.817  0.00  0.00     0.014 A 
ENDBRANCH   6   7
ENDBRANCH   1   6
BRANCH   1  17
HETATM   17  C           1     -20.972  -6.770  -6.525  0.00  0.00     0.249 C 
HETATM   18  O           1     -19.878  -6.788  -7.038  0.00  0.00    -0.271 OA
HETATM   19  N           1     -21.927  -5.901  -6.981  0.00  0.00    -0.345 N 
HETATM   20  H           1     -22.844  -5.886  -6.551  0.00  0.00     0.163 HD
BRANCH  19  21
HETATM   21  C           1     -21.625  -5.003  -8.078  0.00  0.00     0.186 C 
BRANCH  21  22
HETATM   22  C           1     -22.922  -4.469  -8.670  0.00  0.00     0.046 C 
BRANCH  22  23
HETATM   23  C           1     -22.629  -3.770  -9.991  0.00  0.00     0.116 C 
BRANCH  23  24
HETATM   24  C           1     -23.806  -3.934 -10.921  0.00  0.00     0.172 C 
HETATM   25  O           1     -24.853  -3.279 -10.724  0.00  0.00    -0.648 OA
HETATM   26  O           1     -23.735  -4.725 -11.886  0.00  0.00    -0.648 OA
ENDBRANCH  23  24
ENDBRANCH  22  23
ENDBRANCH  21  22
BRANCH  21  27
HETATM   27  C           1     -20.794  -3.850  -7.569  0.00  0.00     0.196 C 
HETATM   28  O           1     -19.635  -3.676  -8.005  0.00  0.00    -0.646 OA
HETATM   29  O           1     -21.264  -3.071  -6.713  0.00  0.00    -0.646 OA
ENDBRANCH  21  27
ENDBRANCH  19  21
ENDBRANCH   1  17
TORSDOF 9
ENDMDL
MODEL 2
REMARK VINA RESULT:      -7.7      3.156      8.136
REMARK  9 active torsions:
REMARK  status: ('A' for Active; 'I' for Inactive)
REMARK    1  A    between atoms: N_6  and  C_13 
REMARK    2  A    between atoms: C_8  and  C_17 
REMARK    3  A    between atoms: C_8  and  C_10 
REMARK    4  A    between atoms: C_10  and  C_27 
REMARK    5  A    between atoms: N_11  and  C_27 
REMARK       I    between atoms: N_11  and  C_29 
REMARK    6  A    between atoms: C_12  and  C_13 
REMARK    7  A    between atoms: C_12  and  C_23 
REMARK    8  A    between atoms: C_13  and  C_29 
REMARK    9  A    between atoms: C_25  and  C_27 
ROOT
HETATM    1  C           1     -21.671  -6.396  -5.444  0.00  0.00     0.278 C 
ENDROOT
BRANCH   1   2
HETATM    2  N           1     -21.938  -6.008  -4.020  0.00  0.00    -0.066 N 
HETATM    3  H           1     -21.770  -4.983  -3.900  0.00  0.00     0.275 HD
HETATM    4  H           1     -22.932  -6.227  -3.780  0.00  0.00     0.275 HD
HETATM    5  H           1     -21.301  -6.543  -3.388  0.00  0.00     0.275 HD
ENDBRANCH   1   2
BRANCH   1   6
HETATM    6  C           1     -21.002  -5.237  -6.169  0.00  0.00     0.083 C 
BRANCH   6   7
HETATM    7  C           1     -21.898  -4.750  -7.265  0.00  0.00    -0.028 A 
HETATM    8  C           1     -23.236  -4.453  -7.147  0.00  0.00     0.096 A 
HETATM    9  N           1     -23.685  -4.043  -8.375  0.00  0.00    -0.365 N 
HETATM   10  H           1     -24.670  -3.751  -8.588  0.00  0.00     0.165 HD
HETATM   11  C           1     -22.656  -4.071  -9.291  0.00  0.00     0.042 A 
HETATM   12  C           1     -22.647  -3.741 -10.652  0.00  0.00     0.030 A 
HETATM   13  C           1     -21.519  -4.513  -8.616  0.00  0.00    -0.002 A 
HETATM   14  C           1     -21.436  -3.869 -11.339  0.00  0.00     0.002 A 
HETATM   15  C           1     -20.284  -4.308 -10.691  0.00  0.00     0.001 A 
HETATM   16  C           1     -20.311  -4.634  -9.329  0.00  0.00     0.014 A 
ENDBRANCH   6   7
ENDBRANCH   1   6
BRANCH   1  17
HETATM   17  C           1     -20.761  -7.600  -5.474  0.00  0.00     0.249 C 
HETATM   18  O           1     -19.738  -7.570  -6.115  0.00  0.00    -0.271 OA
HETATM   19  N           1     -21.095  -8.728  -4.772  0.00  0.00    -0.345 N 
HETATM   20  H           1     -21.953  -8.755  -4.234  0.00  0.00     0.163 HD
BRANCH  19  21
HETATM   21  C           1     -20.221  -9.884  -4.801  0.00  0.00     0.186 C 
BRANCH  21  22
HETATM   22  C           1     -20.002 -10.391  -3.382  0.00  0.00     0.046 C 
BRANCH  22  23
HETATM   23  C           1     -19.354  -9.296  -2.545  0.00  0.00     0.116 C 
BRANCH  23  24
HETATM   24  C           1     -20.371  -8.723  -1.590  0.00  0.00     0.172 C 
HETATM   25  O           1     -20.737  -9.386  -0.595  0.00  0.00    -0.648 OA
HETATM   26  O           1     -20.849  -7.586  -1.794  0.00  0.00    -0.648 OA
ENDBRANCH  23  24
ENDBRANCH  22  23
ENDBRANCH  21  22
BRANCH  21  27
HETATM   27  C           1     -20.857 -10.974  -5.630  0.00  0.00     0.196 C 
HETATM   28  O           1     -21.869 -11.572  -5.204  0.00  0.00    -0.646 OA
HETATM   29  O           1     -20.372 -11.278  -6.740  0.00  0.00    -0.646 OA
ENDBRANCH  21  27
ENDBRANCH  19  21
ENDBRANCH   1  17
TORSDOF 9
ENDMDL
MODEL 3
REMARK VINA RESULT:      -7.6      3.225      7.957
REMARK  9 active torsions:
REMARK  status: ('A' for Active; 'I' for Inactive)
REMARK    1  A    between atoms: N_6  and  C_13 
REMARK    2  A    between atoms: C_8  and  C_17 
REMARK    3  A    between atoms: C_8  and  C_10 
REMARK    4  A    between atoms: C_10  and  C_27 
REMARK    5  A    between atoms: N_11  and  C_27 
REMARK       I    between atoms: N_11  and  C_29 
REMARK    6  A    between atoms: C_12  and  C_13 
REMARK    7  A    between atoms: C_12  and  C_23 
REMARK    8  A    between atoms: C_13  and  C_29 
REMARK    9  A    between atoms: C_25  and  C_27 
ROOT
HETATM    1  C           1     -21.761  -6.480  -5.670  0.00  0.00     0.278 C 
ENDROOT
BRANCH   1   2
HETATM    2  N           1     -23.061  -6.193  -4.979  0.00  0.00    -0.066 N 
HETATM    3  H           1     -23.450  -5.288  -5.329  0.00  0.00     0.275 HD
HETATM    4  H           1     -23.740  -6.963  -5.179  0.00  0.00     0.275 HD
HETATM    5  H           1     -22.901  -6.129  -3.949  0.00  0.00     0.275 HD
ENDBRANCH   1   2
BRANCH   1   6
HETATM    6  C           1     -20.947  -5.197  -5.771  0.00  0.00     0.083 C 
BRANCH   6   7
HETATM    7  C           1     -20.754  -4.840  -7.212  0.00  0.00    -0.028 A 
HETATM    8  C           1     -19.561  -4.844  -7.897  0.00  0.00     0.096 A 
HETATM    9  N           1     -19.816  -4.457  -9.186  0.00  0.00    -0.365 N 
HETATM   10  H           1     -19.092  -4.368  -9.940  0.00  0.00     0.165 HD
HETATM   11  C           1     -21.158  -4.199  -9.348  0.00  0.00     0.042 A 
HETATM   12  C           1     -21.869  -3.780 -10.480  0.00  0.00     0.030 A 
HETATM   13  C           1     -21.773  -4.433  -8.118  0.00  0.00    -0.002 A 
HETATM   14  C           1     -23.249  -3.596 -10.345  0.00  0.00     0.002 A 
HETATM   15  C           1     -23.889  -3.823  -9.128  0.00  0.00     0.001 A 
HETATM   16  C           1     -23.163  -4.241  -8.006  0.00  0.00     0.014 A 
ENDBRANCH   6   7
ENDBRANCH   1   6
BRANCH   1  17
HETATM   17  C           1     -20.988  -7.507  -4.879  0.00  0.00     0.249 C 
HETATM   18  O           1     -19.807  -7.660  -5.080  0.00  0.00    -0.271 OA
HETATM   19  N           1     -21.625  -8.264  -3.934  0.00  0.00    -0.345 N 
HETATM   20  H           1     -22.615  -8.137  -3.765  0.00  0.00     0.163 HD
BRANCH  19  21
HETATM   21  C           1     -20.882  -9.251  -3.174  0.00  0.00     0.186 C 
BRANCH  21  22
HETATM   22  C           1     -21.208  -9.104  -1.694  0.00  0.00     0.046 C 
BRANCH  22  23
HETATM   23  C           1     -20.953  -7.668  -1.256  0.00  0.00     0.116 C 
BRANCH  23  24
HETATM   24  C           1     -22.267  -6.938  -1.131  0.00  0.00     0.172 C 
HETATM   25  O           1     -22.569  -6.049  -1.956  0.00  0.00    -0.648 OA
HETATM   26  O           1     -23.053  -7.221  -0.201  0.00  0.00    -0.648 OA
ENDBRANCH  23  24
ENDBRANCH  22  23
ENDBRANCH  21  22
BRANCH  21  27
HETATM   27  C           1     -21.266 -10.635  -3.637  0.00  0.00     0.196 C 
HETATM   28  O           1     -22.394 -10.836  -4.137  0.00  0.00    -0.646 OA
HETATM   29  O           1     -20.457 -11.580  -3.521  0.00  0.00    -0.646 OA
ENDBRANCH  21  27
ENDBRANCH  19  21
ENDBRANCH   1  17
TORSDOF 9
ENDMDL
MODEL 4
REMARK VINA RESULT:      -7.6      3.659      8.620
REMARK  9 active torsions:
REMARK  status: ('A' for Active; 'I' for Inactive)
REMARK    1  A    between atoms: N_6  and  C_13 
REMARK    2  A    between atoms: C_8  and  C_17 
REMARK    3  A    between atoms: C_8  and  C_10 
REMARK    4  A    between atoms: C_10  and  C_27 
REMARK    5  A    between atoms: N_11  and  C_27 
REMARK       I    between atoms: N_11  and  C_29 
REMARK    6  A    between atoms: C_12  and  C_13 
REMARK    7  A    between atoms: C_12  and  C_23 
REMARK    8  A    between atoms: C_13  and  C_29 
REMARK    9  A    between atoms: C_25  and  C_27 
ROOT
HETATM    1  C           1     -21.406  -6.260  -5.509  0.00  0.00     0.278 C 
ENDROOT
BRANCH   1   2
HETATM    2  N           1     -21.791  -5.979  -4.087  0.00  0.00    -0.066 N 
HETATM    3  H           1     -20.975  -6.165  -3.460  0.00  0.00     0.275 HD
HETATM    4  H           1     -22.079  -4.978  -3.995  0.00  0.00     0.275 HD
HETATM    5  H           1     -22.588  -6.598  -3.814  0.00  0.00     0.275 HD
ENDBRANCH   1   2
BRANCH   1   6
HETATM    6  C           1     -20.932  -4.973  -6.170  0.00  0.00     0.083 C 
BRANCH   6   7
HETATM    7  C           1     -21.861  -4.614  -7.288  0.00  0.00    -0.028 A 
HETATM    8  C           1     -23.214  -4.392  -7.178  0.00  0.00     0.096 A 
HETATM    9  N           1     -23.692  -4.091  -8.426  0.00  0.00    -0.365 N 
HETATM   10  H           1     -24.695  -3.874  -8.649  0.00  0.00     0.165 HD
HETATM   11  C           1     -22.669  -4.116  -9.346  0.00  0.00     0.042 A 
HETATM   12  C           1     -22.686  -3.876 -10.726  0.00  0.00     0.030 A 
HETATM   13  C           1     -21.503  -4.444  -8.654  0.00  0.00    -0.002 A 
HETATM   14  C           1     -21.472  -3.975 -11.414  0.00  0.00     0.002 A 
HETATM   15  C           1     -20.293  -4.300 -10.748  0.00  0.00     0.001 A 
HETATM   16  C           1     -20.293  -4.537  -9.368  0.00  0.00     0.014 A 
ENDBRANCH   6   7
ENDBRANCH   1   6
BRANCH   1  17
HETATM   17  C           1     -20.293  -7.280  -5.536  0.00  0.00     0.249 C 
HETATM   18  O           1     -19.496  -7.280  -6.443  0.00  0.00    -0.271 OA
HETATM   19  N           1     -20.188  -8.204  -4.531  0.00  0.00    -0.345 N 
HETATM   20  H           1     -20.856  -8.205  -3.771  0.00  0.00     0.163 HD
BRANCH  19  21
HETATM   21  C           1     -19.119  -9.183  -4.558  0.00  0.00     0.186 C 
BRANCH  21  22
HETATM   22  C           1     -18.543  -9.345  -3.158  0.00  0.00     0.046 C 
BRANCH  22  23
HETATM   23  C           1     -17.047  -9.620  -3.251  0.00  0.00     0.116 C 
BRANCH  23  24
HETATM   24  C           1     -16.671 -10.704  -2.272  0.00  0.00     0.172 C 
HETATM   25  O           1     -15.506 -10.762  -1.823  0.00  0.00    -0.648 OA
HETATM   26  O           1     -17.523 -11.543  -1.910  0.00  0.00    -0.648 OA
ENDBRANCH  23  24
ENDBRANCH  22  23
ENDBRANCH  21  22
BRANCH  21  27
HETATM   27  C           1     -19.663 -10.509  -5.032  0.00  0.00     0.196 C 
HETATM   28  O           1     -19.997 -11.380  -4.200  0.00  0.00    -0.646 OA
HETATM   29  O           1     -19.780 -10.735  -6.255  0.00  0.00    -0.646 OA
ENDBRANCH  21  27
ENDBRANCH  19  21
ENDBRANCH   1  17
TORSDOF 9
ENDMDL
MODEL 5
REMARK VINA RESULT:      -7.5      1.570      2.230
REMARK  9 active torsions:
REMARK  status: ('A' for Active; 'I' for Inactive)
REMARK    1  A    between atoms: N_6  and  C_13 
REMARK    2  A    between atoms: C_8  and  C_17 
REMARK    3  A    between atoms: C_8  and  C_10 
REMARK    4  A    between atoms: C_10  and  C_27 
REMARK    5  A    between atoms: N_11  and  C_27 
REMARK       I    between atoms: N_11  and  C_29 
REMARK    6  A    between atoms: C_12  and  C_13 
REMARK    7  A    between atoms: C_12  and  C_23 
REMARK    8  A    between atoms: C_13  and  C_29 
REMARK    9  A    between atoms: C_25  and  C_27 
ROOT
HETATM    1  C           1     -20.982  -6.736  -4.533  0.00  0.00     0.278 C 
ENDROOT
BRANCH   1   2
HETATM    2  N           1     -21.278  -5.489  -3.754  0.00  0.00    -0.066 N 
HETATM    3  H           1     -22.274  -5.504  -3.436  0.00  0.00     0.275 HD
HETATM    4  H           1     -20.648  -5.440  -2.922  0.00  0.00     0.275 HD
HETATM    5  H           1     -21.119  -4.654  -4.362  0.00  0.00     0.275 HD
ENDBRANCH   1   2
BRANCH   1   6
HETATM    6  C           1     -21.926  -7.847  -4.091  0.00  0.00     0.083 C 
BRANCH   6   7
HETATM    7  C           1     -21.309  -8.606  -2.959  0.00  0.00    -0.028 A 
HETATM    8  C           1     -20.392  -9.626  -3.070  0.00  0.00     0.096 A 
HETATM    9  N           1     -20.082 -10.050  -1.805  0.00  0.00    -0.365 N 
HETATM   10  H           1     -19.405 -10.821  -1.579  0.00  0.00     0.165 HD
HETATM   11  C           1     -20.786  -9.323  -0.873  0.00  0.00     0.042 A 
HETATM   12  C           1     -20.790  -9.406   0.525  0.00  0.00     0.030 A 
HETATM   13  C           1     -21.568  -8.405  -1.574  0.00  0.00    -0.002 A 
HETATM   14  C           1     -21.621  -8.523   1.223  0.00  0.00     0.002 A 
HETATM   15  C           1     -22.412  -7.596   0.548  0.00  0.00     0.001 A 
HETATM   16  C           1     -22.396  -7.526  -0.850  0.00  0.00     0.014 A 
ENDBRANCH   6   7
ENDBRANCH   1   6
BRANCH   1  17
HETATM   17  C           1     -21.175  -6.468  -6.005  0.00  0.00     0.249 C 
HETATM   18  O           1     -21.309  -7.388  -6.775  0.00  0.00    -0.271 OA
HETATM   19  N           1     -21.199  -5.179  -6.468  0.00  0.00    -0.345 N 
HETATM   20  H           1     -21.087  -4.407  -5.823  0.00  0.00     0.163 HD
BRANCH  19  21
HETATM   21  C           1     -21.385  -4.921  -7.883  0.00  0.00     0.186 C 
BRANCH  21  22
HETATM   22  C           1     -22.301  -3.719  -8.065  0.00  0.00     0.046 C 
BRANCH  22  23
HETATM   23  C           1     -23.590  -4.160  -8.746  0.00  0.00     0.116 C 
BRANCH  23  24
HETATM   24  C           1     -23.651  -3.578 -10.137  0.00  0.00     0.172 C 
HETATM   25  O           1     -24.734  -3.564 -10.761  0.00  0.00    -0.648 OA
HETATM   26  O           1     -22.618  -3.111 -10.665  0.00  0.00    -0.648 OA
ENDBRANCH  23  24
ENDBRANCH  22  23
ENDBRANCH  21  22
BRANCH  21  27
HETATM   27  C           1     -20.047  -4.633  -8.521  0.00  0.00     0.196 C 
HETATM   28  O           1     -19.878  -4.849  -9.740  0.00  0.00    -0.646 OA
HETATM   29  O           1     -19.111  -4.179  -7.830  0.00  0.00    -0.646 OA
ENDBRANCH  21  27
ENDBRANCH  19  21
ENDBRANCH   1  17
TORSDOF 9
ENDMDL
MODEL 6
REMARK VINA RESULT:      -7.4      3.563      7.966
REMARK  9 active torsions:
REMARK  status: ('A' for Active; 'I' for Inactive)
REMARK    1  A    between atoms: N_6  and  C_13 
REMARK    2  A    between atoms: C_8  and  C_17 
REMARK    3  A    between atoms: C_8  and  C_10 
REMARK    4  A    between atoms: C_10  and  C_27 
REMARK    5  A    between atoms: N_11  and  C_27 
REMARK       I    between atoms: N_11  and  C_29 
REMARK    6  A    between atoms: C_12  and  C_13 
REMARK    7  A    between atoms: C_12  and  C_23 
REMARK    8  A    between atoms: C_13  and  C_29 
REMARK    9  A    between atoms: C_25  and  C_27 
ROOT
HETATM    1  C           1     -21.619  -6.453  -5.265  0.00  0.00     0.278 C 
ENDROOT
BRANCH   1   2
HETATM    2  N           1     -21.563  -5.850  -3.893  0.00  0.00    -0.066 N 
HETATM    3  H           1     -20.877  -6.378  -3.307  0.00  0.00     0.275 HD
HETATM    4  H           1     -21.264  -4.851  -3.963  0.00  0.00     0.275 HD
HETATM    5  H           1     -22.509  -5.901  -3.452  0.00  0.00     0.275 HD
ENDBRANCH   1   2
BRANCH   1   6
HETATM    6  C           1     -20.833  -5.582  -6.235  0.00  0.00     0.083 C 
BRANCH   6   7
HETATM    7  C           1     -21.773  -4.950  -7.213  0.00  0.00    -0.028 A 
HETATM    8  C           1     -23.087  -4.618  -6.977  0.00  0.00     0.096 A 
HETATM    9  N           1     -23.592  -4.064  -8.124  0.00  0.00    -0.365 N 
HETATM   10  H           1     -24.575  -3.715  -8.239  0.00  0.00     0.165 HD
HETATM   11  C           1     -22.625  -4.033  -9.103  0.00  0.00     0.042 A 
HETATM   12  C           1     -22.686  -3.562 -10.421  0.00  0.00     0.030 A 
HETATM   13  C           1     -21.468  -4.586  -8.554  0.00  0.00    -0.002 A 
HETATM   14  C           1     -21.527  -3.662 -11.197  0.00  0.00     0.002 A 
HETATM   15  C           1     -20.357  -4.209 -10.674  0.00  0.00     0.001 A 
HETATM   16  C           1     -20.313  -4.676  -9.355  0.00  0.00     0.014 A 
ENDBRANCH   6   7
ENDBRANCH   1   6
BRANCH   1  17
HETATM   17  C           1     -21.019  -7.838  -5.230  0.00  0.00     0.249 C 
HETATM   18  O           1     -21.266  -8.626  -6.111  0.00  0.00    -0.271 OA
HETATM   19  N           1     -20.193  -8.199  -4.200  0.00  0.00    -0.345 N 
HETATM   20  H           1     -19.985  -7.540  -3.461  0.00  0.00     0.163 HD
BRANCH  19  21
HETATM   21  C           1     -19.616  -9.529  -4.167  0.00  0.00     0.186 C 
BRANCH  21  22
HETATM   22  C           1     -18.115  -9.438  -4.403  0.00  0.00     0.046 C 
BRANCH  22  23
HETATM   23  C           1     -17.817  -9.661  -5.880  0.00  0.00     0.116 C 
BRANCH  23  24
HETATM   24  C           1     -18.182 -11.074  -6.261  0.00  0.00     0.172 C 
HETATM   25  O           1     -17.708 -12.037  -5.619  0.00  0.00    -0.648 OA
HETATM   26  O           1     -18.958 -11.283  -7.219  0.00  0.00    -0.648 OA
ENDBRANCH  23  24
ENDBRANCH  22  23
ENDBRANCH  21  22
BRANCH  21  27
HETATM   27  C           1     -19.874 -10.156  -2.818  0.00  0.00     0.196 C 
HETATM   28  O           1     -18.963 -10.783  -2.237  0.00  0.00    -0.646 OA
HETATM   29  O           1     -20.998 -10.049  -2.284  0.00  0.00    -0.646 OA
ENDBRANCH  21  27
ENDBRANCH  19  21
ENDBRANCH   1  17
TORSDOF 9
ENDMDL
MODEL 7
REMARK VINA RESULT:      -7.4      3.184      8.166
REMARK  9 active torsions:
REMARK  status: ('A' for Active; 'I' for Inactive)
REMARK    1  A    between atoms: N_6  and  C_13 
REMARK    2  A    between atoms: C_8  and  C_17 
REMARK    3  A    between atoms: C_8  and  C_10 
REMARK    4  A    between atoms: C_10  and  C_27 
REMARK    5  A    between atoms: N_11  and  C_27 
REMARK       I    between atoms: N_11  and  C_29 
REMARK    6  A    between atoms: C_12  and  C_13 
REMARK    7  A    between atoms: C_12  and  C_23 
REMARK    8  A    between atoms: C_13  and  C_29 
REMARK    9  A    between atoms: C_25  and  C_27 
ROOT
HETATM    1  C           1     -21.239  -5.479  -5.318  0.00  0.00     0.278 C 
ENDROOT
BRANCH   1   2
HETATM    2  N           1     -20.078  -4.693  -4.785  0.00  0.00    -0.066 N 
HETATM    3  H           1     -20.431  -3.878  -4.235  0.00  0.00     0.275 HD
HETATM    4  H           1     -19.498  -5.305  -4.167  0.00  0.00     0.275 HD
HETATM    5  H           1     -19.496  -4.350  -5.582  0.00  0.00     0.275 HD
ENDBRANCH   1   2
BRANCH   1   6
HETATM    6  C           1     -20.982  -5.843  -6.774  0.00  0.00     0.083 C 
BRANCH   6   7
HETATM    7  C           1     -21.851  -5.006  -7.659  0.00  0.00    -0.028 A 
HETATM    8  C           1     -23.116  -4.553  -7.361  0.00  0.00     0.096 A 
HETATM    9  N           1     -23.564  -3.827  -8.433  0.00  0.00    -0.365 N 
HETATM   10  H           1     -24.501  -3.357  -8.490  0.00  0.00     0.165 HD
HETATM   11  C           1     -22.609  -3.802  -9.424  0.00  0.00     0.042 A 
HETATM   12  C           1     -22.628  -3.190 -10.683  0.00  0.00     0.030 A 
HETATM   13  C           1     -21.519  -4.539  -8.961  0.00  0.00    -0.002 A 
HETATM   14  C           1     -21.495  -3.337 -11.490  0.00  0.00     0.002 A 
HETATM   15  C           1     -20.392  -4.068 -11.054  0.00  0.00     0.001 A 
HETATM   16  C           1     -20.390  -4.674  -9.792  0.00  0.00     0.014 A 
ENDBRANCH   6   7
ENDBRANCH   1   6
BRANCH   1  17
HETATM   17  C           1     -21.408  -6.740  -4.506  0.00  0.00     0.249 C 
HETATM   18  O           1     -21.741  -7.767  -5.046  0.00  0.00    -0.271 OA
HETATM   19  N           1     -21.182  -6.719  -3.155  0.00  0.00    -0.345 N 
HETATM   20  H           1     -20.903  -5.859  -2.701  0.00  0.00     0.163 HD
BRANCH  19  21
HETATM   21  C           1     -21.343  -7.931  -2.375  0.00  0.00     0.186 C 
BRANCH  21  22
HETATM   22  C           1     -19.979  -8.427  -1.917  0.00  0.00     0.046 C 
BRANCH  22  23
HETATM   23  C           1     -19.788  -9.872  -2.357  0.00  0.00     0.116 C 
BRANCH  23  24
HETATM   24  C           1     -19.284  -9.905  -3.778  0.00  0.00     0.172 C 
HETATM   25  O           1     -19.891 -10.577  -4.641  0.00  0.00    -0.648 OA
HETATM   26  O           1     -18.260  -9.262  -4.093  0.00  0.00    -0.648 OA
ENDBRANCH  23  24
ENDBRANCH  22  23
ENDBRANCH  21  22
BRANCH  21  27
HETATM   27  C           1     -22.203  -7.641  -1.169  0.00  0.00     0.196 C 
HETATM   28  O           1     -22.575  -6.471  -0.934  0.00  0.00    -0.646 OA
HETATM   29  O           1     -22.541  -8.570  -0.405  0.00  0.00    -0.646 OA
ENDBRANCH  21  27
ENDBRANCH  19  21
ENDBRANCH   1  17
TORSDOF 9
ENDMDL
MODEL 8
REMARK VINA RESULT:      -7.2      1.714      2.336
REMARK  9 active torsions:
REMARK  status: ('A' for Active; 'I' for Inactive)
REMARK    1  A    between atoms: N_6  and  C_13 
REMARK    2  A    between atoms: C_8  and  C_17 
REMARK    3  A    between atoms: C_8  and  C_10 
REMARK    4  A    between atoms: C_10  and  C_27 
REMARK    5  A    between atoms: N_11  and  C_27 
REMARK       I    between atoms: N_11  and  C_29 
REMARK    6  A    between atoms: C_12  and  C_13 
REMARK    7  A    between atoms: C_12  and  C_23 
REMARK    8  A    between atoms: C_13  and  C_29 
REMARK    9  A    between atoms: C_25  and  C_27 
ROOT
HETATM    1  C           1     -20.934  -7.785  -5.030  0.00  0.00     0.278 C 
ENDROOT
BRANCH   1   2
HETATM    2  N           1     -21.312  -8.832  -6.034  0.00  0.00    -0.066 N 
HETATM    3  H           1     -21.227  -9.779  -5.600  0.00  0.00     0.275 HD
HETATM    4  H           1     -22.299  -8.679  -6.343  0.00  0.00     0.275 HD
HETATM    5  H           1     -20.674  -8.769  -6.859  0.00  0.00     0.275 HD
ENDBRANCH   1   2
BRANCH   1   6
HETATM    6  C           1     -19.679  -8.223  -4.286  0.00  0.00     0.083 C 
BRANCH   6   7
HETATM    7  C           1     -20.066  -8.886  -3.001  0.00  0.00    -0.028 A 
HETATM    8  C           1     -19.656 -10.128  -2.574  0.00  0.00     0.096 A 
HETATM    9  N           1     -20.232 -10.362  -1.353  0.00  0.00    -0.365 N 
HETATM   10  H           1     -20.099 -11.234  -0.784  0.00  0.00     0.165 HD
HETATM   11  C           1     -21.012  -9.290  -0.981  0.00  0.00     0.042 A 
HETATM   12  C           1     -21.781  -9.087   0.171  0.00  0.00     0.030 A 
HETATM   13  C           1     -20.924  -8.345  -2.004  0.00  0.00    -0.002 A 
HETATM   14  C           1     -22.479  -7.880   0.278  0.00  0.00     0.002 A 
HETATM   15  C           1     -22.410  -6.919  -0.728  0.00  0.00     0.001 A 
HETATM   16  C           1     -21.637  -7.138  -1.874  0.00  0.00     0.014 A 
ENDBRANCH   6   7
ENDBRANCH   1   6
BRANCH   1  17
HETATM   17  C           1     -20.669  -6.480  -5.740  0.00  0.00     0.249 C 
HETATM   18  O           1     -20.205  -5.544  -5.132  0.00  0.00    -0.271 OA
HETATM   19  N           1     -20.953  -6.357  -7.073  0.00  0.00    -0.345 N 
HETATM   20  H           1     -21.341  -7.140  -7.584  0.00  0.00     0.163 HD
BRANCH  19  21
HETATM   21  C           1     -20.697  -5.103  -7.756  0.00  0.00     0.186 C 
BRANCH  21  22
HETATM   22  C           1     -20.697  -5.333  -9.260  0.00  0.00     0.046 C 
BRANCH  22  23
HETATM   23  C           1     -20.451  -4.012  -9.978  0.00  0.00     0.116 C 
BRANCH  23  24
HETATM   24  C           1     -21.565  -3.757 -10.962  0.00  0.00     0.172 C 
HETATM   25  O           1     -22.448  -4.624 -11.145  0.00  0.00    -0.648 OA
HETATM   26  O           1     -21.605  -2.681 -11.596  0.00  0.00    -0.648 OA
ENDBRANCH  23  24
ENDBRANCH  22  23
ENDBRANCH  21  22
BRANCH  21  27
HETATM   27  C           1     -21.777  -4.109  -7.401  0.00  0.00     0.196 C 
HETATM   28  O           1     -22.979  -4.406  -7.572  0.00  0.00    -0.646 OA
HETATM   29  O           1     -21.469  -2.991  -6.936  0.00  0.00    -0.646 OA
ENDBRANCH  21  27
ENDBRANCH  19  21
ENDBRANCH   1  17
TORSDOF 9
ENDMDL
MODEL 9
REMARK VINA RESULT:      -7.1      3.605      7.800
REMARK  9 active torsions:
REMARK  status: ('A' for Active; 'I' for Inactive)
REMARK    1  A    between atoms: N_6  and  C_13 
REMARK    2  A    between atoms: C_8  and  C_17 
REMARK    3  A    between atoms: C_8  and  C_10 
REMARK    4  A    between atoms: C_10  and  C_27 
REMARK    5  A    between atoms: N_11  and  C_27 
REMARK       I    between atoms: N_11  and  C_29 
REMARK    6  A    between atoms: C_12  and  C_13 
REMARK    7  A    between atoms: C_12  and  C_23 
REMARK    8  A    between atoms: C_13  and  C_29 
REMARK    9  A    between atoms: C_25  and  C_27 
ROOT
HETATM    1  C           1     -21.193  -5.268  -5.270  0.00  0.00     0.278 C 
ENDROOT
BRANCH   1   2
HETATM    2  N           1     -19.838  -4.695  -4.980  0.00  0.00    -0.066 N 
HETATM    3  H           1     -19.103  -5.304  -5.406  0.00  0.00     0.275 HD
HETATM    4  H           1     -19.771  -3.734  -5.386  0.00  0.00     0.275 HD
HETATM    5  H           1     -19.696  -4.648  -3.946  0.00  0.00     0.275 HD
ENDBRANCH   1   2
BRANCH   1   6
HETATM    6  C           1     -21.186  -5.917  -6.648  0.00  0.00     0.083 C 
BRANCH   6   7
HETATM    7  C           1     -21.917  -5.040  -7.617  0.00  0.00    -0.028 A 
HETATM    8  C           1     -23.162  -4.485  -7.430  0.00  0.00     0.096 A 
HETATM    9  N           1     -23.467  -3.754  -8.548  0.00  0.00    -0.365 N 
HETATM   10  H           1     -24.358  -3.217  -8.689  0.00  0.00     0.165 HD
HETATM   11  C           1     -22.439  -3.827  -9.460  0.00  0.00     0.042 A 
HETATM   12  C           1     -22.311  -3.247 -10.728  0.00  0.00     0.030 A 
HETATM   13  C           1     -21.448  -4.632  -8.897  0.00  0.00    -0.002 A 
HETATM   14  C           1     -21.133  -3.501 -11.439  0.00  0.00     0.002 A 
HETATM   15  C           1     -20.127  -4.301 -10.901  0.00  0.00     0.001 A 
HETATM   16  C           1     -20.271  -4.873  -9.631  0.00  0.00     0.014 A 
ENDBRANCH   6   7
ENDBRANCH   1   6
BRANCH   1  17
HETATM   17  C           1     -21.535  -6.305  -4.228  0.00  0.00     0.249 C 
HETATM   18  O           1     -22.318  -6.041  -3.347  0.00  0.00    -0.271 OA
HETATM   19  N           1     -20.958  -7.545  -4.282  0.00  0.00    -0.345 N 
HETATM   20  H           1     -20.302  -7.768  -5.020  0.00  0.00     0.163 HD
BRANCH  19  21
HETATM   21  C           1     -21.286  -8.541  -3.281  0.00  0.00     0.186 C 
BRANCH  21  22
HETATM   22  C           1     -21.389  -9.910  -3.939  0.00  0.00     0.046 C 
BRANCH  22  23
HETATM   23  C           1     -21.047  -9.791  -5.418  0.00  0.00     0.116 C 
BRANCH  23  24
HETATM   24  C           1     -21.047 -11.161  -6.049  0.00  0.00     0.172 C 
HETATM   25  O           1     -21.953 -11.977  -5.770  0.00  0.00    -0.648 OA
HETATM   26  O           1     -20.141 -11.482  -6.848  0.00  0.00    -0.648 OA
ENDBRANCH  23  24
ENDBRANCH  22  23
ENDBRANCH  21  22
BRANCH  21  27
HETATM   27  C           1     -20.205  -8.571  -2.227  0.00  0.00     0.196 C 
HETATM   28  O           1     -20.405  -8.040  -1.114  0.00  0.00    -0.646 OA
HETATM   29  O           1     -19.112  -9.125  -2.469  0.00  0.00    -0.646 OA
ENDBRANCH  21  27
ENDBRANCH  19  21
ENDBRANCH   1  17
TORSDOF 9
ENDMDL
