MODEL 1
REMARK VINA RESULT:      -7.3      0.000      0.000
REMARK  13 active torsions:
REMARK  status: ('A' for Active; 'I' for Inactive)
REMARK    1  A    between atoms: N_1  and  C_2 
REMARK    2  A    between atoms: C_2  and  C_3 
REMARK    3  A    between atoms: C_3  and  C_4 
REMARK    4  A    between atoms: C_4  and  C_5 
REMARK    5  A    between atoms: C_5  and  C_6 
REMARK    6  A    between atoms: C_5  and  N_9 
REMARK       I    between atoms: N_9  and  C_10 
REMARK    7  A    between atoms: C_10  and  C_11 
REMARK    8  A    between atoms: C_11  and  C_12 
REMARK    9  A    between atoms: C_11  and  N_24 
REMARK   10  A    between atoms: C_12  and  C_13 
REMARK   11  A    between atoms: C_16  and  O_17 
REMARK   12  A    between atoms: O_17  and  P_18 
REMARK   13  A    between atoms: P_18  and  O_19 
ROOT
HETATM    1  C           1     -22.438  -5.032  -6.258  0.00  0.00     0.278 C 
ENDROOT
BRANCH   1   2
HETATM    2  C           1     -22.353  -4.311  -7.581  0.00  0.00     0.249 C 
HETATM    3  N           1     -23.346  -4.466  -8.510  0.00  0.00    -0.345 N 
HETATM    4  H           1     -24.136  -5.066  -8.311  0.00  0.00     0.163 HD
HETATM    5  O           1     -21.410  -3.595  -7.818  0.00  0.00    -0.271 OA
BRANCH   3   6
HETATM    6  C           1     -23.264  -3.773  -9.781  0.00  0.00     0.185 C 
BRANCH   6   7
HETATM    7  C           1     -22.767  -4.734 -10.853  0.00  0.00     0.038 C 
BRANCH   7   8
HETATM    8  C           1     -21.789  -4.009 -11.770  0.00  0.00     0.030 C 
BRANCH   8   9
HETATM    9  C           1     -20.548  -3.615 -10.979  0.00  0.00     0.230 C 
BRANCH   9  10
HETATM   10  N           1     -19.962  -4.832 -10.327  0.00  0.00    -0.079 N 
HETATM   11  H           1     -20.664  -5.605 -10.338  0.00  0.00     0.274 HD
HETATM   12  H           1     -19.108  -5.129 -10.851  0.00  0.00     0.274 HD
HETATM   13  H           1     -19.705  -4.608  -9.339  0.00  0.00     0.274 HD
ENDBRANCH   9  10
ENDBRANCH   8   9
ENDBRANCH   7   8
ENDBRANCH   6   7
BRANCH   6  14
HETATM   14  C           1     -24.630  -3.260 -10.162  0.00  0.00     0.196 C 
HETATM   15  O           1     -25.330  -2.658  -9.318  0.00  0.00    -0.646 OA
HETATM   16  O           1     -25.064  -3.436 -11.321  0.00  0.00    -0.646 OA
ENDBRANCH   6  14
ENDBRANCH   3   6
ENDBRANCH   1   2
BRANCH   1  17
HETATM   17  C           1     -21.616  -6.312  -6.323  0.00  0.00     0.081 C 
BRANCH  17  18
HETATM   18  C           1     -21.439  -6.864  -4.942  0.00  0.00    -0.056 A 
HETATM   19  C           1     -21.225  -5.999  -3.869  0.00  0.00     0.010 A 
HETATM   20  C           1     -21.060  -6.513  -2.582  0.00  0.00     0.038 A 
HETATM   21  C           1     -21.108  -7.891  -2.370  0.00  0.00     0.081 A 
HETATM   22  C           1     -21.322  -8.755  -3.444  0.00  0.00     0.038 A 
HETATM   23  C           1     -21.487  -8.242  -4.730  0.00  0.00     0.010 A 
BRANCH  21  24
HETATM   24  O           1     -20.947  -8.390  -1.120  0.00  0.00    -0.247 OA
BRANCH  24  25
HETATM   25  P           1     -22.211  -8.338  -0.115  0.00  0.00     0.411 P 
HETATM   26  O           1     -21.727  -8.288   1.282  0.00  0.00    -0.624 OA
HETATM   27  O           1     -23.018  -7.131  -0.402  0.00  0.00    -0.624 OA
BRANCH  25  28
HETATM   28  O           1     -23.120  -9.655  -0.324  0.00  0.00    -0.300 OA
HETATM   29  H           1     -22.527 -10.312  -0.648  0.00  0.00     0.223 HD
ENDBRANCH  25  28
ENDBRANCH  24  25
ENDBRANCH  21  24
ENDBRANCH  17  18
ENDBRANCH   1  17
BRANCH   1  30
HETATM   30  N           1     -23.869  -5.371  -5.964  0.00  0.00    -0.066 N 
HETATM   31  H           1     -24.306  -4.596  -5.417  0.00  0.00     0.275 HD
HETATM   32  H           1     -24.388  -5.498  -6.862  0.00  0.00     0.275 HD
HETATM   33  H           1     -23.910  -6.255  -5.409  0.00  0.00     0.275 HD
ENDBRANCH   1  30
TORSDOF 13
ENDMDL
MODEL 2
REMARK VINA RESULT:      -7.1      3.741      8.669
REMARK  13 active torsions:
REMARK  status: ('A' for Active; 'I' for Inactive)
REMARK    1  A    between atoms: N_1  and  C_2 
REMARK    2  A    between atoms: C_2  and  C_3 
REMARK    3  A    between atoms: C_3  and  C_4 
REMARK    4  A    between atoms: C_4  and  C_5 
REMARK    5  A    between atoms: C_5  and  C_6 
REMARK    6  A    between atoms: C_5  and  N_9 
REMARK       I    between atoms: N_9  and  C_10 
REMARK    7  A    between atoms: C_10  and  C_11 
REMARK    8  A    between atoms: C_11  and  C_12 
REMARK    9  A    between atoms: C_11  and  N_24 
REMARK   10  A    between atoms: C_12  and  C_13 
REMARK   11  A    between atoms: C_16  and  O_17 
REMARK   12  A    between atoms: O_17  and  P_18 
REMARK   13  A    between atoms: P_18  and  O_19 
ROOT
HETATM    1  C           1     -21.373  -6.482  -4.921  0.00  0.00     0.278 C 
ENDROOT
BRANCH   1   2
HETATM    2  C           1     -20.777  -7.860  -4.774  0.00  0.00     0.249 C 
HETATM    3  N           1     -20.253  -8.256  -3.573  0.00  0.00    -0.345 N 
HETATM    4  H           1     -20.266  -7.624  -2.783  0.00  0.00     0.163 HD
HETATM    5  O           1     -20.762  -8.615  -5.717  0.00  0.00    -0.271 OA
BRANCH   3   6
HETATM    6  C           1     -19.680  -9.580  -3.432  0.00  0.00     0.185 C 
BRANCH   6   7
HETATM    7  C           1     -18.250  -9.464  -2.924  0.00  0.00     0.038 C 
BRANCH   7   8
HETATM    8  C           1     -17.281  -9.766  -4.061  0.00  0.00     0.030 C 
BRANCH   8   9
HETATM    9  C           1     -17.967 -10.653  -5.092  0.00  0.00     0.230 C 
BRANCH   9  10
HETATM   10  N           1     -18.077  -9.916  -6.393  0.00  0.00    -0.079 N 
HETATM   11  H           1     -17.202  -9.369  -6.558  0.00  0.00     0.274 HD
HETATM   12  H           1     -18.210 -10.601  -7.171  0.00  0.00     0.274 HD
HETATM   13  H           1     -18.894  -9.266  -6.358  0.00  0.00     0.274 HD
ENDBRANCH   9  10
ENDBRANCH   8   9
ENDBRANCH   7   8
ENDBRANCH   6   7
BRANCH   6  14
HETATM   14  C           1     -20.498 -10.380  -2.449  0.00  0.00     0.196 C 
HETATM   15  O           1     -20.068 -10.577  -1.291  0.00  0.00    -0.646 OA
HETATM   16  O           1     -21.606 -10.847  -2.791  0.00  0.00    -0.646 OA
ENDBRANCH   6  14
ENDBRANCH   3   6
ENDBRANCH   1   2
BRANCH   1  17
HETATM   17  C           1     -20.350  -5.550  -5.555  0.00  0.00     0.081 C 
BRANCH  17  18
HETATM   18  C           1     -20.882  -5.034  -6.856  0.00  0.00    -0.056 A 
HETATM   19  C           1     -22.108  -4.370  -6.893  0.00  0.00     0.010 A 
HETATM   20  C           1     -22.605  -3.889  -8.106  0.00  0.00     0.038 A 
HETATM   21  C           1     -21.875  -4.073  -9.280  0.00  0.00     0.081 A 
HETATM   22  C           1     -20.649  -4.737  -9.242  0.00  0.00     0.038 A 
HETATM   23  C           1     -20.152  -5.217  -8.031  0.00  0.00     0.010 A 
BRANCH  21  24
HETATM   24  O           1     -22.357  -3.606 -10.457  0.00  0.00    -0.247 OA
BRANCH  24  25
HETATM   25  P           1     -23.694  -4.288 -11.052  0.00  0.00     0.411 P 
HETATM   26  O           1     -23.997  -5.522 -10.293  0.00  0.00    -0.624 OA
HETATM   27  O           1     -24.826  -3.343 -10.930  0.00  0.00    -0.624 OA
BRANCH  25  28
HETATM   28  O           1     -23.465  -4.656 -12.608  0.00  0.00    -0.300 OA
HETATM   29  H           1     -22.715  -5.227 -12.615  0.00  0.00     0.223 HD
ENDBRANCH  25  28
ENDBRANCH  24  25
ENDBRANCH  21  24
ENDBRANCH  17  18
ENDBRANCH   1  17
BRANCH   1  30
HETATM   30  N           1     -21.757  -5.957  -3.569  0.00  0.00    -0.066 N 
HETATM   31  H           1     -22.767  -5.692  -3.572  0.00  0.00     0.275 HD
HETATM   32  H           1     -21.594  -6.697  -2.850  0.00  0.00     0.275 HD
HETATM   33  H           1     -21.178  -5.117  -3.345  0.00  0.00     0.275 HD
ENDBRANCH   1  30
TORSDOF 13
ENDMDL
MODEL 3
REMARK VINA RESULT:      -6.9      3.818      8.882
REMARK  13 active torsions:
REMARK  status: ('A' for Active; 'I' for Inactive)
REMARK    1  A    between atoms: N_1  and  C_2 
REMARK    2  A    between atoms: C_2  and  C_3 
REMARK    3  A    between atoms: C_3  and  C_4 
REMARK    4  A    between atoms: C_4  and  C_5 
REMARK    5  A    between atoms: C_5  and  C_6 
REMARK    6  A    between atoms: C_5  and  N_9 
REMARK       I    between atoms: N_9  and  C_10 
REMARK    7  A    between atoms: C_10  and  C_11 
REMARK    8  A    between atoms: C_11  and  C_12 
REMARK    9  A    between atoms: C_11  and  N_24 
REMARK   10  A    between atoms: C_12  and  C_13 
REMARK   11  A    between atoms: C_16  and  O_17 
REMARK   12  A    between atoms: O_17  and  P_18 
REMARK   13  A    between atoms: P_18  and  O_19 
ROOT
HETATM    1  C           1     -21.666  -6.499  -4.844  0.00  0.00     0.278 C 
ENDROOT
BRANCH   1   2
HETATM    2  C           1     -21.194  -7.932  -4.802  0.00  0.00     0.249 C 
HETATM    3  N           1     -21.373  -8.680  -3.670  0.00  0.00    -0.345 N 
HETATM    4  H           1     -21.822  -8.272  -2.860  0.00  0.00     0.163 HD
HETATM    5  O           1     -20.658  -8.419  -5.770  0.00  0.00    -0.271 OA
BRANCH   3   6
HETATM    6  C           1     -20.919 -10.056  -3.631  0.00  0.00     0.185 C 
BRANCH   6   7
HETATM    7  C           1     -20.445 -10.395  -2.224  0.00  0.00     0.038 C 
BRANCH   7   8
HETATM    8  C           1     -20.723  -9.219  -1.297  0.00  0.00     0.030 C 
BRANCH   8   9
HETATM    9  C           1     -21.638  -9.669  -0.165  0.00  0.00     0.230 C 
BRANCH   9  10
HETATM   10  N           1     -22.743  -8.670   0.014  0.00  0.00    -0.079 N 
HETATM   11  H           1     -23.666  -9.156  -0.054  0.00  0.00     0.274 HD
HETATM   12  H           1     -22.655  -8.219   0.952  0.00  0.00     0.274 HD
HETATM   13  H           1     -22.677  -7.941  -0.732  0.00  0.00     0.274 HD
ENDBRANCH   9  10
ENDBRANCH   8   9
ENDBRANCH   7   8
ENDBRANCH   6   7
BRANCH   6  14
HETATM   14  C           1     -22.056 -10.971  -4.012  0.00  0.00     0.196 C 
HETATM   15  O           1     -21.980 -11.665  -5.050  0.00  0.00    -0.646 OA
HETATM   16  O           1     -23.075 -11.037  -3.290  0.00  0.00    -0.646 OA
ENDBRANCH   6  14
ENDBRANCH   3   6
ENDBRANCH   1   2
BRANCH   1  17
HETATM   17  C           1     -20.584  -5.624  -5.461  0.00  0.00     0.081 C 
BRANCH  17  18
HETATM   18  C           1     -21.053  -5.111  -6.788  0.00  0.00    -0.056 A 
HETATM   19  C           1     -20.216  -5.189  -7.901  0.00  0.00     0.010 A 
HETATM   20  C           1     -20.653  -4.710  -9.137  0.00  0.00     0.038 A 
HETATM   21  C           1     -21.926  -4.152  -9.258  0.00  0.00     0.081 A 
HETATM   22  C           1     -22.761  -4.074  -8.144  0.00  0.00     0.038 A 
HETATM   23  C           1     -22.325  -4.553  -6.909  0.00  0.00     0.010 A 
BRANCH  21  24
HETATM   24  O           1     -22.349  -3.687 -10.458  0.00  0.00    -0.247 OA
BRANCH  24  25
HETATM   25  P           1     -23.695  -4.324 -11.085  0.00  0.00     0.411 P 
HETATM   26  O           1     -24.036  -5.566 -10.358  0.00  0.00    -0.624 OA
HETATM   27  O           1     -24.805  -3.354 -10.955  0.00  0.00    -0.624 OA
BRANCH  25  28
HETATM   28  O           1     -23.454  -4.662 -12.645  0.00  0.00    -0.300 OA
HETATM   29  H           1     -24.142  -4.207 -13.102  0.00  0.00     0.223 HD
ENDBRANCH  25  28
ENDBRANCH  24  25
ENDBRANCH  21  24
ENDBRANCH  17  18
ENDBRANCH   1  17
BRANCH   1  30
HETATM   30  N           1     -21.954  -6.028  -3.449  0.00  0.00    -0.066 N 
HETATM   31  H           1     -21.081  -5.646  -3.023  0.00  0.00     0.275 HD
HETATM   32  H           1     -22.683  -5.280  -3.478  0.00  0.00     0.275 HD
HETATM   33  H           1     -22.298  -6.831  -2.876  0.00  0.00     0.275 HD
ENDBRANCH   1  30
TORSDOF 13
ENDMDL
MODEL 4
REMARK VINA RESULT:      -6.7      3.753      9.237
REMARK  13 active torsions:
REMARK  status: ('A' for Active; 'I' for Inactive)
REMARK    1  A    between atoms: N_1  and  C_2 
REMARK    2  A    between atoms: C_2  and  C_3 
REMARK    3  A    between atoms: C_3  and  C_4 
REMARK    4  A    between atoms: C_4  and  C_5 
REMARK    5  A    between atoms: C_5  and  C_6 
REMARK    6  A    between atoms: C_5  and  N_9 
REMARK       I    between atoms: N_9  and  C_10 
REMARK    7  A    between atoms: C_10  and  C_11 
REMARK    8  A    between atoms: C_11  and  C_12 
REMARK    9  A    between atoms: C_11  and  N_24 
REMARK   10  A    between atoms: C_12  and  C_13 
REMARK   11  A    between atoms: C_16  and  O_17 
REMARK   12  A    between atoms: O_17  and  P_18 
REMARK   13  A    between atoms: P_18  and  O_19 
ROOT
HETATM    1  C           1     -20.300  -7.407  -5.375  0.00  0.00     0.278 C 
ENDROOT
BRANCH   1   2
HETATM    2  C           1     -20.228  -8.076  -4.024  0.00  0.00     0.249 C 
HETATM    3  N           1     -21.292  -8.002  -3.166  0.00  0.00    -0.345 N 
HETATM    4  H           1     -22.127  -7.499  -3.437  0.00  0.00     0.163 HD
HETATM    5  O           1     -19.231  -8.677  -3.701  0.00  0.00    -0.271 OA
BRANCH   3   6
HETATM    6  C           1     -21.222  -8.644  -1.868  0.00  0.00     0.185 C 
BRANCH   6   7
HETATM    7  C           1     -22.151  -7.929  -0.896  0.00  0.00     0.038 C 
BRANCH   7   8
HETATM    8  C           1     -22.347  -8.790   0.346  0.00  0.00     0.030 C 
BRANCH   8   9
HETATM    9  C           1     -21.136  -8.647   1.259  0.00  0.00     0.230 C 
BRANCH   9  10
HETATM   10  N           1     -20.512  -9.993   1.478  0.00  0.00    -0.079 N 
HETATM   11  H           1     -20.168 -10.370   0.565  0.00  0.00     0.274 HD
HETATM   12  H           1     -19.709  -9.901   2.140  0.00  0.00     0.274 HD
HETATM   13  H           1     -21.222 -10.646   1.879  0.00  0.00     0.274 HD
ENDBRANCH   9  10
ENDBRANCH   8   9
ENDBRANCH   7   8
ENDBRANCH   6   7
BRANCH   6  14
HETATM   14  C           1     -21.645 -10.086  -1.997  0.00  0.00     0.196 C 
HETATM   15  O           1     -22.688 -10.379  -2.623  0.00  0.00    -0.646 OA
HETATM   16  O           1     -20.955 -10.989  -1.477  0.00  0.00    -0.646 OA
ENDBRANCH   6  14
ENDBRANCH   3   6
ENDBRANCH   1   2
BRANCH   1  17
HETATM   17  C           1     -20.634  -5.933  -5.197  0.00  0.00     0.081 C 
BRANCH  17  18
HETATM   18  C           1     -20.994  -5.337  -6.523  0.00  0.00    -0.056 A 
HETATM   19  C           1     -20.090  -5.400  -7.583  0.00  0.00     0.010 A 
HETATM   20  C           1     -20.425  -4.844  -8.819  0.00  0.00     0.038 A 
HETATM   21  C           1     -21.663  -4.227  -8.993  0.00  0.00     0.081 A 
HETATM   22  C           1     -22.567  -4.165  -7.932  0.00  0.00     0.038 A 
HETATM   23  C           1     -22.232  -4.719  -6.697  0.00  0.00     0.010 A 
BRANCH  21  24
HETATM   24  O           1     -21.988  -3.688 -10.193  0.00  0.00    -0.247 OA
BRANCH  24  25
HETATM   25  P           1     -23.343  -4.196 -10.910  0.00  0.00     0.411 P 
HETATM   26  O           1     -23.826  -5.422 -10.237  0.00  0.00    -0.624 OA
HETATM   27  O           1     -24.377  -3.140 -10.813  0.00  0.00    -0.624 OA
BRANCH  25  28
HETATM   28  O           1     -23.044  -4.516 -12.463  0.00  0.00    -0.300 OA
HETATM   29  H           1     -22.154  -4.825 -12.481  0.00  0.00     0.223 HD
ENDBRANCH  25  28
ENDBRANCH  24  25
ENDBRANCH  21  24
ENDBRANCH  17  18
ENDBRANCH   1  17
BRANCH   1  30
HETATM   30  N           1     -21.366  -8.065  -6.202  0.00  0.00    -0.066 N 
HETATM   31  H           1     -21.195  -9.095  -6.235  0.00  0.00     0.275 HD
HETATM   32  H           1     -22.300  -7.881  -5.773  0.00  0.00     0.275 HD
HETATM   33  H           1     -21.342  -7.677  -7.171  0.00  0.00     0.275 HD
ENDBRANCH   1  30
TORSDOF 13
ENDMDL
MODEL 5
REMARK VINA RESULT:      -6.6      4.197      8.492
REMARK  13 active torsions:
REMARK  status: ('A' for Active; 'I' for Inactive)
REMARK    1  A    between atoms: N_1  and  C_2 
REMARK    2  A    between atoms: C_2  and  C_3 
REMARK    3  A    between atoms: C_3  and  C_4 
REMARK    4  A    between atoms: C_4  and  C_5 
REMARK    5  A    between atoms: C_5  and  C_6 
REMARK    6  A    between atoms: C_5  and  N_9 
REMARK       I    between atoms: N_9  and  C_10 
REMARK    7  A    between atoms: C_10  and  C_11 
REMARK    8  A    between atoms: C_11  and  C_12 
REMARK    9  A    between atoms: C_11  and  N_24 
REMARK   10  A    between atoms: C_12  and  C_13 
REMARK   11  A    between atoms: C_16  and  O_17 
REMARK   12  A    between atoms: O_17  and  P_18 
REMARK   13  A    between atoms: P_18  and  O_19 
ROOT
HETATM    1  C           1     -21.360  -6.881  -5.037  0.00  0.00     0.278 C 
ENDROOT
BRANCH   1   2
HETATM    2  C           1     -20.663  -8.130  -4.555  0.00  0.00     0.249 C 
HETATM    3  N           1     -20.404  -9.151  -5.429  0.00  0.00    -0.345 N 
HETATM    4  H           1     -20.681  -9.068  -6.399  0.00  0.00     0.163 HD
HETATM    5  O           1     -20.333  -8.228  -3.397  0.00  0.00    -0.271 OA
BRANCH   3   6
HETATM    6  C           1     -19.736 -10.350  -4.966  0.00  0.00     0.185 C 
BRANCH   6   7
HETATM    7  C           1     -20.654 -11.550  -5.153  0.00  0.00     0.038 C 
BRANCH   7   8
HETATM    8  C           1     -21.263 -11.510  -6.549  0.00  0.00     0.030 C 
BRANCH   8   9
HETATM    9  C           1     -21.079 -12.864  -7.223  0.00  0.00     0.230 C 
BRANCH   9  10
HETATM   10  N           1     -19.743 -12.907  -7.903  0.00  0.00    -0.079 N 
HETATM   11  H           1     -19.878 -12.879  -8.939  0.00  0.00     0.274 HD
HETATM   12  H           1     -19.174 -12.083  -7.604  0.00  0.00     0.274 HD
HETATM   13  H           1     -19.247 -13.788  -7.640  0.00  0.00     0.274 HD
ENDBRANCH   9  10
ENDBRANCH   8   9
ENDBRANCH   7   8
ENDBRANCH   6   7
BRANCH   6  14
HETATM   14  C           1     -18.470 -10.559  -5.760  0.00  0.00     0.196 C 
HETATM   15  O           1     -17.854 -11.644  -5.682  0.00  0.00    -0.646 OA
HETATM   16  O           1     -18.036  -9.646  -6.496  0.00  0.00    -0.646 OA
ENDBRANCH   6  14
ENDBRANCH   3   6
ENDBRANCH   1   2
BRANCH   1  17
HETATM   17  C           1     -20.339  -5.931  -5.647  0.00  0.00     0.081 C 
BRANCH  17  18
HETATM   18  C           1     -20.922  -5.287  -6.867  0.00  0.00    -0.056 A 
HETATM   19  C           1     -20.228  -5.330  -8.076  0.00  0.00     0.010 A 
HETATM   20  C           1     -20.771  -4.729  -9.213  0.00  0.00     0.038 A 
HETATM   21  C           1     -22.007  -4.086  -9.139  0.00  0.00     0.081 A 
HETATM   22  C           1     -22.699  -4.043  -7.929  0.00  0.00     0.038 A 
HETATM   23  C           1     -22.157  -4.643  -6.793  0.00  0.00     0.010 A 
BRANCH  21  24
HETATM   24  O           1     -22.534  -3.503 -10.243  0.00  0.00    -0.247 OA
BRANCH  24  25
HETATM   25  P           1     -23.837  -4.184 -10.911  0.00  0.00     0.411 P 
HETATM   26  O           1     -24.963  -3.225 -10.882  0.00  0.00    -0.624 OA
HETATM   27  O           1     -23.536  -4.552 -12.313  0.00  0.00    -0.624 OA
BRANCH  25  28
HETATM   28  O           1     -24.237  -5.510 -10.080  0.00  0.00    -0.300 OA
HETATM   29  H           1     -23.554  -5.611  -9.438  0.00  0.00     0.223 HD
ENDBRANCH  25  28
ENDBRANCH  24  25
ENDBRANCH  21  24
ENDBRANCH  17  18
ENDBRANCH   1  17
BRANCH   1  30
HETATM   30  N           1     -22.038  -6.210  -3.879  0.00  0.00    -0.066 N 
HETATM   31  H           1     -22.905  -6.737  -3.629  0.00  0.00     0.275 HD
HETATM   32  H           1     -21.392  -6.195  -3.059  0.00  0.00     0.275 HD
HETATM   33  H           1     -22.291  -5.231  -4.144  0.00  0.00     0.275 HD
ENDBRANCH   1  30
TORSDOF 13
ENDMDL
MODEL 6
REMARK VINA RESULT:      -6.4      1.506      2.017
REMARK  13 active torsions:
REMARK  status: ('A' for Active; 'I' for Inactive)
REMARK    1  A    between atoms: N_1  and  C_2 
REMARK    2  A    between atoms: C_2  and  C_3 
REMARK    3  A    between atoms: C_3  and  C_4 
REMARK    4  A    between atoms: C_4  and  C_5 
REMARK    5  A    between atoms: C_5  and  C_6 
REMARK    6  A    between atoms: C_5  and  N_9 
REMARK       I    between atoms: N_9  and  C_10 
REMARK    7  A    between atoms: C_10  and  C_11 
REMARK    8  A    between atoms: C_11  and  C_12 
REMARK    9  A    between atoms: C_11  and  N_24 
REMARK   10  A    between atoms: C_12  and  C_13 
REMARK   11  A    between atoms: C_16  and  O_17 
REMARK   12  A    between atoms: O_17  and  P_18 
REMARK   13  A    between atoms: P_18  and  O_19 
ROOT
HETATM    1  C           1     -21.261  -5.545  -6.467  0.00  0.00     0.278 C 
ENDROOT
BRANCH   1   2
HETATM    2  C           1     -21.737  -4.552  -7.500  0.00  0.00     0.249 C 
HETATM    3  N           1     -22.404  -4.987  -8.612  0.00  0.00    -0.345 N 
HETATM    4  H           1     -22.579  -5.975  -8.743  0.00  0.00     0.163 HD
HETATM    5  O           1     -21.528  -3.373  -7.343  0.00  0.00    -0.271 OA
BRANCH   3   6
HETATM    6  C           1     -22.860  -4.033  -9.603  0.00  0.00     0.185 C 
BRANCH   6   7
HETATM    7  C           1     -22.395  -4.473 -10.985  0.00  0.00     0.038 C 
BRANCH   7   8
HETATM    8  C           1     -20.883  -4.660 -10.976  0.00  0.00     0.030 C 
BRANCH   8   9
HETATM    9  C           1     -20.202  -3.298 -11.023  0.00  0.00     0.230 C 
BRANCH   9  10
HETATM   10  N           1     -21.102  -2.311 -11.705  0.00  0.00    -0.079 N 
HETATM   11  H           1     -20.526  -1.551 -12.132  0.00  0.00     0.274 HD
HETATM   12  H           1     -21.645  -2.797 -12.454  0.00  0.00     0.274 HD
HETATM   13  H           1     -21.761  -1.900 -11.007  0.00  0.00     0.274 HD
ENDBRANCH   9  10
ENDBRANCH   8   9
ENDBRANCH   7   8
ENDBRANCH   6   7
BRANCH   6  14
HETATM   14  C           1     -24.367  -3.965  -9.580  0.00  0.00     0.196 C 
HETATM   15  O           1     -24.942  -2.860  -9.470  0.00  0.00    -0.646 OA
HETATM   16  O           1     -25.042  -5.014  -9.670  0.00  0.00    -0.646 OA
ENDBRANCH   6  14
ENDBRANCH   3   6
ENDBRANCH   1   2
BRANCH   1  17
HETATM   17  C           1     -22.413  -5.905  -5.539  0.00  0.00     0.081 C 
BRANCH  17  18
HETATM   18  C           1     -21.909  -6.783  -4.434  0.00  0.00    -0.056 A 
HETATM   19  C           1     -21.506  -8.088  -4.711  0.00  0.00     0.010 A 
HETATM   20  C           1     -21.037  -8.906  -3.681  0.00  0.00     0.038 A 
HETATM   21  C           1     -20.972  -8.417  -2.377  0.00  0.00     0.081 A 
HETATM   22  C           1     -21.375  -7.110  -2.102  0.00  0.00     0.038 A 
HETATM   23  C           1     -21.844  -6.293  -3.130  0.00  0.00     0.010 A 
BRANCH  21  24
HETATM   24  O           1     -20.516  -9.211  -1.378  0.00  0.00    -0.247 OA
BRANCH  24  25
HETATM   25  P           1     -21.557 -10.237  -0.691  0.00  0.00     0.411 P 
HETATM   26  O           1     -21.658 -11.462  -1.516  0.00  0.00    -0.624 OA
HETATM   27  O           1     -21.078 -10.592   0.663  0.00  0.00    -0.624 OA
BRANCH  25  28
HETATM   28  O           1     -23.009  -9.540  -0.583  0.00  0.00    -0.300 OA
HETATM   29  H           1     -23.297  -9.437  -1.475  0.00  0.00     0.223 HD
ENDBRANCH  25  28
ENDBRANCH  24  25
ENDBRANCH  21  24
ENDBRANCH  17  18
ENDBRANCH   1  17
BRANCH   1  30
HETATM   30  N           1     -20.145  -4.939  -5.668  0.00  0.00    -0.066 N 
HETATM   31  H           1     -20.154  -3.901  -5.789  0.00  0.00     0.275 HD
HETATM   32  H           1     -20.274  -5.172  -4.659  0.00  0.00     0.275 HD
HETATM   33  H           1     -19.232  -5.321  -6.003  0.00  0.00     0.275 HD
ENDBRANCH   1  30
TORSDOF 13
ENDMDL
MODEL 7
REMARK VINA RESULT:      -6.4      3.706      9.263
REMARK  13 active torsions:
REMARK  status: ('A' for Active; 'I' for Inactive)
REMARK    1  A    between atoms: N_1  and  C_2 
REMARK    2  A    between atoms: C_2  and  C_3 
REMARK    3  A    between atoms: C_3  and  C_4 
REMARK    4  A    between atoms: C_4  and  C_5 
REMARK    5  A    between atoms: C_5  and  C_6 
REMARK    6  A    between atoms: C_5  and  N_9 
REMARK       I    between atoms: N_9  and  C_10 
REMARK    7  A    between atoms: C_10  and  C_11 
REMARK    8  A    between atoms: C_11  and  C_12 
REMARK    9  A    between atoms: C_11  and  N_24 
REMARK   10  A    between atoms: C_12  and  C_13 
REMARK   11  A    between atoms: C_16  and  O_17 
REMARK   12  A    between atoms: O_17  and  P_18 
REMARK   13  A    between atoms: P_18  and  O_19 
ROOT
HETATM    1  C           1     -21.686  -6.803  -4.728  0.00  0.00     0.278 C 
ENDROOT
BRANCH   1   2
HETATM    2  C           1     -21.472  -7.544  -3.430  0.00  0.00     0.249 C 
HETATM    3  N           1     -21.591  -8.907  -3.393  0.00  0.00    -0.345 N 
HETATM    4  H           1     -21.823  -9.418  -4.235  0.00  0.00     0.163 HD
HETATM    5  O           1     -21.194  -6.934  -2.426  0.00  0.00    -0.271 OA
BRANCH   3   6
HETATM    6  C           1     -21.386  -9.619  -2.147  0.00  0.00     0.185 C 
BRANCH   6   7
HETATM    7  C           1     -22.656 -10.374  -1.777  0.00  0.00     0.038 C 
BRANCH   7   8
HETATM    8  C           1     -22.916 -10.229  -0.283  0.00  0.00     0.030 C 
BRANCH   8   9
HETATM    9  C           1     -22.410  -8.872   0.193  0.00  0.00     0.230 C 
BRANCH   9  10
HETATM   10  N           1     -23.572  -8.025   0.617  0.00  0.00    -0.079 N 
HETATM   11  H           1     -24.154  -8.551   1.307  0.00  0.00     0.274 HD
HETATM   12  H           1     -23.218  -7.147   1.059  0.00  0.00     0.274 HD
HETATM   13  H           1     -24.152  -7.786  -0.218  0.00  0.00     0.274 HD
ENDBRANCH   9  10
ENDBRANCH   8   9
ENDBRANCH   7   8
ENDBRANCH   6   7
BRANCH   6  14
HETATM   14  C           1     -20.250 -10.598  -2.308  0.00  0.00     0.196 C 
HETATM   15  O           1     -19.290 -10.580  -1.506  0.00  0.00    -0.646 OA
HETATM   16  O           1     -20.266 -11.427  -3.243  0.00  0.00    -0.646 OA
ENDBRANCH   6  14
ENDBRANCH   3   6
ENDBRANCH   1   2
BRANCH   1  17
HETATM   17  C           1     -20.741  -5.611  -4.794  0.00  0.00     0.081 C 
BRANCH  17  18
HETATM   18  C           1     -20.665  -5.111  -6.204  0.00  0.00    -0.056 A 
HETATM   19  C           1     -20.103  -5.912  -7.197  0.00  0.00     0.010 A 
HETATM   20  C           1     -20.031  -5.446  -8.511  0.00  0.00     0.038 A 
HETATM   21  C           1     -20.523  -4.180  -8.829  0.00  0.00     0.081 A 
HETATM   22  C           1     -21.085  -3.380  -7.835  0.00  0.00     0.038 A 
HETATM   23  C           1     -21.156  -3.845  -6.522  0.00  0.00     0.010 A 
BRANCH  21  24
HETATM   24  O           1     -20.453  -3.728 -10.105  0.00  0.00    -0.247 OA
BRANCH  24  25
HETATM   25  P           1     -21.820  -3.672 -10.964  0.00  0.00     0.411 P 
HETATM   26  O           1     -22.977  -3.864 -10.062  0.00  0.00    -0.624 OA
HETATM   27  O           1     -21.928  -2.356 -11.633  0.00  0.00    -0.624 OA
BRANCH  25  28
HETATM   28  O           1     -21.805  -4.841 -12.077  0.00  0.00    -0.300 OA
HETATM   29  H           1     -22.705  -5.105 -12.167  0.00  0.00     0.223 HD
ENDBRANCH  25  28
ENDBRANCH  24  25
ENDBRANCH  21  24
ENDBRANCH  17  18
ENDBRANCH   1  17
BRANCH   1  30
HETATM   30  N           1     -23.105  -6.321  -4.799  0.00  0.00    -0.066 N 
HETATM   31  H           1     -23.257  -5.578  -4.081  0.00  0.00     0.275 HD
HETATM   32  H           1     -23.292  -5.931  -5.749  0.00  0.00     0.275 HD
HETATM   33  H           1     -23.752  -7.120  -4.614  0.00  0.00     0.275 HD
ENDBRANCH   1  30
TORSDOF 13
ENDMDL
MODEL 8
REMARK VINA RESULT:      -6.2     13.171     15.300
REMARK  13 active torsions:
REMARK  status: ('A' for Active; 'I' for Inactive)
REMARK    1  A    between atoms: N_1  and  C_2 
REMARK    2  A    between atoms: C_2  and  C_3 
REMARK    3  A    between atoms: C_3  and  C_4 
REMARK    4  A    between atoms: C_4  and  C_5 
REMARK    5  A    between atoms: C_5  and  C_6 
REMARK    6  A    between atoms: C_5  and  N_9 
REMARK       I    between atoms: N_9  and  C_10 
REMARK    7  A    between atoms: C_10  and  C_11 
REMARK    8  A    between atoms: C_11  and  C_12 
REMARK    9  A    between atoms: C_11  and  N_24 
REMARK   10  A    between atoms: C_12  and  C_13 
REMARK   11  A    between atoms: C_16  and  O_17 
REMARK   12  A    between atoms: O_17  and  P_18 
REMARK   13  A    between atoms: P_18  and  O_19 
ROOT
HETATM    1  C           1     -35.064  -0.289 -12.109  0.00  0.00     0.278 C 
ENDROOT
BRANCH   1   2
HETATM    2  C           1     -35.721  -0.920 -13.313  0.00  0.00     0.249 C 
HETATM    3  N           1     -34.970  -1.250 -14.409  0.00  0.00    -0.345 N 
HETATM    4  H           1     -33.974  -1.071 -14.412  0.00  0.00     0.163 HD
HETATM    5  O           1     -36.910  -1.134 -13.308  0.00  0.00    -0.271 OA
BRANCH   3   6
HETATM    6  C           1     -35.602  -1.855 -15.564  0.00  0.00     0.185 C 
BRANCH   6   7
HETATM    7  C           1     -36.079  -0.764 -16.513  0.00  0.00     0.038 C 
BRANCH   7   8
HETATM    8  C           1     -37.602  -0.722 -16.513  0.00  0.00     0.030 C 
BRANCH   8   9
HETATM    9  C           1     -38.075   0.593 -15.905  0.00  0.00     0.230 C 
BRANCH   9  10
HETATM   10  N           1     -36.932   1.562 -15.858  0.00  0.00    -0.079 N 
HETATM   11  H           1     -36.657   1.729 -14.864  0.00  0.00     0.274 HD
HETATM   12  H           1     -36.119   1.166 -16.382  0.00  0.00     0.274 HD
HETATM   13  H           1     -37.223   2.465 -16.296  0.00  0.00     0.274 HD
ENDBRANCH   9  10
ENDBRANCH   8   9
ENDBRANCH   7   8
ENDBRANCH   6   7
BRANCH   6  14
HETATM   14  C           1     -34.607  -2.738 -16.276  0.00  0.00     0.196 C 
HETATM   15  O           1     -34.324  -3.864 -15.811  0.00  0.00    -0.646 OA
HETATM   16  O           1     -34.063  -2.344 -17.331  0.00  0.00    -0.646 OA
ENDBRANCH   6  14
ENDBRANCH   3   6
ENDBRANCH   1   2
BRANCH   1  17
HETATM   17  C           1     -35.476  -1.042 -10.852  0.00  0.00     0.081 C 
BRANCH  17  18
HETATM   18  C           1     -34.903  -2.425 -10.887  0.00  0.00    -0.056 A 
HETATM   19  C           1     -33.529  -2.606 -11.040  0.00  0.00     0.010 A 
HETATM   20  C           1     -32.994  -3.895 -11.074  0.00  0.00     0.038 A 
HETATM   21  C           1     -33.835  -5.002 -10.954  0.00  0.00     0.081 A 
HETATM   22  C           1     -35.210  -4.820 -10.800  0.00  0.00     0.038 A 
HETATM   23  C           1     -35.744  -3.532 -10.767  0.00  0.00     0.010 A 
BRANCH  21  24
HETATM   24  O           1     -33.316  -6.253 -10.986  0.00  0.00    -0.247 OA
BRANCH  24  25
HETATM   25  P           1     -34.243  -7.471 -10.472  0.00  0.00     0.411 P 
HETATM   26  O           1     -33.390  -8.636 -10.147  0.00  0.00    -0.624 OA
HETATM   27  O           1     -34.985  -7.049  -9.262  0.00  0.00    -0.624 OA
BRANCH  25  28
HETATM   28  O           1     -35.291  -7.878 -11.631  0.00  0.00    -0.300 OA
HETATM   29  H           1     -34.758  -8.069 -12.385  0.00  0.00     0.223 HD
ENDBRANCH  25  28
ENDBRANCH  24  25
ENDBRANCH  21  24
ENDBRANCH  17  18
ENDBRANCH   1  17
BRANCH   1  30
HETATM   30  N           1     -35.496   1.143 -11.998  0.00  0.00    -0.066 N 
HETATM   31  H           1     -35.724   1.513 -12.949  0.00  0.00     0.275 HD
HETATM   32  H           1     -36.343   1.205 -11.390  0.00  0.00     0.275 HD
HETATM   33  H           1     -34.723   1.708 -11.581  0.00  0.00     0.275 HD
ENDBRANCH   1  30
TORSDOF 13
ENDMDL
MODEL 9
REMARK VINA RESULT:      -6.1      2.346      2.921
REMARK  13 active torsions:
REMARK  status: ('A' for Active; 'I' for Inactive)
REMARK    1  A    between atoms: N_1  and  C_2 
REMARK    2  A    between atoms: C_2  and  C_3 
REMARK    3  A    between atoms: C_3  and  C_4 
REMARK    4  A    between atoms: C_4  and  C_5 
REMARK    5  A    between atoms: C_5  and  C_6 
REMARK    6  A    between atoms: C_5  and  N_9 
REMARK       I    between atoms: N_9  and  C_10 
REMARK    7  A    between atoms: C_10  and  C_11 
REMARK    8  A    between atoms: C_11  and  C_12 
REMARK    9  A    between atoms: C_11  and  N_24 
REMARK   10  A    between atoms: C_12  and  C_13 
REMARK   11  A    between atoms: C_16  and  O_17 
REMARK   12  A    between atoms: O_17  and  P_18 
REMARK   13  A    between atoms: P_18  and  O_19 
ROOT
HETATM    1  C           1     -21.191  -5.457  -6.493  0.00  0.00     0.278 C 
ENDROOT
BRANCH   1   2
HETATM    2  C           1     -21.780  -4.312  -7.282  0.00  0.00     0.249 C 
HETATM    3  N           1     -22.666  -4.562  -8.295  0.00  0.00    -0.345 N 
HETATM    4  H           1     -22.926  -5.515  -8.515  0.00  0.00     0.163 HD
HETATM    5  O           1     -21.469  -3.175  -7.018  0.00  0.00    -0.271 OA
BRANCH   3   6
HETATM    6  C           1     -23.230  -3.463  -9.052  0.00  0.00     0.185 C 
BRANCH   6   7
HETATM    7  C           1     -22.311  -3.123 -10.217  0.00  0.00     0.038 C 
BRANCH   7   8
HETATM    8  C           1     -21.716  -4.406 -10.785  0.00  0.00     0.030 C 
BRANCH   8   9
HETATM    9  C           1     -22.067  -4.517 -12.264  0.00  0.00     0.230 C 
BRANCH   9  10
HETATM   10  N           1     -23.399  -5.189 -12.413  0.00  0.00    -0.079 N 
HETATM   11  H           1     -24.063  -4.543 -12.897  0.00  0.00     0.274 HD
HETATM   12  H           1     -23.288  -6.060 -12.979  0.00  0.00     0.274 HD
HETATM   13  H           1     -23.775  -5.432 -11.469  0.00  0.00     0.274 HD
ENDBRANCH   9  10
ENDBRANCH   8   9
ENDBRANCH   7   8
ENDBRANCH   6   7
BRANCH   6  14
HETATM   14  C           1     -24.586  -3.860  -9.581  0.00  0.00     0.196 C 
HETATM   15  O           1     -25.453  -2.986  -9.800  0.00  0.00    -0.646 OA
HETATM   16  O           1     -24.843  -5.063  -9.801  0.00  0.00    -0.646 OA
ENDBRANCH   6  14
ENDBRANCH   3   6
ENDBRANCH   1   2
BRANCH   1  17
HETATM   17  C           1     -22.211  -5.953  -5.478  0.00  0.00     0.081 C 
BRANCH  17  18
HETATM   18  C           1     -21.599  -7.035  -4.642  0.00  0.00    -0.056 A 
HETATM   19  C           1     -21.441  -6.849  -3.269  0.00  0.00     0.010 A 
HETATM   20  C           1     -20.870  -7.857  -2.490  0.00  0.00     0.038 A 
HETATM   21  C           1     -20.459  -9.050  -3.086  0.00  0.00     0.081 A 
HETATM   22  C           1     -20.618  -9.234  -4.459  0.00  0.00     0.038 A 
HETATM   23  C           1     -21.188  -8.227  -5.238  0.00  0.00     0.010 A 
BRANCH  21  24
HETATM   24  O           1     -19.905 -10.028  -2.330  0.00  0.00    -0.247 OA
BRANCH  24  25
HETATM   25  P           1     -18.413 -10.521  -2.702  0.00  0.00     0.411 P 
HETATM   26  O           1     -17.806 -11.182  -1.526  0.00  0.00    -0.624 OA
HETATM   27  O           1     -18.478 -11.479  -3.829  0.00  0.00    -0.624 OA
BRANCH  25  28
HETATM   28  O           1     -17.516  -9.248  -3.127  0.00  0.00    -0.300 OA
HETATM   29  H           1     -17.513  -9.256  -4.070  0.00  0.00     0.223 HD
ENDBRANCH  25  28
ENDBRANCH  24  25
ENDBRANCH  21  24
ENDBRANCH  17  18
ENDBRANCH   1  17
BRANCH   1  30
HETATM   30  N           1     -19.959  -4.988  -5.777  0.00  0.00    -0.066 N 
HETATM   31  H           1     -19.311  -5.795  -5.633  0.00  0.00     0.275 HD
HETATM   32  H           1     -19.482  -4.256  -6.348  0.00  0.00     0.275 HD
HETATM   33  H           1     -20.228  -4.589  -4.849  0.00  0.00     0.275 HD
ENDBRANCH   1  30
TORSDOF 13
ENDMDL
