MODEL 1
REMARK VINA RESULT:      -5.7      0.000      0.000
REMARK  10 active torsions:
REMARK  status: ('A' for Active; 'I' for Inactive)
REMARK    1  A    between atoms: C_2  and  S_16 
REMARK    2  A    between atoms: C_2  and  C_3 
REMARK    3  A    between atoms: C_3  and  C_10 
REMARK    4  A    between atoms: C_4  and  C_15 
REMARK    5  A    between atoms: C_4  and  C_22 
REMARK    6  A    between atoms: C_4  and  N_23 
REMARK    7  A    between atoms: C_9  and  C_10 
REMARK    8  A    between atoms: C_10  and  N_12 
REMARK       I    between atoms: N_12  and  C_15 
REMARK       I    between atoms: N_19  and  C_20 
REMARK    9  A    between atoms: C_20  and  C_21 
REMARK   10  A    between atoms: C_21  and  C_22 
ROOT
HETATM    1  C           1     -21.187  -3.875  -7.651  0.00  0.00     0.275 C 
ENDROOT
BRANCH   1   2
HETATM    2  C           1     -20.720  -4.705  -6.480  0.00  0.00     0.249 C 
HETATM    3  O           1     -19.627  -4.516  -6.002  0.00  0.00    -0.271 OA
HETATM    4  N           1     -21.538  -5.670  -5.957  0.00  0.00    -0.345 N 
HETATM    5  H           1     -22.454  -5.829  -6.356  0.00  0.00     0.163 HD
BRANCH   4   6
HETATM    6  C           1     -21.090  -6.467  -4.831  0.00  0.00     0.186 C 
BRANCH   6   7
HETATM    7  C           1     -22.229  -6.616  -3.831  0.00  0.00     0.046 C 
BRANCH   7   8
HETATM    8  C           1     -21.737  -6.240  -2.440  0.00  0.00     0.076 C 
BRANCH   8   9
HETATM    9  S           1     -21.307  -7.746  -1.522  0.00  0.00    -0.173 SA
HETATM   10  C           1     -22.532  -7.530  -0.201  0.00  0.00     0.089 C 
ENDBRANCH   8   9
ENDBRANCH   7   8
ENDBRANCH   6   7
BRANCH   6  11
HETATM   11  C           1     -20.666  -7.831  -5.318  0.00  0.00     0.196 C 
HETATM   12  O           1     -19.596  -7.964  -5.949  0.00  0.00    -0.646 OA
HETATM   13  O           1     -21.386  -8.828  -5.090  0.00  0.00    -0.646 OA
ENDBRANCH   6  11
ENDBRANCH   4   6
ENDBRANCH   1   2
BRANCH   1  14
HETATM   14  C           1     -22.595  -4.301  -8.047  0.00  0.00     0.052 C 
BRANCH  14  15
HETATM   15  C           1     -22.714  -4.312  -9.565  0.00  0.00     0.105 C 
BRANCH  15  16
HETATM   16  C           1     -24.066  -3.776  -9.969  0.00  0.00     0.215 C 
HETATM   17  N           1     -24.834  -3.100  -9.058  0.00  0.00    -0.370 N 
HETATM   18  H           1     -25.740  -2.742  -9.329  0.00  0.00     0.159 HD
HETATM   19  H           1     -24.495  -2.961  -8.115  0.00  0.00     0.159 HD
HETATM   20  O           1     -24.470  -3.943 -11.094  0.00  0.00    -0.274 OA
ENDBRANCH  15  16
ENDBRANCH  14  15
ENDBRANCH   1  14
BRANCH   1  21
HETATM   21  N           1     -20.259  -4.080  -8.811  0.00  0.00    -0.066 N 
HETATM   22  H           1     -20.656  -4.800  -9.454  0.00  0.00     0.275 HD
HETATM   23  H           1     -20.142  -3.178  -9.326  0.00  0.00     0.275 HD
HETATM   24  H           1     -19.328  -4.403  -8.459  0.00  0.00     0.275 HD
ENDBRANCH   1  21
TORSDOF 10
ENDMDL
MODEL 2
REMARK VINA RESULT:      -5.6      2.274      2.818
REMARK  10 active torsions:
REMARK  status: ('A' for Active; 'I' for Inactive)
REMARK    1  A    between atoms: C_2  and  S_16 
REMARK    2  A    between atoms: C_2  and  C_3 
REMARK    3  A    between atoms: C_3  and  C_10 
REMARK    4  A    between atoms: C_4  and  C_15 
REMARK    5  A    between atoms: C_4  and  C_22 
REMARK    6  A    between atoms: C_4  and  N_23 
REMARK    7  A    between atoms: C_9  and  C_10 
REMARK    8  A    between atoms: C_10  and  N_12 
REMARK       I    between atoms: N_12  and  C_15 
REMARK       I    between atoms: N_19  and  C_20 
REMARK    9  A    between atoms: C_20  and  C_21 
REMARK   10  A    between atoms: C_21  and  C_22 
ROOT
HETATM    1  C           1     -20.503  -4.693  -6.566  0.00  0.00     0.275 C 
ENDROOT
BRANCH   1   2
HETATM    2  C           1     -21.359  -5.600  -5.717  0.00  0.00     0.249 C 
HETATM    3  O           1     -22.564  -5.544  -5.796  0.00  0.00    -0.271 OA
HETATM    4  N           1     -20.771  -6.489  -4.858  0.00  0.00    -0.345 N 
HETATM    5  H           1     -19.762  -6.537  -4.791  0.00  0.00     0.163 HD
BRANCH   4   6
HETATM    6  C           1     -21.594  -7.362  -4.042  0.00  0.00     0.186 C 
BRANCH   6   7
HETATM    7  C           1     -20.994  -8.762  -4.034  0.00  0.00     0.046 C 
BRANCH   7   8
HETATM    8  C           1     -19.654  -8.744  -4.759  0.00  0.00     0.076 C 
BRANCH   8   9
HETATM    9  S           1     -18.384  -9.494  -3.701  0.00  0.00    -0.173 SA
HETATM   10  C           1     -19.530 -10.406  -2.629  0.00  0.00     0.089 C 
ENDBRANCH   8   9
ENDBRANCH   7   8
ENDBRANCH   6   7
BRANCH   6  11
HETATM   11  C           1     -21.647  -6.828  -2.631  0.00  0.00     0.196 C 
HETATM   12  O           1     -22.443  -5.911  -2.340  0.00  0.00    -0.646 OA
HETATM   13  O           1     -20.893  -7.305  -1.755  0.00  0.00    -0.646 OA
ENDBRANCH   6  11
ENDBRANCH   4   6
ENDBRANCH   1   2
BRANCH   1  14
HETATM   14  C           1     -21.380  -3.633  -7.221  0.00  0.00     0.052 C 
BRANCH  14  15
HETATM   15  C           1     -21.591  -3.983  -8.687  0.00  0.00     0.105 C 
BRANCH  15  16
HETATM   16  C           1     -23.047  -3.804  -9.044  0.00  0.00     0.215 C 
HETATM   17  N           1     -24.016  -4.060  -8.111  0.00  0.00    -0.370 N 
HETATM   18  H           1     -24.992  -3.940  -8.351  0.00  0.00     0.159 HD
HETATM   19  H           1     -23.757  -4.370  -7.183  0.00  0.00     0.159 HD
HETATM   20  O           1     -23.356  -3.435 -10.151  0.00  0.00    -0.274 OA
ENDBRANCH  15  16
ENDBRANCH  14  15
ENDBRANCH   1  14
BRANCH   1  21
HETATM   21  N           1     -19.819  -5.500  -7.628  0.00  0.00    -0.066 N 
HETATM   22  H           1     -20.152  -6.489  -7.585  0.00  0.00     0.275 HD
HETATM   23  H           1     -20.041  -5.098  -8.568  0.00  0.00     0.275 HD
HETATM   24  H           1     -18.785  -5.474  -7.473  0.00  0.00     0.275 HD
ENDBRANCH   1  21
TORSDOF 10
ENDMDL
MODEL 3
REMARK VINA RESULT:      -5.5     12.066     14.288
REMARK  10 active torsions:
REMARK  status: ('A' for Active; 'I' for Inactive)
REMARK    1  A    between atoms: C_2  and  S_16 
REMARK    2  A    between atoms: C_2  and  C_3 
REMARK    3  A    between atoms: C_3  and  C_10 
REMARK    4  A    between atoms: C_4  and  C_15 
REMARK    5  A    between atoms: C_4  and  C_22 
REMARK    6  A    between atoms: C_4  and  N_23 
REMARK    7  A    between atoms: C_9  and  C_10 
REMARK    8  A    between atoms: C_10  and  N_12 
REMARK       I    between atoms: N_12  and  C_15 
REMARK       I    between atoms: N_19  and  C_20 
REMARK    9  A    between atoms: C_20  and  C_21 
REMARK   10  A    between atoms: C_21  and  C_22 
ROOT
HETATM    1  C           1     -30.898  -4.352 -16.822  0.00  0.00     0.275 C 
ENDROOT
BRANCH   1   2
HETATM    2  C           1     -29.885  -5.378 -17.263  0.00  0.00     0.249 C 
HETATM    3  O           1     -30.219  -6.285 -17.989  0.00  0.00    -0.271 OA
HETATM    4  N           1     -28.586  -5.282 -16.844  0.00  0.00    -0.345 N 
HETATM    5  H           1     -28.304  -4.522 -16.237  0.00  0.00     0.163 HD
BRANCH   4   6
HETATM    6  C           1     -27.611  -6.268 -17.269  0.00  0.00     0.186 C 
BRANCH   6   7
HETATM    7  C           1     -26.906  -5.775 -18.525  0.00  0.00     0.046 C 
BRANCH   7   8
HETATM    8  C           1     -27.038  -6.819 -19.626  0.00  0.00     0.076 C 
BRANCH   8   9
HETATM    9  S           1     -25.492  -6.901 -20.572  0.00  0.00    -0.173 SA
HETATM   10  C           1     -24.395  -7.117 -19.143  0.00  0.00     0.089 C 
ENDBRANCH   8   9
ENDBRANCH   7   8
ENDBRANCH   6   7
BRANCH   6  11
HETATM   11  C           1     -26.597  -6.478 -16.171  0.00  0.00     0.196 C 
HETATM   12  O           1     -26.732  -7.426 -15.368  0.00  0.00    -0.646 OA
HETATM   13  O           1     -25.622  -5.702 -16.065  0.00  0.00    -0.646 OA
ENDBRANCH   6  11
ENDBRANCH   4   6
ENDBRANCH   1   2
BRANCH   1  14
HETATM   14  C           1     -32.303  -4.912 -17.003  0.00  0.00     0.052 C 
BRANCH  14  15
HETATM   15  C           1     -33.327  -3.830 -16.689  0.00  0.00     0.105 C 
BRANCH  15  16
HETATM   16  C           1     -34.219  -4.291 -15.562  0.00  0.00     0.215 C 
HETATM   17  N           1     -34.801  -5.530 -15.614  0.00  0.00    -0.370 N 
HETATM   18  H           1     -35.399  -5.838 -14.859  0.00  0.00     0.159 HD
HETATM   19  H           1     -34.633  -6.135 -16.407  0.00  0.00     0.159 HD
HETATM   20  O           1     -34.420  -3.569 -14.616  0.00  0.00    -0.274 OA
ENDBRANCH  15  16
ENDBRANCH  14  15
ENDBRANCH   1  14
BRANCH   1  21
HETATM   21  N           1     -30.746  -3.110 -17.650  0.00  0.00    -0.066 N 
HETATM   22  H           1     -31.002  -2.274 -17.077  0.00  0.00     0.275 HD
HETATM   23  H           1     -29.754  -3.024 -17.969  0.00  0.00     0.275 HD
HETATM   24  H           1     -31.376  -3.168 -18.482  0.00  0.00     0.275 HD
ENDBRANCH   1  21
TORSDOF 10
ENDMDL
MODEL 4
REMARK VINA RESULT:      -5.4      3.422      7.231
REMARK  10 active torsions:
REMARK  status: ('A' for Active; 'I' for Inactive)
REMARK    1  A    between atoms: C_2  and  S_16 
REMARK    2  A    between atoms: C_2  and  C_3 
REMARK    3  A    between atoms: C_3  and  C_10 
REMARK    4  A    between atoms: C_4  and  C_15 
REMARK    5  A    between atoms: C_4  and  C_22 
REMARK    6  A    between atoms: C_4  and  N_23 
REMARK    7  A    between atoms: C_9  and  C_10 
REMARK    8  A    between atoms: C_10  and  N_12 
REMARK       I    between atoms: N_12  and  C_15 
REMARK       I    between atoms: N_19  and  C_20 
REMARK    9  A    between atoms: C_20  and  C_21 
REMARK   10  A    between atoms: C_21  and  C_22 
ROOT
HETATM    1  C           1     -21.353  -6.577  -2.939  0.00  0.00     0.275 C 
ENDROOT
BRANCH   1   2
HETATM    2  C           1     -21.562  -6.552  -4.433  0.00  0.00     0.249 C 
HETATM    3  O           1     -22.106  -7.480  -4.983  0.00  0.00    -0.271 OA
HETATM    4  N           1     -21.136  -5.476  -5.165  0.00  0.00    -0.345 N 
HETATM    5  H           1     -20.681  -4.699  -4.704  0.00  0.00     0.163 HD
BRANCH   4   6
HETATM    6  C           1     -21.338  -5.452  -6.601  0.00  0.00     0.186 C 
BRANCH   6   7
HETATM    7  C           1     -21.867  -4.085  -7.015  0.00  0.00     0.046 C 
BRANCH   7   8
HETATM    8  C           1     -23.074  -4.262  -7.926  0.00  0.00     0.076 C 
BRANCH   8   9
HETATM    9  S           1     -22.627  -3.790  -9.621  0.00  0.00    -0.173 SA
HETATM   10  C           1     -23.784  -4.915 -10.452  0.00  0.00     0.089 C 
ENDBRANCH   8   9
ENDBRANCH   7   8
ENDBRANCH   6   7
BRANCH   6  11
HETATM   11  C           1     -20.025  -5.716  -7.297  0.00  0.00     0.196 C 
HETATM   12  O           1     -19.524  -4.843  -8.038  0.00  0.00    -0.646 OA
HETATM   13  O           1     -19.438  -6.807  -7.130  0.00  0.00    -0.646 OA
ENDBRANCH   6  11
ENDBRANCH   4   6
ENDBRANCH   1   2
BRANCH   1  14
HETATM   14  C           1     -21.337  -8.021  -2.451  0.00  0.00     0.052 C 
BRANCH  14  15
HETATM   15  C           1     -20.900  -8.060  -0.993  0.00  0.00     0.105 C 
BRANCH  15  16
HETATM   16  C           1     -22.023  -8.606  -0.146  0.00  0.00     0.215 C 
HETATM   17  N           1     -21.949  -9.881   0.350  0.00  0.00    -0.370 N 
HETATM   18  H           1     -22.702 -10.246   0.918  0.00  0.00     0.159 HD
HETATM   19  H           1     -21.141 -10.456   0.148  0.00  0.00     0.159 HD
HETATM   20  O           1     -22.987  -7.920   0.095  0.00  0.00    -0.274 OA
ENDBRANCH  15  16
ENDBRANCH  14  15
ENDBRANCH   1  14
BRANCH   1  21
HETATM   21  N           1     -22.470  -5.836  -2.265  0.00  0.00    -0.066 N 
HETATM   22  H           1     -22.084  -5.009  -1.756  0.00  0.00     0.275 HD
HETATM   23  H           1     -23.158  -5.514  -2.983  0.00  0.00     0.275 HD
HETATM   24  H           1     -22.948  -6.471  -1.585  0.00  0.00     0.275 HD
ENDBRANCH   1  21
TORSDOF 10
ENDMDL
MODEL 5
REMARK VINA RESULT:      -5.3      1.728      2.124
REMARK  10 active torsions:
REMARK  status: ('A' for Active; 'I' for Inactive)
REMARK    1  A    between atoms: C_2  and  S_16 
REMARK    2  A    between atoms: C_2  and  C_3 
REMARK    3  A    between atoms: C_3  and  C_10 
REMARK    4  A    between atoms: C_4  and  C_15 
REMARK    5  A    between atoms: C_4  and  C_22 
REMARK    6  A    between atoms: C_4  and  N_23 
REMARK    7  A    between atoms: C_9  and  C_10 
REMARK    8  A    between atoms: C_10  and  N_12 
REMARK       I    between atoms: N_12  and  C_15 
REMARK       I    between atoms: N_19  and  C_20 
REMARK    9  A    between atoms: C_20  and  C_21 
REMARK   10  A    between atoms: C_21  and  C_22 
ROOT
HETATM    1  C           1     -21.552  -5.084  -7.425  0.00  0.00     0.275 C 
ENDROOT
BRANCH   1   2
HETATM    2  C           1     -20.983  -5.560  -6.111  0.00  0.00     0.249 C 
HETATM    3  O           1     -20.499  -4.766  -5.339  0.00  0.00    -0.271 OA
HETATM    4  N           1     -21.017  -6.891  -5.793  0.00  0.00    -0.345 N 
HETATM    5  H           1     -21.423  -7.556  -6.439  0.00  0.00     0.163 HD
BRANCH   4   6
HETATM    6  C           1     -20.471  -7.348  -4.529  0.00  0.00     0.186 C 
BRANCH   6   7
HETATM    7  C           1     -21.608  -7.786  -3.615  0.00  0.00     0.046 C 
BRANCH   7   8
HETATM    8  C           1     -21.540  -7.006  -2.310  0.00  0.00     0.076 C 
BRANCH   8   9
HETATM    9  S           1     -21.237  -8.151  -0.934  0.00  0.00    -0.173 SA
HETATM   10  C           1     -22.728  -7.728   0.009  0.00  0.00     0.089 C 
ENDBRANCH   8   9
ENDBRANCH   7   8
ENDBRANCH   6   7
BRANCH   6  11
HETATM   11  C           1     -19.544  -8.513  -4.775  0.00  0.00     0.196 C 
HETATM   12  O           1     -18.858  -8.974  -3.838  0.00  0.00    -0.646 OA
HETATM   13  O           1     -19.464  -9.017  -5.916  0.00  0.00    -0.646 OA
ENDBRANCH   6  11
ENDBRANCH   4   6
ENDBRANCH   1   2
BRANCH   1  14
HETATM   14  C           1     -20.584  -4.102  -8.073  0.00  0.00     0.052 C 
BRANCH  14  15
HETATM   15  C           1     -20.285  -4.548  -9.498  0.00  0.00     0.105 C 
BRANCH  15  16
HETATM   16  C           1     -21.154  -3.775 -10.461  0.00  0.00     0.215 C 
HETATM   17  N           1     -20.682  -3.462 -11.708  0.00  0.00    -0.370 N 
HETATM   18  H           1     -21.265  -2.944 -12.352  0.00  0.00     0.159 HD
HETATM   19  H           1     -19.752  -3.750 -11.984  0.00  0.00     0.159 HD
HETATM   20  O           1     -22.263  -3.432 -10.131  0.00  0.00    -0.274 OA
ENDBRANCH  15  16
ENDBRANCH  14  15
ENDBRANCH   1  14
BRANCH   1  21
HETATM   21  N           1     -22.866  -4.403  -7.185  0.00  0.00    -0.066 N 
HETATM   22  H           1     -22.808  -3.827  -6.316  0.00  0.00     0.275 HD
HETATM   23  H           1     -23.092  -3.786  -7.999  0.00  0.00     0.275 HD
HETATM   24  H           1     -23.616  -5.124  -7.075  0.00  0.00     0.275 HD
ENDBRANCH   1  21
TORSDOF 10
ENDMDL
MODEL 6
REMARK VINA RESULT:      -5.3      3.303      6.902
REMARK  10 active torsions:
REMARK  status: ('A' for Active; 'I' for Inactive)
REMARK    1  A    between atoms: C_2  and  S_16 
REMARK    2  A    between atoms: C_2  and  C_3 
REMARK    3  A    between atoms: C_3  and  C_10 
REMARK    4  A    between atoms: C_4  and  C_15 
REMARK    5  A    between atoms: C_4  and  C_22 
REMARK    6  A    between atoms: C_4  and  N_23 
REMARK    7  A    between atoms: C_9  and  C_10 
REMARK    8  A    between atoms: C_10  and  N_12 
REMARK       I    between atoms: N_12  and  C_15 
REMARK       I    between atoms: N_19  and  C_20 
REMARK    9  A    between atoms: C_20  and  C_21 
REMARK   10  A    between atoms: C_21  and  C_22 
ROOT
HETATM    1  C           1     -21.347  -6.617  -2.860  0.00  0.00     0.275 C 
ENDROOT
BRANCH   1   2
HETATM    2  C           1     -21.506  -6.588  -4.360  0.00  0.00     0.249 C 
HETATM    3  O           1     -21.973  -7.542  -4.937  0.00  0.00    -0.271 OA
HETATM    4  N           1     -21.124  -5.480  -5.067  0.00  0.00    -0.345 N 
HETATM    5  H           1     -20.734  -4.681  -4.585  0.00  0.00     0.163 HD
BRANCH   4   6
HETATM    6  C           1     -21.279  -5.452  -6.509  0.00  0.00     0.186 C 
BRANCH   6   7
HETATM    7  C           1     -21.828  -4.096  -6.933  0.00  0.00     0.046 C 
BRANCH   7   8
HETATM    8  C           1     -23.113  -4.294  -7.726  0.00  0.00     0.076 C 
BRANCH   8   9
HETATM    9  S           1     -22.809  -3.924  -9.476  0.00  0.00    -0.173 SA
HETATM   10  C           1     -24.507  -3.420  -9.871  0.00  0.00     0.089 C 
ENDBRANCH   8   9
ENDBRANCH   7   8
ENDBRANCH   6   7
BRANCH   6  11
HETATM   11  C           1     -19.937  -5.679  -7.163  0.00  0.00     0.196 C 
HETATM   12  O           1     -19.415  -6.813  -7.139  0.00  0.00    -0.646 OA
HETATM   13  O           1     -19.349  -4.731  -7.727  0.00  0.00    -0.646 OA
ENDBRANCH   6  11
ENDBRANCH   4   6
ENDBRANCH   1   2
BRANCH   1  14
HETATM   14  C           1     -21.435  -8.056  -2.367  0.00  0.00     0.052 C 
BRANCH  14  15
HETATM   15  C           1     -20.075  -8.498  -1.844  0.00  0.00     0.105 C 
BRANCH  15  16
HETATM   16  C           1     -19.321  -9.212  -2.940  0.00  0.00     0.215 C 
HETATM   17  N           1     -20.006  -9.850  -3.938  0.00  0.00    -0.370 N 
HETATM   18  H           1     -19.501 -10.329  -4.672  0.00  0.00     0.159 HD
HETATM   19  H           1     -21.018  -9.844  -3.941  0.00  0.00     0.159 HD
HETATM   20  O           1     -18.113  -9.219  -2.936  0.00  0.00    -0.274 OA
ENDBRANCH  15  16
ENDBRANCH  14  15
ENDBRANCH   1  14
BRANCH   1  21
HETATM   21  N           1     -22.436  -5.805  -2.225  0.00  0.00    -0.066 N 
HETATM   22  H           1     -22.014  -5.022  -1.677  0.00  0.00     0.275 HD
HETATM   23  H           1     -23.058  -5.415  -2.969  0.00  0.00     0.275 HD
HETATM   24  H           1     -22.996  -6.414  -1.586  0.00  0.00     0.275 HD
ENDBRANCH   1  21
TORSDOF 10
ENDMDL
MODEL 7
REMARK VINA RESULT:      -5.2     20.605     22.086
REMARK  10 active torsions:
REMARK  status: ('A' for Active; 'I' for Inactive)
REMARK    1  A    between atoms: C_2  and  S_16 
REMARK    2  A    between atoms: C_2  and  C_3 
REMARK    3  A    between atoms: C_3  and  C_10 
REMARK    4  A    between atoms: C_4  and  C_15 
REMARK    5  A    between atoms: C_4  and  C_22 
REMARK    6  A    between atoms: C_4  and  N_23 
REMARK    7  A    between atoms: C_9  and  C_10 
REMARK    8  A    between atoms: C_10  and  N_12 
REMARK       I    between atoms: N_12  and  C_15 
REMARK       I    between atoms: N_19  and  C_20 
REMARK    9  A    between atoms: C_20  and  C_21 
REMARK   10  A    between atoms: C_21  and  C_22 
ROOT
HETATM    1  C           1     -12.742   5.271 -20.545  0.00  0.00     0.275 C 
ENDROOT
BRANCH   1   2
HETATM    2  C           1     -12.469   6.741 -20.743  0.00  0.00     0.249 C 
HETATM    3  O           1     -12.368   7.193 -21.859  0.00  0.00    -0.271 OA
HETATM    4  N           1     -12.337   7.564 -19.657  0.00  0.00    -0.345 N 
HETATM    5  H           1     -12.423   7.187 -18.722  0.00  0.00     0.163 HD
BRANCH   4   6
HETATM    6  C           1     -12.076   8.979 -19.847  0.00  0.00     0.186 C 
BRANCH   6   7
HETATM    7  C           1     -12.974   9.788 -18.920  0.00  0.00     0.046 C 
BRANCH   7   8
HETATM    8  C           1     -13.560  10.968 -19.685  0.00  0.00     0.076 C 
BRANCH   8   9
HETATM    9  S           1     -14.878  11.733 -18.700  0.00  0.00    -0.173 SA
HETATM   10  C           1     -14.881  10.494 -17.374  0.00  0.00     0.089 C 
ENDBRANCH   8   9
ENDBRANCH   7   8
ENDBRANCH   6   7
BRANCH   6  11
HETATM   11  C           1     -10.630   9.269 -19.527  0.00  0.00     0.196 C 
HETATM   12  O           1      -9.873   9.718 -20.414  0.00  0.00    -0.646 OA
HETATM   13  O           1     -10.191   9.060 -18.375  0.00  0.00    -0.646 OA
ENDBRANCH   6  11
ENDBRANCH   4   6
ENDBRANCH   1   2
BRANCH   1  14
HETATM   14  C           1     -11.541   4.462 -21.021  0.00  0.00     0.052 C 
BRANCH  14  15
HETATM   15  C           1     -10.653   4.125 -19.831  0.00  0.00     0.105 C 
BRANCH  15  16
HETATM   16  C           1      -9.893   5.357 -19.404  0.00  0.00     0.215 C 
HETATM   17  N           1      -9.088   6.010 -20.300  0.00  0.00    -0.370 N 
HETATM   18  H           1      -8.579   6.835 -20.013  0.00  0.00     0.159 HD
HETATM   19  H           1      -9.003   5.665 -21.247  0.00  0.00     0.159 HD
HETATM   20  O           1      -9.995   5.768 -18.273  0.00  0.00    -0.274 OA
ENDBRANCH  15  16
ENDBRANCH  14  15
ENDBRANCH   1  14
BRANCH   1  21
HETATM   21  N           1     -13.954   4.876 -21.336  0.00  0.00    -0.066 N 
HETATM   22  H           1     -14.738   5.533 -21.126  0.00  0.00     0.275 HD
HETATM   23  H           1     -13.730   4.913 -22.357  0.00  0.00     0.275 HD
HETATM   24  H           1     -14.236   3.903 -21.076  0.00  0.00     0.275 HD
ENDBRANCH   1  21
TORSDOF 10
ENDMDL
MODEL 8
REMARK VINA RESULT:      -5.1      2.436      2.844
REMARK  10 active torsions:
REMARK  status: ('A' for Active; 'I' for Inactive)
REMARK    1  A    between atoms: C_2  and  S_16 
REMARK    2  A    between atoms: C_2  and  C_3 
REMARK    3  A    between atoms: C_3  and  C_10 
REMARK    4  A    between atoms: C_4  and  C_15 
REMARK    5  A    between atoms: C_4  and  C_22 
REMARK    6  A    between atoms: C_4  and  N_23 
REMARK    7  A    between atoms: C_9  and  C_10 
REMARK    8  A    between atoms: C_10  and  N_12 
REMARK       I    between atoms: N_12  and  C_15 
REMARK       I    between atoms: N_19  and  C_20 
REMARK    9  A    between atoms: C_20  and  C_21 
REMARK   10  A    between atoms: C_21  and  C_22 
ROOT
HETATM    1  C           1     -20.470  -5.058  -6.444  0.00  0.00     0.275 C 
ENDROOT
BRANCH   1   2
HETATM    2  C           1     -21.327  -5.899  -5.530  0.00  0.00     0.249 C 
HETATM    3  O           1     -22.529  -5.792  -5.562  0.00  0.00    -0.271 OA
HETATM    4  N           1     -20.740  -6.785  -4.667  0.00  0.00    -0.345 N 
HETATM    5  H           1     -19.733  -6.876  -4.641  0.00  0.00     0.163 HD
BRANCH   4   6
HETATM    6  C           1     -21.564  -7.594  -3.790  0.00  0.00     0.186 C 
BRANCH   6   7
HETATM    7  C           1     -20.962  -8.989  -3.674  0.00  0.00     0.046 C 
BRANCH   7   8
HETATM    8  C           1     -22.080 -10.023  -3.641  0.00  0.00     0.076 C 
BRANCH   8   9
HETATM    9  S           1     -21.791 -11.185  -2.277  0.00  0.00    -0.173 SA
HETATM   10  C           1     -22.852 -10.342  -1.070  0.00  0.00     0.089 C 
ENDBRANCH   8   9
ENDBRANCH   7   8
ENDBRANCH   6   7
BRANCH   6  11
HETATM   11  C           1     -21.621  -6.955  -2.423  0.00  0.00     0.196 C 
HETATM   12  O           1     -20.917  -7.404  -1.494  0.00  0.00    -0.646 OA
HETATM   13  O           1     -22.372  -5.976  -2.223  0.00  0.00    -0.646 OA
ENDBRANCH   6  11
ENDBRANCH   4   6
ENDBRANCH   1   2
BRANCH   1  14
HETATM   14  C           1     -21.323  -3.968  -7.081  0.00  0.00     0.052 C 
BRANCH  14  15
HETATM   15  C           1     -21.278  -4.108  -8.596  0.00  0.00     0.105 C 
BRANCH  15  16
HETATM   16  C           1     -22.683  -4.235  -9.133  0.00  0.00     0.215 C 
HETATM   17  N           1     -22.890  -4.404 -10.476  0.00  0.00    -0.370 N 
HETATM   18  H           1     -23.832  -4.489 -10.835  0.00  0.00     0.159 HD
HETATM   19  H           1     -22.101  -4.445 -11.109  0.00  0.00     0.159 HD
HETATM   20  O           1     -23.624  -4.187  -8.378  0.00  0.00    -0.274 OA
ENDBRANCH  15  16
ENDBRANCH  14  15
ENDBRANCH   1  14
BRANCH   1  21
HETATM   21  N           1     -19.883  -5.924  -7.519  0.00  0.00    -0.066 N 
HETATM   22  H           1     -18.913  -5.604  -7.735  0.00  0.00     0.275 HD
HETATM   23  H           1     -19.859  -6.917  -7.191  0.00  0.00     0.275 HD
HETATM   24  H           1     -20.472  -5.856  -8.380  0.00  0.00     0.275 HD
ENDBRANCH   1  21
TORSDOF 10
ENDMDL
MODEL 9
REMARK VINA RESULT:      -5.0      3.957      7.621
REMARK  10 active torsions:
REMARK  status: ('A' for Active; 'I' for Inactive)
REMARK    1  A    between atoms: C_2  and  S_16 
REMARK    2  A    between atoms: C_2  and  C_3 
REMARK    3  A    between atoms: C_3  and  C_10 
REMARK    4  A    between atoms: C_4  and  C_15 
REMARK    5  A    between atoms: C_4  and  C_22 
REMARK    6  A    between atoms: C_4  and  N_23 
REMARK    7  A    between atoms: C_9  and  C_10 
REMARK    8  A    between atoms: C_10  and  N_12 
REMARK       I    between atoms: N_12  and  C_15 
REMARK       I    between atoms: N_19  and  C_20 
REMARK    9  A    between atoms: C_20  and  C_21 
REMARK   10  A    between atoms: C_21  and  C_22 
ROOT
HETATM    1  C           1     -21.685  -7.132  -1.321  0.00  0.00     0.275 C 
ENDROOT
BRANCH   1   2
HETATM    2  C           1     -21.514  -7.956  -2.574  0.00  0.00     0.249 C 
HETATM    3  O           1     -21.927  -9.090  -2.613  0.00  0.00    -0.271 OA
HETATM    4  N           1     -20.890  -7.416  -3.667  0.00  0.00    -0.345 N 
HETATM    5  H           1     -20.544  -6.466  -3.635  0.00  0.00     0.163 HD
BRANCH   4   6
HETATM    6  C           1     -20.727  -8.208  -4.871  0.00  0.00     0.186 C 
BRANCH   6   7
HETATM    7  C           1     -21.023  -7.343  -6.090  0.00  0.00     0.046 C 
BRANCH   7   8
HETATM    8  C           1     -21.596  -6.007  -5.637  0.00  0.00     0.076 C 
BRANCH   8   9
HETATM    9  S           1     -20.936  -4.679  -6.683  0.00  0.00    -0.173 SA
HETATM   10  C           1     -22.484  -4.334  -7.566  0.00  0.00     0.089 C 
ENDBRANCH   8   9
ENDBRANCH   7   8
ENDBRANCH   6   7
BRANCH   6  11
HETATM   11  C           1     -19.308  -8.717  -4.948  0.00  0.00     0.196 C 
HETATM   12  O           1     -18.680  -8.976  -3.899  0.00  0.00    -0.646 OA
HETATM   13  O           1     -18.762  -8.881  -6.061  0.00  0.00    -0.646 OA
ENDBRANCH   6  11
ENDBRANCH   4   6
ENDBRANCH   1   2
BRANCH   1  14
HETATM   14  C           1     -22.571  -7.884  -0.335  0.00  0.00     0.052 C 
BRANCH  14  15
HETATM   15  C           1     -21.832  -8.051   0.986  0.00  0.00     0.105 C 
BRANCH  15  16
HETATM   16  C           1     -21.189  -9.416   1.034  0.00  0.00     0.215 C 
HETATM   17  N           1     -21.546 -10.373   0.122  0.00  0.00    -0.370 N 
HETATM   18  H           1     -21.115 -11.288   0.155  0.00  0.00     0.159 HD
HETATM   19  H           1     -22.240 -10.166  -0.584  0.00  0.00     0.159 HD
HETATM   20  O           1     -20.361  -9.664   1.878  0.00  0.00    -0.274 OA
ENDBRANCH  15  16
ENDBRANCH  14  15
ENDBRANCH   1  14
BRANCH   1  21
HETATM   21  N           1     -22.326  -5.821  -1.668  0.00  0.00    -0.066 N 
HETATM   22  H           1     -21.668  -5.041  -1.447  0.00  0.00     0.275 HD
HETATM   23  H           1     -22.556  -5.805  -2.688  0.00  0.00     0.275 HD
HETATM   24  H           1     -23.203  -5.705  -1.111  0.00  0.00     0.275 HD
ENDBRANCH   1  21
TORSDOF 10
ENDMDL
