MODEL 1
REMARK VINA RESULT:      -6.9      0.000      0.000
REMARK  8 active torsions:
REMARK  status: ('A' for Active; 'I' for Inactive)
REMARK    1  A    between atoms: N_1  and  C_17 
REMARK       I    between atoms: N_2  and  C_15 
REMARK       I    between atoms: N_3  and  C_15 
REMARK    2  A    between atoms: N_3  and  C_19 
REMARK    3  A    between atoms: C_8  and  C_19 
REMARK    4  A    between atoms: C_8  and  C_9 
REMARK    5  A    between atoms: C_9  and  C_16 
REMARK    6  A    between atoms: C_16  and  C_25 
REMARK    7  A    between atoms: C_16  and  N_22 
REMARK    8  A    between atoms: C_17  and  C_20 
REMARK       I    between atoms: C_20  and  N_22 
ROOT
HETATM    1  C           1     -27.801  -5.961 -16.728  0.00  0.00     0.185 C 
ENDROOT
BRANCH   1   2
HETATM    2  C           1     -28.894  -5.979 -17.788  0.00  0.00     0.038 C 
BRANCH   2   3
HETATM    3  C           1     -29.044  -4.588 -18.389  0.00  0.00     0.023 C 
BRANCH   3   4
HETATM    4  C           1     -30.053  -3.789 -17.575  0.00  0.00     0.138 C 
BRANCH   4   5
HETATM    5  N           1     -31.076  -4.695 -17.034  0.00  0.00    -0.227 N 
HETATM    6  C           1     -32.288  -4.333 -16.998  0.00  0.00     0.665 C 
HETATM    7  N           1     -32.619  -3.189 -17.427  0.00  0.00    -0.235 N 
HETATM    8  N           1     -33.193  -5.134 -16.519  0.00  0.00    -0.235 N 
HETATM    9  H           1     -31.889  -2.541 -17.813  0.00  0.00     0.174 HD
HETATM   10  H           1     -33.625  -2.887 -17.396  0.00  0.00     0.174 HD
HETATM   11  H           1     -32.919  -6.078 -16.165  0.00  0.00     0.174 HD
HETATM   12  H           1     -34.193  -4.834 -16.489  0.00  0.00     0.174 HD
HETATM   13  H           1     -30.801  -5.645 -16.678  0.00  0.00     0.177 HD
ENDBRANCH   4   5
ENDBRANCH   3   4
ENDBRANCH   2   3
ENDBRANCH   1   2
BRANCH   1  14
HETATM   14  C           1     -28.346  -6.509 -15.432  0.00  0.00     0.196 C 
HETATM   15  O           1     -29.225  -5.878 -14.807  0.00  0.00    -0.646 OA
HETATM   16  O           1     -27.918  -7.595 -14.984  0.00  0.00    -0.646 OA
ENDBRANCH   1  14
BRANCH   1  17
HETATM   17  N           1     -26.688  -6.778 -17.169  0.00  0.00    -0.345 N 
HETATM   18  H           1     -26.841  -7.528 -17.830  0.00  0.00     0.163 HD
HETATM   19  C           1     -25.428  -6.534 -16.690  0.00  0.00     0.243 C 
HETATM   20  O           1     -25.244  -5.639 -15.901  0.00  0.00    -0.272 OA
BRANCH  19  21
HETATM   21  C           1     -24.269  -7.386 -17.149  0.00  0.00     0.332 C 
BRANCH  21  22
HETATM   22  N           1     -24.293  -7.502 -18.644  0.00  0.00    -0.071 N 
HETATM   23  H           1     -24.143  -6.559 -19.068  0.00  0.00     0.274 HD
HETATM   24  H           1     -23.534  -8.149 -18.956  0.00  0.00     0.274 HD
HETATM   25  H           1     -25.219  -7.877 -18.949  0.00  0.00     0.274 HD
ENDBRANCH  21  22
ENDBRANCH  19  21
ENDBRANCH   1  17
TORSDOF 8
ENDMDL
MODEL 2
REMARK VINA RESULT:      -6.6      8.787     10.233
REMARK  8 active torsions:
REMARK  status: ('A' for Active; 'I' for Inactive)
REMARK    1  A    between atoms: N_1  and  C_17 
REMARK       I    between atoms: N_2  and  C_15 
REMARK       I    between atoms: N_3  and  C_15 
REMARK    2  A    between atoms: N_3  and  C_19 
REMARK    3  A    between atoms: C_8  and  C_19 
REMARK    4  A    between atoms: C_8  and  C_9 
REMARK    5  A    between atoms: C_9  and  C_16 
REMARK    6  A    between atoms: C_16  and  C_25 
REMARK    7  A    between atoms: C_16  and  N_22 
REMARK    8  A    between atoms: C_17  and  C_20 
REMARK       I    between atoms: C_20  and  N_22 
ROOT
HETATM    1  C           1     -34.839  -1.838 -11.479  0.00  0.00     0.185 C 
ENDROOT
BRANCH   1   2
HETATM    2  C           1     -33.610  -2.357 -10.745  0.00  0.00     0.038 C 
BRANCH   2   3
HETATM    3  C           1     -33.123  -3.638 -11.410  0.00  0.00     0.023 C 
BRANCH   3   4
HETATM    4  C           1     -34.289  -4.605 -11.565  0.00  0.00     0.138 C 
BRANCH   4   5
HETATM    5  N           1     -34.384  -5.456 -10.370  0.00  0.00    -0.227 N 
HETATM    6  C           1     -34.728  -6.668 -10.481  0.00  0.00     0.665 C 
HETATM    7  N           1     -34.992  -7.149 -11.622  0.00  0.00    -0.235 N 
HETATM    8  N           1     -34.812  -7.420  -9.424  0.00  0.00    -0.235 N 
HETATM    9  H           1     -34.924  -6.541 -12.476  0.00  0.00     0.174 HD
HETATM   10  H           1     -35.278  -8.155 -11.716  0.00  0.00     0.174 HD
HETATM   11  H           1     -34.595  -7.023  -8.483  0.00  0.00     0.174 HD
HETATM   12  H           1     -35.097  -8.421  -9.517  0.00  0.00     0.174 HD
HETATM   13  H           1     -34.165  -5.056  -9.423  0.00  0.00     0.177 HD
ENDBRANCH   4   5
ENDBRANCH   3   4
ENDBRANCH   2   3
ENDBRANCH   1   2
BRANCH   1  14
HETATM   14  C           1     -35.936  -1.548 -10.483  0.00  0.00     0.196 C 
HETATM   15  O           1     -35.738  -0.733  -9.556  0.00  0.00    -0.646 OA
HETATM   16  O           1     -37.041  -2.123 -10.586  0.00  0.00    -0.646 OA
ENDBRANCH   1  14
BRANCH   1  17
HETATM   17  N           1     -34.498  -0.621 -12.190  0.00  0.00    -0.345 N 
HETATM   18  H           1     -33.825   0.023 -11.796  0.00  0.00     0.163 HD
HETATM   19  C           1     -35.087  -0.345 -13.395  0.00  0.00     0.243 C 
HETATM   20  O           1     -35.891  -1.114 -13.865  0.00  0.00    -0.272 OA
BRANCH  19  21
HETATM   21  C           1     -34.733   0.922 -14.135  0.00  0.00     0.332 C 
BRANCH  21  22
HETATM   22  N           1     -35.876   1.321 -15.021  0.00  0.00    -0.071 N 
HETATM   23  H           1     -36.740   1.433 -14.444  0.00  0.00     0.274 HD
HETATM   24  H           1     -35.652   2.225 -15.493  0.00  0.00     0.274 HD
HETATM   25  H           1     -36.033   0.580 -15.741  0.00  0.00     0.274 HD
ENDBRANCH  21  22
ENDBRANCH  19  21
ENDBRANCH   1  17
TORSDOF 8
ENDMDL
MODEL 3
REMARK VINA RESULT:      -6.5      1.747      2.065
REMARK  8 active torsions:
REMARK  status: ('A' for Active; 'I' for Inactive)
REMARK    1  A    between atoms: N_1  and  C_17 
REMARK       I    between atoms: N_2  and  C_15 
REMARK       I    between atoms: N_3  and  C_15 
REMARK    2  A    between atoms: N_3  and  C_19 
REMARK    3  A    between atoms: C_8  and  C_19 
REMARK    4  A    between atoms: C_8  and  C_9 
REMARK    5  A    between atoms: C_9  and  C_16 
REMARK    6  A    between atoms: C_16  and  C_25 
REMARK    7  A    between atoms: C_16  and  N_22 
REMARK    8  A    between atoms: C_17  and  C_20 
REMARK       I    between atoms: C_20  and  N_22 
ROOT
HETATM    1  C           1     -26.958  -5.812 -16.766  0.00  0.00     0.185 C 
ENDROOT
BRANCH   1   2
HETATM    2  C           1     -28.010  -4.806 -16.318  0.00  0.00     0.038 C 
BRANCH   2   3
HETATM    3  C           1     -29.043  -4.624 -17.422  0.00  0.00     0.023 C 
BRANCH   3   4
HETATM    4  C           1     -30.429  -4.947 -16.879  0.00  0.00     0.138 C 
BRANCH   4   5
HETATM    5  N           1     -31.350  -3.846 -17.195  0.00  0.00    -0.227 N 
HETATM    6  C           1     -32.599  -4.010 -17.073  0.00  0.00     0.665 C 
HETATM    7  N           1     -33.055  -5.123 -16.680  0.00  0.00    -0.235 N 
HETATM    8  N           1     -33.413  -3.035 -17.353  0.00  0.00    -0.235 N 
HETATM    9  H           1     -32.398  -5.910 -16.454  0.00  0.00     0.174 HD
HETATM   10  H           1     -34.092  -5.259 -16.579  0.00  0.00     0.174 HD
HETATM   11  H           1     -33.035  -2.117 -17.678  0.00  0.00     0.174 HD
HETATM   12  H           1     -34.444  -3.171 -17.253  0.00  0.00     0.174 HD
HETATM   13  H           1     -30.970  -2.922 -17.522  0.00  0.00     0.177 HD
ENDBRANCH   4   5
ENDBRANCH   3   4
ENDBRANCH   2   3
ENDBRANCH   1   2
BRANCH   1  14
HETATM   14  C           1     -26.925  -6.971 -15.800  0.00  0.00     0.196 C 
HETATM   15  O           1     -27.990  -7.403 -15.307  0.00  0.00    -0.646 OA
HETATM   16  O           1     -25.835  -7.499 -15.494  0.00  0.00    -0.646 OA
ENDBRANCH   1  14
BRANCH   1  17
HETATM   17  N           1     -27.287  -6.297 -18.092  0.00  0.00    -0.345 N 
HETATM   18  H           1     -28.255  -6.430 -18.356  0.00  0.00     0.163 HD
HETATM   19  C           1     -26.289  -6.574 -18.987  0.00  0.00     0.243 C 
HETATM   20  O           1     -25.134  -6.415 -18.671  0.00  0.00    -0.272 OA
BRANCH  19  21
HETATM   21  C           1     -26.632  -7.079 -20.367  0.00  0.00     0.332 C 
BRANCH  21  22
HETATM   22  N           1     -25.603  -8.080 -20.803  0.00  0.00    -0.071 N 
HETATM   23  H           1     -25.083  -7.708 -21.630  0.00  0.00     0.274 HD
HETATM   24  H           1     -24.933  -8.255 -20.020  0.00  0.00     0.274 HD
HETATM   25  H           1     -26.076  -8.974 -21.064  0.00  0.00     0.274 HD
ENDBRANCH  21  22
ENDBRANCH  19  21
ENDBRANCH   1  17
TORSDOF 8
ENDMDL
MODEL 4
REMARK VINA RESULT:      -6.4      2.155      2.948
REMARK  8 active torsions:
REMARK  status: ('A' for Active; 'I' for Inactive)
REMARK    1  A    between atoms: N_1  and  C_17 
REMARK       I    between atoms: N_2  and  C_15 
REMARK       I    between atoms: N_3  and  C_15 
REMARK    2  A    between atoms: N_3  and  C_19 
REMARK    3  A    between atoms: C_8  and  C_19 
REMARK    4  A    between atoms: C_8  and  C_9 
REMARK    5  A    between atoms: C_9  and  C_16 
REMARK    6  A    between atoms: C_16  and  C_25 
REMARK    7  A    between atoms: C_16  and  N_22 
REMARK    8  A    between atoms: C_17  and  C_20 
REMARK       I    between atoms: C_20  and  N_22 
ROOT
HETATM    1  C           1     -25.588  -6.290 -17.154  0.00  0.00     0.185 C 
ENDROOT
BRANCH   1   2
HETATM    2  C           1     -26.886  -5.544 -16.876  0.00  0.00     0.038 C 
BRANCH   2   3
HETATM    3  C           1     -27.922  -5.916 -17.929  0.00  0.00     0.023 C 
BRANCH   3   4
HETATM    4  C           1     -29.205  -5.134 -17.677  0.00  0.00     0.138 C 
BRANCH   4   5
HETATM    5  N           1     -28.878  -3.730 -17.393  0.00  0.00    -0.227 N 
HETATM    6  C           1     -29.747  -2.828 -17.575  0.00  0.00     0.665 C 
HETATM    7  N           1     -30.898  -3.135 -18.002  0.00  0.00    -0.235 N 
HETATM    8  N           1     -29.457  -1.586 -17.324  0.00  0.00    -0.235 N 
HETATM    9  H           1     -31.132  -4.139 -18.205  0.00  0.00     0.174 HD
HETATM   10  H           1     -31.619  -2.387 -18.154  0.00  0.00     0.174 HD
HETATM   11  H           1     -28.507  -1.332 -16.971  0.00  0.00     0.174 HD
HETATM   12  H           1     -30.175  -0.842 -17.475  0.00  0.00     0.174 HD
HETATM   13  H           1     -27.922  -3.475 -17.038  0.00  0.00     0.177 HD
ENDBRANCH   4   5
ENDBRANCH   3   4
ENDBRANCH   2   3
ENDBRANCH   1   2
BRANCH   1  14
HETATM   14  C           1     -25.366  -7.331 -16.084  0.00  0.00     0.196 C 
HETATM   15  O           1     -26.223  -7.500 -15.189  0.00  0.00    -0.646 OA
HETATM   16  O           1     -24.326  -8.023 -16.092  0.00  0.00    -0.646 OA
ENDBRANCH   1  14
BRANCH   1  17
HETATM   17  N           1     -25.671  -6.938 -18.448  0.00  0.00    -0.345 N 
HETATM   18  H           1     -26.551  -7.325 -18.764  0.00  0.00     0.163 HD
HETATM   19  C           1     -24.559  -7.025 -19.243  0.00  0.00     0.243 C 
HETATM   20  O           1     -23.509  -6.564 -18.865  0.00  0.00    -0.272 OA
BRANCH  19  21
HETATM   21  C           1     -24.646  -7.701 -20.590  0.00  0.00     0.332 C 
BRANCH  21  22
HETATM   22  N           1     -23.422  -8.541 -20.808  0.00  0.00    -0.071 N 
HETATM   23  H           1     -23.229  -9.104 -19.949  0.00  0.00     0.274 HD
HETATM   24  H           1     -23.580  -9.183 -21.617  0.00  0.00     0.274 HD
HETATM   25  H           1     -22.606  -7.921 -21.008  0.00  0.00     0.274 HD
ENDBRANCH  21  22
ENDBRANCH  19  21
ENDBRANCH   1  17
TORSDOF 8
ENDMDL
MODEL 5
REMARK VINA RESULT:      -6.1      8.614      9.692
REMARK  8 active torsions:
REMARK  status: ('A' for Active; 'I' for Inactive)
REMARK    1  A    between atoms: N_1  and  C_17 
REMARK       I    between atoms: N_2  and  C_15 
REMARK       I    between atoms: N_3  and  C_15 
REMARK    2  A    between atoms: N_3  and  C_19 
REMARK    3  A    between atoms: C_8  and  C_19 
REMARK    4  A    between atoms: C_8  and  C_9 
REMARK    5  A    between atoms: C_9  and  C_16 
REMARK    6  A    between atoms: C_16  and  C_25 
REMARK    7  A    between atoms: C_16  and  N_22 
REMARK    8  A    between atoms: C_17  and  C_20 
REMARK       I    between atoms: C_20  and  N_22 
ROOT
HETATM    1  C           1     -35.257  -1.900 -11.113  0.00  0.00     0.185 C 
ENDROOT
BRANCH   1   2
HETATM    2  C           1     -35.146  -1.532 -12.587  0.00  0.00     0.038 C 
BRANCH   2   3
HETATM    3  C           1     -34.656  -0.096 -12.718  0.00  0.00     0.023 C 
BRANCH   3   4
HETATM    4  C           1     -35.435   0.608 -13.820  0.00  0.00     0.138 C 
BRANCH   4   5
HETATM    5  N           1     -35.421  -0.217 -15.037  0.00  0.00    -0.227 N 
HETATM    6  C           1     -36.226   0.033 -15.981  0.00  0.00     0.665 C 
HETATM    7  N           1     -37.043   0.993 -15.878  0.00  0.00    -0.235 N 
HETATM    8  N           1     -36.213  -0.697 -17.056  0.00  0.00    -0.235 N 
HETATM    9  H           1     -37.053   1.583 -15.009  0.00  0.00     0.174 HD
HETATM   10  H           1     -37.711   1.201 -16.661  0.00  0.00     0.174 HD
HETATM   11  H           1     -35.538  -1.490 -17.141  0.00  0.00     0.174 HD
HETATM   12  H           1     -36.878  -0.491 -17.836  0.00  0.00     0.174 HD
HETATM   13  H           1     -34.742  -1.015 -15.122  0.00  0.00     0.177 HD
ENDBRANCH   4   5
ENDBRANCH   3   4
ENDBRANCH   2   3
ENDBRANCH   1   2
BRANCH   1  14
HETATM   14  C           1     -36.430  -1.174 -10.499  0.00  0.00     0.196 C 
HETATM   15  O           1     -36.259  -0.451  -9.494  0.00  0.00    -0.646 OA
HETATM   16  O           1     -37.570  -1.297 -10.995  0.00  0.00    -0.646 OA
ENDBRANCH   1  14
BRANCH   1  17
HETATM   17  N           1     -35.454  -3.330 -10.986  0.00  0.00    -0.345 N 
HETATM   18  H           1     -36.388  -3.718 -11.024  0.00  0.00     0.163 HD
HETATM   19  C           1     -34.376  -4.157 -10.816  0.00  0.00     0.243 C 
HETATM   20  O           1     -33.261  -3.695 -10.770  0.00  0.00    -0.272 OA
BRANCH  19  21
HETATM   21  C           1     -34.581  -5.647 -10.683  0.00  0.00     0.332 C 
BRANCH  21  22
HETATM   22  N           1     -34.707  -6.258 -12.047  0.00  0.00    -0.071 N 
HETATM   23  H           1     -35.631  -6.738 -12.130  0.00  0.00     0.274 HD
HETATM   24  H           1     -34.637  -5.509 -12.772  0.00  0.00     0.274 HD
HETATM   25  H           1     -33.940  -6.954 -12.189  0.00  0.00     0.274 HD
ENDBRANCH  21  22
ENDBRANCH  19  21
ENDBRANCH   1  17
TORSDOF 8
ENDMDL
MODEL 6
REMARK VINA RESULT:      -5.9      2.376      3.294
REMARK  8 active torsions:
REMARK  status: ('A' for Active; 'I' for Inactive)
REMARK    1  A    between atoms: N_1  and  C_17 
REMARK       I    between atoms: N_2  and  C_15 
REMARK       I    between atoms: N_3  and  C_15 
REMARK    2  A    between atoms: N_3  and  C_19 
REMARK    3  A    between atoms: C_8  and  C_19 
REMARK    4  A    between atoms: C_8  and  C_9 
REMARK    5  A    between atoms: C_9  and  C_16 
REMARK    6  A    between atoms: C_16  and  C_25 
REMARK    7  A    between atoms: C_16  and  N_22 
REMARK    8  A    between atoms: C_17  and  C_20 
REMARK       I    between atoms: C_20  and  N_22 
ROOT
HETATM    1  C           1     -26.089  -6.005 -16.845  0.00  0.00     0.185 C 
ENDROOT
BRANCH   1   2
HETATM    2  C           1     -27.278  -5.137 -16.453  0.00  0.00     0.038 C 
BRANCH   2   3
HETATM    3  C           1     -28.139  -4.868 -17.680  0.00  0.00     0.023 C 
BRANCH   3   4
HETATM    4  C           1     -29.521  -5.474 -17.474  0.00  0.00     0.138 C 
BRANCH   4   5
HETATM    5  N           1     -29.745  -6.535 -18.467  0.00  0.00    -0.227 N 
HETATM    6  C           1     -29.621  -7.749 -18.134  0.00  0.00     0.665 C 
HETATM    7  N           1     -29.304  -8.051 -16.947  0.00  0.00    -0.235 N 
HETATM    8  N           1     -29.819  -8.687 -19.012  0.00  0.00    -0.235 N 
HETATM    9  H           1     -29.144  -7.293 -16.238  0.00  0.00     0.174 HD
HETATM   10  H           1     -29.201  -9.059 -16.670  0.00  0.00     0.174 HD
HETATM   11  H           1     -30.080  -8.438 -19.993  0.00  0.00     0.174 HD
HETATM   12  H           1     -29.717  -9.690 -18.737  0.00  0.00     0.174 HD
HETATM   13  H           1     -30.008  -6.284 -19.453  0.00  0.00     0.177 HD
ENDBRANCH   4   5
ENDBRANCH   3   4
ENDBRANCH   2   3
ENDBRANCH   1   2
BRANCH   1  14
HETATM   14  C           1     -25.987  -7.177 -15.900  0.00  0.00     0.196 C 
HETATM   15  O           1     -24.895  -7.767 -15.753  0.00  0.00    -0.646 OA
HETATM   16  O           1     -26.994  -7.558 -15.265  0.00  0.00    -0.646 OA
ENDBRANCH   1  14
BRANCH   1  17
HETATM   17  N           1     -26.272  -6.490 -18.199  0.00  0.00    -0.345 N 
HETATM   18  H           1     -27.203  -6.680 -18.547  0.00  0.00     0.163 HD
HETATM   19  C           1     -25.185  -6.691 -19.006  0.00  0.00     0.243 C 
HETATM   20  O           1     -24.073  -6.465 -18.590  0.00  0.00    -0.272 OA
BRANCH  19  21
HETATM   21  C           1     -25.375  -7.197 -20.416  0.00  0.00     0.332 C 
BRANCH  21  22
HETATM   22  N           1     -25.130  -6.079 -21.386  0.00  0.00    -0.071 N 
HETATM   23  H           1     -25.062  -6.467 -22.353  0.00  0.00     0.274 HD
HETATM   24  H           1     -25.921  -5.398 -21.339  0.00  0.00     0.274 HD
HETATM   25  H           1     -24.237  -5.596 -21.141  0.00  0.00     0.274 HD
ENDBRANCH  21  22
ENDBRANCH  19  21
ENDBRANCH   1  17
TORSDOF 8
ENDMDL
MODEL 7
REMARK VINA RESULT:      -5.6     10.378     12.182
REMARK  8 active torsions:
REMARK  status: ('A' for Active; 'I' for Inactive)
REMARK    1  A    between atoms: N_1  and  C_17 
REMARK       I    between atoms: N_2  and  C_15 
REMARK       I    between atoms: N_3  and  C_15 
REMARK    2  A    between atoms: N_3  and  C_19 
REMARK    3  A    between atoms: C_8  and  C_19 
REMARK    4  A    between atoms: C_8  and  C_9 
REMARK    5  A    between atoms: C_9  and  C_16 
REMARK    6  A    between atoms: C_16  and  C_25 
REMARK    7  A    between atoms: C_16  and  N_22 
REMARK    8  A    between atoms: C_17  and  C_20 
REMARK       I    between atoms: C_20  and  N_22 
ROOT
HETATM    1  C           1     -21.389  -5.179  -7.285  0.00  0.00     0.185 C 
ENDROOT
BRANCH   1   2
HETATM    2  C           1     -22.339  -4.037  -7.625  0.00  0.00     0.038 C 
BRANCH   2   3
HETATM    3  C           1     -23.415  -4.537  -8.580  0.00  0.00     0.023 C 
BRANCH   3   4
HETATM    4  C           1     -23.393  -3.701  -9.853  0.00  0.00     0.138 C 
BRANCH   4   5
HETATM    5  N           1     -22.001  -3.415 -10.229  0.00  0.00    -0.227 N 
HETATM    6  C           1     -21.525  -3.887 -11.303  0.00  0.00     0.665 C 
HETATM    7  N           1     -22.249  -4.605 -12.053  0.00  0.00    -0.235 N 
HETATM    8  N           1     -20.294  -3.634 -11.635  0.00  0.00    -0.235 N 
HETATM    9  H           1     -23.243  -4.810 -11.784  0.00  0.00     0.174 HD
HETATM   10  H           1     -21.855  -4.997 -12.944  0.00  0.00     0.174 HD
HETATM   11  H           1     -19.697  -3.041 -11.016  0.00  0.00     0.174 HD
HETATM   12  H           1     -19.902  -4.024 -12.522  0.00  0.00     0.174 HD
HETATM   13  H           1     -21.400  -2.819  -9.606  0.00  0.00     0.177 HD
ENDBRANCH   4   5
ENDBRANCH   3   4
ENDBRANCH   2   3
ENDBRANCH   1   2
BRANCH   1  14
HETATM   14  C           1     -19.964  -4.730  -7.497  0.00  0.00     0.196 C 
HETATM   15  O           1     -19.563  -4.447  -8.647  0.00  0.00    -0.646 OA
HETATM   16  O           1     -19.185  -4.641  -6.524  0.00  0.00    -0.646 OA
ENDBRANCH   1  14
BRANCH   1  17
HETATM   17  N           1     -21.574  -5.563  -5.899  0.00  0.00    -0.345 N 
HETATM   18  H           1     -21.778  -4.859  -5.202  0.00  0.00     0.163 HD
HETATM   19  C           1     -21.473  -6.879  -5.535  0.00  0.00     0.243 C 
HETATM   20  O           1     -21.229  -7.720  -6.368  0.00  0.00    -0.272 OA
BRANCH  19  21
HETATM   21  C           1     -21.665  -7.280  -4.092  0.00  0.00     0.332 C 
BRANCH  21  22
HETATM   22  N           1     -22.131  -6.093  -3.301  0.00  0.00    -0.071 N 
HETATM   23  H           1     -22.757  -5.504  -3.894  0.00  0.00     0.274 HD
HETATM   24  H           1     -22.655  -6.420  -2.459  0.00  0.00     0.274 HD
HETATM   25  H           1     -21.305  -5.529  -3.001  0.00  0.00     0.274 HD
ENDBRANCH  21  22
ENDBRANCH  19  21
ENDBRANCH   1  17
TORSDOF 8
ENDMDL
MODEL 8
REMARK VINA RESULT:      -5.6     11.754     13.151
REMARK  8 active torsions:
REMARK  status: ('A' for Active; 'I' for Inactive)
REMARK    1  A    between atoms: N_1  and  C_17 
REMARK       I    between atoms: N_2  and  C_15 
REMARK       I    between atoms: N_3  and  C_15 
REMARK    2  A    between atoms: N_3  and  C_19 
REMARK    3  A    between atoms: C_8  and  C_19 
REMARK    4  A    between atoms: C_8  and  C_9 
REMARK    5  A    between atoms: C_9  and  C_16 
REMARK    6  A    between atoms: C_16  and  C_25 
REMARK    7  A    between atoms: C_16  and  N_22 
REMARK    8  A    between atoms: C_17  and  C_20 
REMARK       I    between atoms: C_20  and  N_22 
ROOT
HETATM    1  C           1     -20.703  -6.807  -5.353  0.00  0.00     0.185 C 
ENDROOT
BRANCH   1   2
HETATM    2  C           1     -20.486  -6.075  -6.671  0.00  0.00     0.038 C 
BRANCH   2   3
HETATM    3  C           1     -20.167  -4.612  -6.395  0.00  0.00     0.023 C 
BRANCH   3   4
HETATM    4  C           1     -20.725  -3.749  -7.519  0.00  0.00     0.138 C 
BRANCH   4   5
HETATM    5  N           1     -22.194  -3.771  -7.472  0.00  0.00    -0.227 N 
HETATM    6  C           1     -22.861  -3.807  -8.547  0.00  0.00     0.665 C 
HETATM    7  N           1     -22.263  -3.823  -9.662  0.00  0.00    -0.235 N 
HETATM    8  N           1     -24.160  -3.826  -8.506  0.00  0.00    -0.235 N 
HETATM    9  H           1     -21.213  -3.807  -9.696  0.00  0.00     0.174 HD
HETATM   10  H           1     -22.816  -3.853 -10.555  0.00  0.00     0.174 HD
HETATM   11  H           1     -24.653  -3.813  -7.585  0.00  0.00     0.174 HD
HETATM   12  H           1     -24.710  -3.856  -9.393  0.00  0.00     0.174 HD
HETATM   13  H           1     -22.690  -3.758  -6.546  0.00  0.00     0.177 HD
ENDBRANCH   4   5
ENDBRANCH   3   4
ENDBRANCH   2   3
ENDBRANCH   1   2
BRANCH   1  14
HETATM   14  C           1     -21.972  -6.310  -4.704  0.00  0.00     0.196 C 
HETATM   15  O           1     -22.021  -6.160  -3.464  0.00  0.00    -0.646 OA
HETATM   16  O           1     -22.973  -6.050  -5.405  0.00  0.00    -0.646 OA
ENDBRANCH   1  14
BRANCH   1  17
HETATM   17  N           1     -20.814  -8.230  -5.604  0.00  0.00    -0.345 N 
HETATM   18  H           1     -21.381  -8.566  -6.372  0.00  0.00     0.163 HD
HETATM   19  C           1     -20.151  -9.121  -4.802  0.00  0.00     0.243 C 
HETATM   20  O           1     -19.475  -8.720  -3.885  0.00  0.00    -0.272 OA
BRANCH  19  21
HETATM   21  C           1     -20.267 -10.603  -5.063  0.00  0.00     0.332 C 
BRANCH  21  22
HETATM   22  N           1     -21.065 -10.830  -6.313  0.00  0.00    -0.071 N 
HETATM   23  H           1     -21.984 -11.262  -6.065  0.00  0.00     0.274 HD
HETATM   24  H           1     -21.228  -9.917  -6.793  0.00  0.00     0.274 HD
HETATM   25  H           1     -20.540 -11.471  -6.949  0.00  0.00     0.274 HD
ENDBRANCH  21  22
ENDBRANCH  19  21
ENDBRANCH   1  17
TORSDOF 8
ENDMDL
MODEL 9
REMARK VINA RESULT:      -5.5     10.742     12.520
REMARK  8 active torsions:
REMARK  status: ('A' for Active; 'I' for Inactive)
REMARK    1  A    between atoms: N_1  and  C_17 
REMARK       I    between atoms: N_2  and  C_15 
REMARK       I    between atoms: N_3  and  C_15 
REMARK    2  A    between atoms: N_3  and  C_19 
REMARK    3  A    between atoms: C_8  and  C_19 
REMARK    4  A    between atoms: C_8  and  C_9 
REMARK    5  A    between atoms: C_9  and  C_16 
REMARK    6  A    between atoms: C_16  and  C_25 
REMARK    7  A    between atoms: C_16  and  N_22 
REMARK    8  A    between atoms: C_17  and  C_20 
REMARK       I    between atoms: C_20  and  N_22 
ROOT
HETATM    1  C           1     -21.699  -4.437  -8.038  0.00  0.00     0.185 C 
ENDROOT
BRANCH   1   2
HETATM    2  C           1     -20.844  -3.783  -6.960  0.00  0.00     0.038 C 
BRANCH   2   3
HETATM    3  C           1     -19.674  -4.695  -6.615  0.00  0.00     0.023 C 
BRANCH   3   4
HETATM    4  C           1     -20.199  -5.977  -5.981  0.00  0.00     0.138 C 
BRANCH   4   5
HETATM    5  N           1     -20.784  -5.671  -4.667  0.00  0.00    -0.227 N 
HETATM    6  C           1     -21.721  -6.388  -4.209  0.00  0.00     0.665 C 
HETATM    7  N           1     -22.156  -7.367  -4.883  0.00  0.00    -0.235 N 
HETATM    8  N           1     -22.239  -6.117  -3.048  0.00  0.00    -0.235 N 
HETATM    9  H           1     -21.738  -7.586  -5.821  0.00  0.00     0.174 HD
HETATM   10  H           1     -22.934  -7.962  -4.503  0.00  0.00     0.174 HD
HETATM   11  H           1     -21.880  -5.308  -2.492  0.00  0.00     0.174 HD
HETATM   12  H           1     -23.012  -6.709  -2.670  0.00  0.00     0.174 HD
HETATM   13  H           1     -20.423  -4.858  -4.108  0.00  0.00     0.177 HD
ENDBRANCH   4   5
ENDBRANCH   3   4
ENDBRANCH   2   3
ENDBRANCH   1   2
BRANCH   1  14
HETATM   14  C           1     -23.142  -4.454  -7.596  0.00  0.00     0.196 C 
HETATM   15  O           1     -24.042  -4.104  -8.390  0.00  0.00    -0.646 OA
HETATM   16  O           1     -23.436  -4.818  -6.438  0.00  0.00    -0.646 OA
ENDBRANCH   1  14
BRANCH   1  17
HETATM   17  N           1     -21.580  -3.684  -9.271  0.00  0.00    -0.345 N 
HETATM   18  H           1     -22.169  -2.877  -9.430  0.00  0.00     0.163 HD
HETATM   19  C           1     -20.668  -4.063 -10.220  0.00  0.00     0.243 C 
HETATM   20  O           1     -19.964  -5.026 -10.030  0.00  0.00    -0.272 OA
BRANCH  19  21
HETATM   21  C           1     -20.544  -3.279 -11.504  0.00  0.00     0.332 C 
BRANCH  21  22
HETATM   22  N           1     -21.469  -3.858 -12.534  0.00  0.00    -0.071 N 
HETATM   23  H           1     -21.957  -4.691 -12.135  0.00  0.00     0.274 HD
HETATM   24  H           1     -22.175  -3.139 -12.810  0.00  0.00     0.274 HD
HETATM   25  H           1     -20.917  -4.146 -13.373  0.00  0.00     0.274 HD
ENDBRANCH  21  22
ENDBRANCH  19  21
ENDBRANCH   1  17
TORSDOF 8
ENDMDL
