MODEL 1
REMARK VINA RESULT:      -8.6      0.000      0.000
REMARK  8 active torsions:
REMARK  status: ('A' for Active; 'I' for Inactive)
REMARK    1  A    between atoms: N_4  and  C_10 
REMARK       I    between atoms: N_4  and  C_5 
REMARK    2  A    between atoms: C_5  and  C_22 
REMARK    3  A    between atoms: C_9  and  C_10 
REMARK    4  A    between atoms: C_9  and  C_17 
REMARK    5  A    between atoms: C_10  and  C_26 
REMARK    6  A    between atoms: C_13  and  C_22 
REMARK    7  A    between atoms: C_13  and  C_16 
REMARK    8  A    between atoms: N_21  and  C_22 
ROOT
HETATM    1  N           1     -22.199  -5.619  -5.611  0.00  0.00    -0.344 N 
HETATM    2  C           1     -21.535  -6.235  -4.585  0.00  0.00     0.249 C 
HETATM    3  O           1     -20.844  -5.585  -3.837  0.00  0.00    -0.271 OA
HETATM    4  H           1     -23.135  -5.261  -5.466  0.00  0.00     0.163 HD
ENDROOT
BRANCH   2   5
HETATM    5  C           1     -21.666  -7.725  -4.388  0.00  0.00     0.278 C 
BRANCH   5   6
HETATM    6  C           1     -20.766  -8.167  -3.241  0.00  0.00     0.081 C 
BRANCH   6   7
HETATM    7  C           1     -21.603  -8.470  -2.037  0.00  0.00    -0.056 A 
HETATM    8  C           1     -22.065  -9.768  -1.818  0.00  0.00     0.007 A 
HETATM    9  C           1     -22.845 -10.050  -0.697  0.00  0.00     0.001 A 
HETATM   10  C           1     -23.161  -9.034   0.206  0.00  0.00     0.000 A 
HETATM   11  C           1     -22.699  -7.738  -0.013  0.00  0.00     0.001 A 
HETATM   12  C           1     -21.919  -7.455  -1.135  0.00  0.00     0.007 A 
ENDBRANCH   6   7
ENDBRANCH   5   6
BRANCH   5  13
HETATM   13  N           1     -21.257  -8.433  -5.645  0.00  0.00    -0.066 N 
HETATM   14  H           1     -22.070  -8.477  -6.300  0.00  0.00     0.275 HD
HETATM   15  H           1     -20.943  -9.402  -5.414  0.00  0.00     0.275 HD
HETATM   16  H           1     -20.473  -7.912  -6.098  0.00  0.00     0.275 HD
ENDBRANCH   5  13
ENDBRANCH   2   5
BRANCH   1  17
HETATM   17  C           1     -21.562  -5.480  -6.906  0.00  0.00     0.189 C 
BRANCH  17  18
HETATM   18  C           1     -21.919  -4.127  -7.505  0.00  0.00     0.074 C 
BRANCH  18  19
HETATM   19  C           1     -21.902  -4.220  -8.999  0.00  0.00    -0.056 A 
HETATM   20  C           1     -20.709  -4.032  -9.695  0.00  0.00     0.007 A 
HETATM   21  C           1     -20.693  -4.120 -11.088  0.00  0.00     0.001 A 
HETATM   22  C           1     -21.869  -4.397 -11.783  0.00  0.00     0.000 A 
HETATM   23  C           1     -23.062  -4.586 -11.086  0.00  0.00     0.001 A 
HETATM   24  C           1     -23.079  -4.498  -9.694  0.00  0.00     0.007 A 
ENDBRANCH  18  19
ENDBRANCH  17  18
BRANCH  17  25
HETATM   25  C           1     -20.065  -5.579  -6.743  0.00  0.00     0.197 C 
HETATM   26  O           1     -19.484  -6.667  -6.952  0.00  0.00    -0.646 OA
HETATM   27  O           1     -19.406  -4.575  -6.399  0.00  0.00    -0.646 OA
ENDBRANCH  17  25
ENDBRANCH   1  17
TORSDOF 8
ENDMDL
MODEL 2
REMARK VINA RESULT:      -8.4      1.489      7.988
REMARK  8 active torsions:
REMARK  status: ('A' for Active; 'I' for Inactive)
REMARK    1  A    between atoms: N_4  and  C_10 
REMARK       I    between atoms: N_4  and  C_5 
REMARK    2  A    between atoms: C_5  and  C_22 
REMARK    3  A    between atoms: C_9  and  C_10 
REMARK    4  A    between atoms: C_9  and  C_17 
REMARK    5  A    between atoms: C_10  and  C_26 
REMARK    6  A    between atoms: C_13  and  C_22 
REMARK    7  A    between atoms: C_13  and  C_16 
REMARK    8  A    between atoms: N_21  and  C_22 
ROOT
HETATM    1  N           1     -20.652  -8.234  -5.642  0.00  0.00    -0.344 N 
HETATM    2  C           1     -20.428  -7.018  -6.230  0.00  0.00     0.249 C 
HETATM    3  O           1     -19.340  -6.759  -6.685  0.00  0.00    -0.271 OA
HETATM    4  H           1     -20.979  -9.013  -6.199  0.00  0.00     0.163 HD
ENDROOT
BRANCH   2   5
HETATM    5  C           1     -21.542  -6.003  -6.309  0.00  0.00     0.278 C 
BRANCH   5   6
HETATM    6  C           1     -20.965  -4.645  -6.689  0.00  0.00     0.081 C 
BRANCH   6   7
HETATM    7  C           1     -21.282  -4.350  -8.122  0.00  0.00    -0.056 A 
HETATM    8  C           1     -22.587  -4.026  -8.495  0.00  0.00     0.007 A 
HETATM    9  C           1     -22.883  -3.752  -9.830  0.00  0.00     0.001 A 
HETATM   10  C           1     -21.873  -3.800 -10.792  0.00  0.00     0.000 A 
HETATM   11  C           1     -20.570  -4.124 -10.419  0.00  0.00     0.001 A 
HETATM   12  C           1     -20.274  -4.399  -9.083  0.00  0.00     0.007 A 
ENDBRANCH   6   7
ENDBRANCH   5   6
BRANCH   5  13
HETATM   13  N           1     -22.221  -5.902  -4.976  0.00  0.00    -0.066 N 
HETATM   14  H           1     -23.058  -5.281  -5.058  0.00  0.00     0.275 HD
HETATM   15  H           1     -21.558  -5.501  -4.276  0.00  0.00     0.275 HD
HETATM   16  H           1     -22.522  -6.853  -4.666  0.00  0.00     0.275 HD
ENDBRANCH   5  13
ENDBRANCH   2   5
BRANCH   1  17
HETATM   17  C           1     -20.419  -8.406  -4.221  0.00  0.00     0.189 C 
BRANCH  17  18
HETATM   18  C           1     -21.497  -9.307  -3.635  0.00  0.00     0.074 C 
BRANCH  18  19
HETATM   19  C           1     -21.872  -8.817  -2.271  0.00  0.00    -0.056 A 
HETATM   20  C           1     -22.257  -9.726  -1.286  0.00  0.00     0.007 A 
HETATM   21  C           1     -22.605  -9.269  -0.014  0.00  0.00     0.001 A 
HETATM   22  C           1     -22.567  -7.905   0.272  0.00  0.00     0.000 A 
HETATM   23  C           1     -22.180  -6.997  -0.713  0.00  0.00     0.001 A 
HETATM   24  C           1     -21.832  -7.452  -1.984  0.00  0.00     0.007 A 
ENDBRANCH  18  19
ENDBRANCH  17  18
BRANCH  17  25
HETATM   25  C           1     -19.065  -9.035  -4.006  0.00  0.00     0.197 C 
HETATM   26  O           1     -18.570  -9.077  -2.858  0.00  0.00    -0.646 OA
HETATM   27  O           1     -18.438  -9.516  -4.974  0.00  0.00    -0.646 OA
ENDBRANCH  17  25
ENDBRANCH   1  17
TORSDOF 8
ENDMDL
MODEL 3
REMARK VINA RESULT:      -8.3      4.013      6.684
REMARK  8 active torsions:
REMARK  status: ('A' for Active; 'I' for Inactive)
REMARK    1  A    between atoms: N_4  and  C_10 
REMARK       I    between atoms: N_4  and  C_5 
REMARK    2  A    between atoms: C_5  and  C_22 
REMARK    3  A    between atoms: C_9  and  C_10 
REMARK    4  A    between atoms: C_9  and  C_17 
REMARK    5  A    between atoms: C_10  and  C_26 
REMARK    6  A    between atoms: C_13  and  C_22 
REMARK    7  A    between atoms: C_13  and  C_16 
REMARK    8  A    between atoms: N_21  and  C_22 
ROOT
HETATM    1  N           1     -20.279 -10.098  -4.476  0.00  0.00    -0.344 N 
HETATM    2  C           1     -21.169 -10.887  -5.154  0.00  0.00     0.249 C 
HETATM    3  O           1     -21.294 -10.767  -6.349  0.00  0.00    -0.271 OA
HETATM    4  H           1     -19.323 -10.405  -4.352  0.00  0.00     0.163 HD
ENDROOT
BRANCH   2   5
HETATM    5  C           1     -21.994 -11.906  -4.407  0.00  0.00     0.278 C 
BRANCH   5   6
HETATM    6  C           1     -21.252 -12.336  -3.148  0.00  0.00     0.081 C 
BRANCH   6   7
HETATM    7  C           1     -22.125 -12.114  -1.952  0.00  0.00    -0.056 A 
HETATM    8  C           1     -23.239 -11.280  -2.048  0.00  0.00     0.007 A 
HETATM    9  C           1     -24.052 -11.073  -0.934  0.00  0.00     0.001 A 
HETATM   10  C           1     -23.751 -11.700   0.276  0.00  0.00     0.000 A 
HETATM   11  C           1     -22.637 -12.533   0.371  0.00  0.00     0.001 A 
HETATM   12  C           1     -21.823 -12.740  -0.743  0.00  0.00     0.007 A 
ENDBRANCH   6   7
ENDBRANCH   5   6
BRANCH   5  13
HETATM   13  N           1     -22.224 -13.101  -5.283  0.00  0.00    -0.066 N 
HETATM   14  H           1     -22.971 -12.883  -5.980  0.00  0.00     0.275 HD
HETATM   15  H           1     -22.522 -13.912  -4.695  0.00  0.00     0.275 HD
HETATM   16  H           1     -21.339 -13.342  -5.783  0.00  0.00     0.275 HD
ENDBRANCH   5  13
ENDBRANCH   2   5
BRANCH   1  17
HETATM   17  C           1     -20.706  -8.821  -3.937  0.00  0.00     0.189 C 
BRANCH  17  18
HETATM   18  C           1     -19.878  -8.489  -2.704  0.00  0.00     0.074 C 
BRANCH  18  19
HETATM   19  C           1     -20.782  -8.343  -1.519  0.00  0.00    -0.056 A 
HETATM   20  C           1     -20.594  -9.149  -0.396  0.00  0.00     0.007 A 
HETATM   21  C           1     -21.436  -9.013   0.708  0.00  0.00     0.001 A 
HETATM   22  C           1     -22.465  -8.071   0.690  0.00  0.00     0.000 A 
HETATM   23  C           1     -22.651  -7.265  -0.433  0.00  0.00     0.001 A 
HETATM   24  C           1     -21.810  -7.401  -1.537  0.00  0.00     0.007 A 
ENDBRANCH  18  19
ENDBRANCH  17  18
BRANCH  17  25
HETATM   25  C           1     -20.514  -7.746  -4.978  0.00  0.00     0.197 C 
HETATM   26  O           1     -21.255  -6.738  -4.980  0.00  0.00    -0.646 OA
HETATM   27  O           1     -19.615  -7.863  -5.838  0.00  0.00    -0.646 OA
ENDBRANCH  17  25
ENDBRANCH   1  17
TORSDOF 8
ENDMDL
MODEL 4
REMARK VINA RESULT:      -8.3      5.634      7.612
REMARK  8 active torsions:
REMARK  status: ('A' for Active; 'I' for Inactive)
REMARK    1  A    between atoms: N_4  and  C_10 
REMARK       I    between atoms: N_4  and  C_5 
REMARK    2  A    between atoms: C_5  and  C_22 
REMARK    3  A    between atoms: C_9  and  C_10 
REMARK    4  A    between atoms: C_9  and  C_17 
REMARK    5  A    between atoms: C_10  and  C_26 
REMARK    6  A    between atoms: C_13  and  C_22 
REMARK    7  A    between atoms: C_13  and  C_16 
REMARK    8  A    between atoms: N_21  and  C_22 
ROOT
HETATM    1  N           1     -20.693 -10.513  -4.685  0.00  0.00    -0.344 N 
HETATM    2  C           1     -19.444 -10.470  -4.127  0.00  0.00     0.249 C 
HETATM    3  O           1     -18.527 -11.053  -4.654  0.00  0.00    -0.271 OA
HETATM    4  H           1     -20.970  -9.814  -5.362  0.00  0.00     0.163 HD
ENDROOT
BRANCH   2   5
HETATM    5  C           1     -19.213  -9.693  -2.854  0.00  0.00     0.278 C 
BRANCH   5   6
HETATM    6  C           1     -20.052  -8.422  -2.876  0.00  0.00     0.081 C 
BRANCH   6   7
HETATM    7  C           1     -20.847  -8.326  -1.610  0.00  0.00    -0.056 A 
HETATM    8  C           1     -20.524  -9.136  -0.521  0.00  0.00     0.007 A 
HETATM    9  C           1     -21.264  -9.046   0.657  0.00  0.00     0.001 A 
HETATM   10  C           1     -22.326  -8.146   0.748  0.00  0.00     0.000 A 
HETATM   11  C           1     -22.648  -7.337  -0.340  0.00  0.00     0.001 A 
HETATM   12  C           1     -21.908  -7.427  -1.520  0.00  0.00     0.007 A 
ENDBRANCH   6   7
ENDBRANCH   5   6
BRANCH   5  13
HETATM   13  N           1     -17.762  -9.331  -2.746  0.00  0.00    -0.066 N 
HETATM   14  H           1     -17.392  -9.648  -1.822  0.00  0.00     0.275 HD
HETATM   15  H           1     -17.653  -8.295  -2.828  0.00  0.00     0.275 HD
HETATM   16  H           1     -17.229  -9.798  -3.514  0.00  0.00     0.275 HD
ENDBRANCH   5  13
ENDBRANCH   2   5
BRANCH   1  17
HETATM   17  C           1     -21.620 -11.562  -4.305  0.00  0.00     0.189 C 
BRANCH  17  18
HETATM   18  C           1     -22.801 -10.952  -3.564  0.00  0.00     0.074 C 
BRANCH  18  19
HETATM   19  C           1     -22.821 -11.456  -2.154  0.00  0.00    -0.056 A 
HETATM   20  C           1     -21.821 -12.320  -1.709  0.00  0.00     0.007 A 
HETATM   21  C           1     -21.840 -12.790  -0.395  0.00  0.00     0.001 A 
HETATM   22  C           1     -22.858 -12.395   0.473  0.00  0.00     0.000 A 
HETATM   23  C           1     -23.857 -11.530   0.027  0.00  0.00     0.001 A 
HETATM   24  C           1     -23.839 -11.060  -1.286  0.00  0.00     0.007 A 
ENDBRANCH  18  19
ENDBRANCH  17  18
BRANCH  17  25
HETATM   25  C           1     -22.114 -12.269  -5.544  0.00  0.00     0.197 C 
HETATM   26  O           1     -23.035 -13.111  -5.458  0.00  0.00    -0.646 OA
HETATM   27  O           1     -21.602 -12.014  -6.655  0.00  0.00    -0.646 OA
ENDBRANCH  17  25
ENDBRANCH   1  17
TORSDOF 8
ENDMDL
MODEL 5
REMARK VINA RESULT:      -8.2      2.374      8.692
REMARK  8 active torsions:
REMARK  status: ('A' for Active; 'I' for Inactive)
REMARK    1  A    between atoms: N_4  and  C_10 
REMARK       I    between atoms: N_4  and  C_5 
REMARK    2  A    between atoms: C_5  and  C_22 
REMARK    3  A    between atoms: C_9  and  C_10 
REMARK    4  A    between atoms: C_9  and  C_17 
REMARK    5  A    between atoms: C_10  and  C_26 
REMARK    6  A    between atoms: C_13  and  C_22 
REMARK    7  A    between atoms: C_13  and  C_16 
REMARK    8  A    between atoms: N_21  and  C_22 
ROOT
HETATM    1  N           1     -20.939  -7.563  -1.777  0.00  0.00    -0.344 N 
HETATM    2  C           1     -21.442  -6.766  -2.769  0.00  0.00     0.249 C 
HETATM    3  O           1     -21.956  -5.709  -2.492  0.00  0.00    -0.271 OA
HETATM    4  H           1     -19.976  -7.460  -1.483  0.00  0.00     0.163 HD
ENDROOT
BRANCH   2   5
HETATM    5  C           1     -21.353  -7.208  -4.210  0.00  0.00     0.278 C 
BRANCH   5   6
HETATM    6  C           1     -22.320  -6.388  -5.054  0.00  0.00     0.081 C 
BRANCH   6   7
HETATM    7  C           1     -21.550  -5.563  -6.037  0.00  0.00    -0.056 A 
HETATM    8  C           1     -22.229  -4.755  -6.951  0.00  0.00     0.007 A 
HETATM    9  C           1     -21.512  -3.987  -7.867  0.00  0.00     0.001 A 
HETATM   10  C           1     -20.117  -4.025  -7.870  0.00  0.00     0.000 A 
HETATM   11  C           1     -19.440  -4.832  -6.958  0.00  0.00     0.001 A 
HETATM   12  C           1     -20.157  -5.602  -6.041  0.00  0.00     0.007 A 
ENDBRANCH   6   7
ENDBRANCH   5   6
BRANCH   5  13
HETATM   13  N           1     -21.710  -8.661  -4.309  0.00  0.00    -0.066 N 
HETATM   14  H           1     -21.284  -9.065  -5.174  0.00  0.00     0.275 HD
HETATM   15  H           1     -22.749  -8.763  -4.351  0.00  0.00     0.275 HD
HETATM   16  H           1     -21.344  -9.167  -3.472  0.00  0.00     0.275 HD
ENDBRANCH   5  13
ENDBRANCH   2   5
BRANCH   1  17
HETATM   17  C           1     -21.787  -8.556  -1.146  0.00  0.00     0.189 C 
BRANCH  17  18
HETATM   18  C           1     -20.988  -9.830  -0.909  0.00  0.00     0.074 C 
BRANCH  18  19
HETATM   19  C           1     -21.917 -10.940  -0.528  0.00  0.00    -0.056 A 
HETATM   20  C           1     -23.100 -11.135  -1.240  0.00  0.00     0.007 A 
HETATM   21  C           1     -23.965 -12.170  -0.885  0.00  0.00     0.001 A 
HETATM   22  C           1     -23.648 -13.010   0.182  0.00  0.00     0.000 A 
HETATM   23  C           1     -22.464 -12.815   0.894  0.00  0.00     0.001 A 
HETATM   24  C           1     -21.598 -11.781   0.539  0.00  0.00     0.007 A 
ENDBRANCH  18  19
ENDBRANCH  17  18
BRANCH  17  25
HETATM   25  C           1     -22.288  -8.024   0.174  0.00  0.00     0.197 C 
HETATM   26  O           1     -21.556  -8.072   1.187  0.00  0.00    -0.646 OA
HETATM   27  O           1     -23.435  -7.534   0.256  0.00  0.00    -0.646 OA
ENDBRANCH  17  25
ENDBRANCH   1  17
TORSDOF 8
ENDMDL
MODEL 6
REMARK VINA RESULT:      -8.2     13.794     15.998
REMARK  8 active torsions:
REMARK  status: ('A' for Active; 'I' for Inactive)
REMARK    1  A    between atoms: N_4  and  C_10 
REMARK       I    between atoms: N_4  and  C_5 
REMARK    2  A    between atoms: C_5  and  C_22 
REMARK    3  A    between atoms: C_9  and  C_10 
REMARK    4  A    between atoms: C_9  and  C_17 
REMARK    5  A    between atoms: C_10  and  C_26 
REMARK    6  A    between atoms: C_13  and  C_22 
REMARK    7  A    between atoms: C_13  and  C_16 
REMARK    8  A    between atoms: N_21  and  C_22 
ROOT
HETATM    1  N           1     -35.440  -1.429 -10.284  0.00  0.00    -0.344 N 
HETATM    2  C           1     -34.299  -1.997 -10.782  0.00  0.00     0.249 C 
HETATM    3  O           1     -33.219  -1.595 -10.423  0.00  0.00    -0.271 OA
HETATM    4  H           1     -35.865  -1.799  -9.443  0.00  0.00     0.163 HD
ENDROOT
BRANCH   2   5
HETATM    5  C           1     -34.392  -3.126 -11.780  0.00  0.00     0.278 C 
BRANCH   5   6
HETATM    6  C           1     -33.216  -4.073 -11.586  0.00  0.00     0.081 C 
BRANCH   6   7
HETATM    7  C           1     -33.698  -5.350 -10.972  0.00  0.00    -0.056 A 
HETATM    8  C           1     -34.938  -5.393 -10.334  0.00  0.00     0.007 A 
HETATM    9  C           1     -35.386  -6.582  -9.761  0.00  0.00     0.001 A 
HETATM   10  C           1     -34.596  -7.730  -9.827  0.00  0.00     0.000 A 
HETATM   11  C           1     -33.357  -7.688 -10.464  0.00  0.00     0.001 A 
HETATM   12  C           1     -32.908  -6.497 -11.037  0.00  0.00     0.007 A 
ENDBRANCH   6   7
ENDBRANCH   5   6
BRANCH   5  13
HETATM   13  N           1     -34.360  -2.567 -13.171  0.00  0.00    -0.066 N 
HETATM   14  H           1     -33.872  -1.642 -13.163  0.00  0.00     0.275 HD
HETATM   15  H           1     -35.336  -2.443 -13.520  0.00  0.00     0.275 HD
HETATM   16  H           1     -33.847  -3.226 -13.799  0.00  0.00     0.275 HD
ENDBRANCH   5  13
ENDBRANCH   2   5
BRANCH   1  17
HETATM   17  C           1     -36.042  -0.297 -10.961  0.00  0.00     0.189 C 
BRANCH  17  18
HETATM   18  C           1     -36.997  -0.797 -12.036  0.00  0.00     0.074 C 
BRANCH  18  19
HETATM   19  C           1     -36.685  -0.124 -13.336  0.00  0.00    -0.056 A 
HETATM   20  C           1     -35.452   0.502 -13.518  0.00  0.00     0.007 A 
HETATM   21  C           1     -35.160   1.128 -14.730  0.00  0.00     0.001 A 
HETATM   22  C           1     -36.101   1.129 -15.760  0.00  0.00     0.000 A 
HETATM   23  C           1     -37.334   0.502 -15.577  0.00  0.00     0.001 A 
HETATM   24  C           1     -37.626  -0.125 -14.366  0.00  0.00     0.007 A 
ENDBRANCH  18  19
ENDBRANCH  17  18
BRANCH  17  25
HETATM   25  C           1     -36.801   0.541  -9.963  0.00  0.00     0.197 C 
HETATM   26  O           1     -37.964   0.922 -10.221  0.00  0.00    -0.646 OA
HETATM   27  O           1     -36.268   0.856  -8.877  0.00  0.00    -0.646 OA
ENDBRANCH  17  25
ENDBRANCH   1  17
TORSDOF 8
ENDMDL
MODEL 7
REMARK VINA RESULT:      -8.1      1.621      2.596
REMARK  8 active torsions:
REMARK  status: ('A' for Active; 'I' for Inactive)
REMARK    1  A    between atoms: N_4  and  C_10 
REMARK       I    between atoms: N_4  and  C_5 
REMARK    2  A    between atoms: C_5  and  C_22 
REMARK    3  A    between atoms: C_9  and  C_10 
REMARK    4  A    between atoms: C_9  and  C_17 
REMARK    5  A    between atoms: C_10  and  C_26 
REMARK    6  A    between atoms: C_13  and  C_22 
REMARK    7  A    between atoms: C_13  and  C_16 
REMARK    8  A    between atoms: N_21  and  C_22 
ROOT
HETATM    1  N           1     -22.392  -6.403  -4.232  0.00  0.00    -0.344 N 
HETATM    2  C           1     -21.639  -6.576  -3.102  0.00  0.00     0.249 C 
HETATM    3  O           1     -21.093  -5.629  -2.590  0.00  0.00    -0.271 OA
HETATM    4  H           1     -23.380  -6.198  -4.156  0.00  0.00     0.163 HD
ENDROOT
BRANCH   2   5
HETATM    5  C           1     -21.492  -7.951  -2.497  0.00  0.00     0.278 C 
BRANCH   5   6
HETATM    6  C           1     -21.850  -7.896  -1.018  0.00  0.00     0.081 C 
BRANCH   6   7
HETATM    7  C           1     -21.979  -9.288  -0.482  0.00  0.00    -0.056 A 
HETATM    8  C           1     -20.968  -9.823   0.316  0.00  0.00     0.007 A 
HETATM    9  C           1     -21.087 -11.120   0.815  0.00  0.00     0.001 A 
HETATM   10  C           1     -22.218 -11.881   0.517  0.00  0.00     0.000 A 
HETATM   11  C           1     -23.228 -11.346  -0.281  0.00  0.00     0.001 A 
HETATM   12  C           1     -23.108 -10.048  -0.781  0.00  0.00     0.007 A 
ENDBRANCH   6   7
ENDBRANCH   5   6
BRANCH   5  13
HETATM   13  N           1     -20.074  -8.415  -2.650  0.00  0.00    -0.066 N 
HETATM   14  H           1     -19.906  -9.235  -2.024  0.00  0.00     0.275 HD
HETATM   15  H           1     -19.423  -7.640  -2.391  0.00  0.00     0.275 HD
HETATM   16  H           1     -19.905  -8.694  -3.643  0.00  0.00     0.275 HD
ENDBRANCH   5  13
ENDBRANCH   2   5
BRANCH   1  17
HETATM   17  C           1     -21.773  -6.515  -5.539  0.00  0.00     0.189 C 
BRANCH  17  18
HETATM   18  C           1     -20.903  -5.293  -5.795  0.00  0.00     0.074 C 
BRANCH  18  19
HETATM   19  C           1     -21.099  -4.826  -7.204  0.00  0.00    -0.056 A 
HETATM   20  C           1     -22.322  -4.279  -7.593  0.00  0.00     0.007 A 
HETATM   21  C           1     -22.504  -3.844  -8.906  0.00  0.00     0.001 A 
HETATM   22  C           1     -21.464  -3.954  -9.829  0.00  0.00     0.000 A 
HETATM   23  C           1     -20.241  -4.499  -9.438  0.00  0.00     0.001 A 
HETATM   24  C           1     -20.058  -4.935  -8.126  0.00  0.00     0.007 A 
ENDBRANCH  18  19
ENDBRANCH  17  18
BRANCH  17  25
HETATM   25  C           1     -20.921  -7.759  -5.586  0.00  0.00     0.197 C 
HETATM   26  O           1     -21.461  -8.887  -5.618  0.00  0.00    -0.646 OA
HETATM   27  O           1     -19.675  -7.663  -5.593  0.00  0.00    -0.646 OA
ENDBRANCH  17  25
ENDBRANCH   1  17
TORSDOF 8
ENDMDL
MODEL 8
REMARK VINA RESULT:      -8.0      1.221      8.109
REMARK  8 active torsions:
REMARK  status: ('A' for Active; 'I' for Inactive)
REMARK    1  A    between atoms: N_4  and  C_10 
REMARK       I    between atoms: N_4  and  C_5 
REMARK    2  A    between atoms: C_5  and  C_22 
REMARK    3  A    between atoms: C_9  and  C_10 
REMARK    4  A    between atoms: C_9  and  C_17 
REMARK    5  A    between atoms: C_10  and  C_26 
REMARK    6  A    between atoms: C_13  and  C_22 
REMARK    7  A    between atoms: C_13  and  C_16 
REMARK    8  A    between atoms: N_21  and  C_22 
ROOT
HETATM    1  N           1     -21.272  -7.784  -6.026  0.00  0.00    -0.344 N 
HETATM    2  C           1     -20.209  -6.970  -6.316  0.00  0.00     0.249 C 
HETATM    3  O           1     -19.084  -7.403  -6.254  0.00  0.00    -0.271 OA
HETATM    4  H           1     -21.710  -8.325  -6.761  0.00  0.00     0.163 HD
ENDROOT
BRANCH   2   5
HETATM    5  C           1     -20.446  -5.534  -6.713  0.00  0.00     0.278 C 
BRANCH   5   6
HETATM    6  C           1     -19.710  -5.238  -8.013  0.00  0.00     0.081 C 
BRANCH   6   7
HETATM    7  C           1     -20.664  -4.651  -9.006  0.00  0.00    -0.056 A 
HETATM    8  C           1     -20.261  -4.454 -10.327  0.00  0.00     0.007 A 
HETATM    9  C           1     -21.150  -3.907 -11.252  0.00  0.00     0.001 A 
HETATM   10  C           1     -22.441  -3.557 -10.857  0.00  0.00     0.000 A 
HETATM   11  C           1     -22.843  -3.752  -9.536  0.00  0.00     0.001 A 
HETATM   12  C           1     -21.954  -4.300  -8.610  0.00  0.00     0.007 A 
ENDBRANCH   6   7
ENDBRANCH   5   6
BRANCH   5  13
HETATM   13  N           1     -19.937  -4.627  -5.633  0.00  0.00    -0.066 N 
HETATM   14  H           1     -18.976  -4.926  -5.351  0.00  0.00     0.275 HD
HETATM   15  H           1     -20.574  -4.676  -4.806  0.00  0.00     0.275 HD
HETATM   16  H           1     -19.905  -3.645  -5.989  0.00  0.00     0.275 HD
ENDBRANCH   5  13
ENDBRANCH   2   5
BRANCH   1  17
HETATM   17  C           1     -21.769  -7.870  -4.667  0.00  0.00     0.189 C 
BRANCH  17  18
HETATM   18  C           1     -20.621  -8.212  -3.727  0.00  0.00     0.074 C 
BRANCH  18  19
HETATM   19  C           1     -21.165  -8.838  -2.480  0.00  0.00    -0.056 A 
HETATM   20  C           1     -22.014  -9.940  -2.567  0.00  0.00     0.007 A 
HETATM   21  C           1     -22.520 -10.524  -1.405  0.00  0.00     0.001 A 
HETATM   22  C           1     -22.177 -10.004  -0.157  0.00  0.00     0.000 A 
HETATM   23  C           1     -21.326  -8.902  -0.071  0.00  0.00     0.001 A 
HETATM   24  C           1     -20.820  -8.319  -1.232  0.00  0.00     0.007 A 
ENDBRANCH  18  19
ENDBRANCH  17  18
BRANCH  17  25
HETATM   25  C           1     -22.369  -6.545  -4.266  0.00  0.00     0.197 C 
HETATM   26  O           1     -23.412  -6.137  -4.824  0.00  0.00    -0.646 OA
HETATM   27  O           1     -21.825  -5.854  -3.378  0.00  0.00    -0.646 OA
ENDBRANCH  17  25
ENDBRANCH   1  17
TORSDOF 8
ENDMDL
MODEL 9
REMARK VINA RESULT:      -8.0      4.580      6.123
REMARK  8 active torsions:
REMARK  status: ('A' for Active; 'I' for Inactive)
REMARK    1  A    between atoms: N_4  and  C_10 
REMARK       I    between atoms: N_4  and  C_5 
REMARK    2  A    between atoms: C_5  and  C_22 
REMARK    3  A    between atoms: C_9  and  C_10 
REMARK    4  A    between atoms: C_9  and  C_17 
REMARK    5  A    between atoms: C_10  and  C_26 
REMARK    6  A    between atoms: C_13  and  C_22 
REMARK    7  A    between atoms: C_13  and  C_16 
REMARK    8  A    between atoms: N_21  and  C_22 
ROOT
HETATM    1  N           1     -19.462 -11.656  -2.527  0.00  0.00    -0.344 N 
HETATM    2  C           1     -20.694 -12.192  -2.795  0.00  0.00     0.249 C 
HETATM    3  O           1     -20.814 -13.022  -3.663  0.00  0.00    -0.271 OA
HETATM    4  H           1     -18.859 -12.093  -1.842  0.00  0.00     0.163 HD
ENDROOT
BRANCH   2   5
HETATM    5  C           1     -21.899 -11.744  -2.004  0.00  0.00     0.278 C 
BRANCH   5   6
HETATM    6  C           1     -21.568 -11.764  -0.518  0.00  0.00     0.081 C 
BRANCH   6   7
HETATM    7  C           1     -21.830 -10.413   0.071  0.00  0.00    -0.056 A 
HETATM    8  C           1     -20.876  -9.814   0.895  0.00  0.00     0.007 A 
HETATM    9  C           1     -21.121  -8.556   1.444  0.00  0.00     0.001 A 
HETATM   10  C           1     -22.319  -7.895   1.169  0.00  0.00     0.000 A 
HETATM   11  C           1     -23.271  -8.494   0.346  0.00  0.00     0.001 A 
HETATM   12  C           1     -23.027  -9.753  -0.204  0.00  0.00     0.007 A 
ENDBRANCH   6   7
ENDBRANCH   5   6
BRANCH   5  13
HETATM   13  N           1     -23.045 -12.673  -2.273  0.00  0.00    -0.066 N 
HETATM   14  H           1     -22.730 -13.442  -2.906  0.00  0.00     0.275 HD
HETATM   15  H           1     -23.824 -12.144  -2.727  0.00  0.00     0.275 HD
HETATM   16  H           1     -23.382 -13.080  -1.371  0.00  0.00     0.275 HD
ENDBRANCH   5  13
ENDBRANCH   2   5
BRANCH   1  17
HETATM   17  C           1     -19.024 -10.463  -3.224  0.00  0.00     0.189 C 
BRANCH  17  18
HETATM   18  C           1     -19.198  -9.253  -2.317  0.00  0.00     0.074 C 
BRANCH  18  19
HETATM   19  C           1     -20.221  -8.331  -2.905  0.00  0.00    -0.056 A 
HETATM   20  C           1     -20.571  -8.445  -4.250  0.00  0.00     0.007 A 
HETATM   21  C           1     -21.524  -7.586  -4.798  0.00  0.00     0.001 A 
HETATM   22  C           1     -22.128  -6.614  -4.000  0.00  0.00     0.000 A 
HETATM   23  C           1     -21.778  -6.501  -2.655  0.00  0.00     0.001 A 
HETATM   24  C           1     -20.825  -7.359  -2.107  0.00  0.00     0.007 A 
ENDBRANCH  18  19
ENDBRANCH  17  18
BRANCH  17  25
HETATM   25  C           1     -17.569 -10.606  -3.599  0.00  0.00     0.197 C 
HETATM   26  O           1     -16.839 -11.408  -2.976  0.00  0.00    -0.646 OA
HETATM   27  O           1     -17.094  -9.924  -4.532  0.00  0.00    -0.646 OA
ENDBRANCH  17  25
ENDBRANCH   1  17
TORSDOF 8
ENDMDL
