MODEL 1
REMARK VINA RESULT:      -9.5      0.000      0.000
REMARK  8 active torsions:
REMARK  status: ('A' for Active; 'I' for Inactive)
REMARK    1  A    between atoms: C_4  and  C_7 
REMARK    2  A    between atoms: C_4  and  C_20 
REMARK    3  A    between atoms: C_5  and  C_11 
REMARK    4  A    between atoms: C_5  and  C_18 
REMARK    5  A    between atoms: C_7  and  C_12 
REMARK    6  A    between atoms: C_7  and  N_14 
REMARK    7  A    between atoms: C_11  and  C_31 
REMARK    8  A    between atoms: C_11  and  N_24 
REMARK       I    between atoms: N_14  and  C_31 
ROOT
HETATM    1  N           1     -20.902  -8.255  -5.677  0.00  0.00    -0.344 N 
HETATM    2  H           1     -21.561  -8.786  -6.234  0.00  0.00     0.163 HD
HETATM    3  C           1     -20.577  -6.976  -6.040  0.00  0.00     0.249 C 
HETATM    4  O           1     -19.647  -6.776  -6.783  0.00  0.00    -0.271 OA
ENDROOT
BRANCH   3   5
HETATM    5  C           1     -21.381  -5.814  -5.509  0.00  0.00     0.278 C 
BRANCH   5   6
HETATM    6  C           1     -21.033  -4.555  -6.292  0.00  0.00     0.083 C 
BRANCH   6   7
HETATM    7  C           1     -21.965  -4.415  -7.454  0.00  0.00    -0.028 A 
HETATM    8  C           1     -23.339  -4.348  -7.389  0.00  0.00     0.096 A 
HETATM    9  N           1     -23.813  -4.221  -8.668  0.00  0.00    -0.365 N 
HETATM   10  H           1     -24.828  -4.147  -8.928  0.00  0.00     0.165 HD
HETATM   11  C           1     -22.767  -4.205  -9.564  0.00  0.00     0.042 A 
HETATM   12  C           1     -22.773  -4.093 -10.960  0.00  0.00     0.030 A 
HETATM   13  C           1     -21.591  -4.324  -8.824  0.00  0.00    -0.002 A 
HETATM   14  C           1     -21.538  -4.106 -11.614  0.00  0.00     0.002 A 
HETATM   15  C           1     -20.347  -4.224 -10.900  0.00  0.00     0.001 A 
HETATM   16  C           1     -20.359  -4.335  -9.505  0.00  0.00     0.014 A 
ENDBRANCH   6   7
ENDBRANCH   5   6
BRANCH   5  17
HETATM   17  N           1     -21.060  -5.606  -4.059  0.00  0.00    -0.066 N 
HETATM   18  H           1     -20.335  -4.860  -3.966  0.00  0.00     0.275 HD
HETATM   19  H           1     -20.695  -6.498  -3.651  0.00  0.00     0.275 HD
HETATM   20  H           1     -21.925  -5.318  -3.548  0.00  0.00     0.275 HD
ENDBRANCH   5  17
ENDBRANCH   3   5
BRANCH   1  21
HETATM   21  C           1     -20.303  -8.850  -4.499  0.00  0.00     0.190 C 
BRANCH  21  22
HETATM   22  C           1     -21.214  -9.946  -3.965  0.00  0.00     0.077 C 
BRANCH  22  23
HETATM   23  C           1     -20.963 -10.136  -2.501  0.00  0.00    -0.028 A 
HETATM   24  C           1     -20.298 -11.193  -1.923  0.00  0.00     0.096 A 
HETATM   25  N           1     -20.284 -10.988  -0.568  0.00  0.00    -0.365 N 
HETATM   26  C           1     -20.931  -9.813  -0.257  0.00  0.00     0.042 A 
HETATM   27  H           1     -19.844 -11.633   0.133  0.00  0.00     0.165 HD
HETATM   28  C           1     -21.159  -9.206   0.983  0.00  0.00     0.030 A 
HETATM   29  C           1     -21.368  -9.255  -1.459  0.00  0.00    -0.002 A 
HETATM   30  C           1     -21.857  -7.993   0.992  0.00  0.00     0.002 A 
HETATM   31  C           1     -22.306  -7.414  -0.193  0.00  0.00     0.001 A 
HETATM   32  C           1     -22.069  -8.034  -1.426  0.00  0.00     0.014 A 
ENDBRANCH  22  23
ENDBRANCH  21  22
BRANCH  21  33
HETATM   33  C           1     -18.962  -9.440  -4.861  0.00  0.00     0.197 C 
HETATM   34  O           1     -17.995  -9.324  -4.079  0.00  0.00    -0.646 OA
HETATM   35  O           1     -18.820 -10.047  -5.945  0.00  0.00    -0.646 OA
ENDBRANCH  21  33
ENDBRANCH   1  21
TORSDOF 8
ENDMDL
MODEL 2
REMARK VINA RESULT:      -8.9      2.258      4.163
REMARK  8 active torsions:
REMARK  status: ('A' for Active; 'I' for Inactive)
REMARK    1  A    between atoms: C_4  and  C_7 
REMARK    2  A    between atoms: C_4  and  C_20 
REMARK    3  A    between atoms: C_5  and  C_11 
REMARK    4  A    between atoms: C_5  and  C_18 
REMARK    5  A    between atoms: C_7  and  C_12 
REMARK    6  A    between atoms: C_7  and  N_14 
REMARK    7  A    between atoms: C_11  and  C_31 
REMARK    8  A    between atoms: C_11  and  N_24 
REMARK       I    between atoms: N_14  and  C_31 
ROOT
HETATM    1  N           1     -21.193  -6.733  -3.193  0.00  0.00    -0.344 N 
HETATM    2  H           1     -20.868  -6.032  -2.539  0.00  0.00     0.163 HD
HETATM    3  C           1     -21.688  -6.353  -4.412  0.00  0.00     0.249 C 
HETATM    4  O           1     -22.866  -6.122  -4.541  0.00  0.00    -0.271 OA
ENDROOT
BRANCH   3   5
HETATM    5  C           1     -20.760  -6.224  -5.595  0.00  0.00     0.278 C 
BRANCH   5   6
HETATM    6  C           1     -20.695  -4.768  -6.034  0.00  0.00     0.083 C 
BRANCH   6   7
HETATM    7  C           1     -21.656  -4.541  -7.159  0.00  0.00    -0.028 A 
HETATM    8  C           1     -23.015  -4.358  -7.041  0.00  0.00     0.096 A 
HETATM    9  N           1     -23.525  -4.183  -8.301  0.00  0.00    -0.365 N 
HETATM   10  H           1     -24.539  -4.021  -8.521  0.00  0.00     0.165 HD
HETATM   11  C           1     -22.516  -4.250  -9.236  0.00  0.00     0.042 A 
HETATM   12  C           1     -22.567  -4.129 -10.631  0.00  0.00     0.030 A 
HETATM   13  C           1     -21.328  -4.474  -8.542  0.00  0.00    -0.002 A 
HETATM   14  C           1     -21.363  -4.243 -11.331  0.00  0.00     0.002 A 
HETATM   15  C           1     -20.160  -4.467 -10.665  0.00  0.00     0.001 A 
HETATM   16  C           1     -20.128  -4.585  -9.271  0.00  0.00     0.014 A 
ENDBRANCH   6   7
ENDBRANCH   5   6
BRANCH   5  17
HETATM   17  N           1     -21.275  -7.064  -6.726  0.00  0.00    -0.066 N 
HETATM   18  H           1     -22.147  -6.635  -7.110  0.00  0.00     0.275 HD
HETATM   19  H           1     -21.486  -8.027  -6.377  0.00  0.00     0.275 HD
HETATM   20  H           1     -20.551  -7.118  -7.478  0.00  0.00     0.275 HD
ENDBRANCH   5  17
ENDBRANCH   3   5
BRANCH   1  21
HETATM   21  C           1     -21.137  -8.138  -2.839  0.00  0.00     0.190 C 
BRANCH  21  22
HETATM   22  C           1     -19.682  -8.568  -2.707  0.00  0.00     0.077 C 
BRANCH  22  23
HETATM   23  C           1     -19.278  -9.344  -3.922  0.00  0.00    -0.028 A 
HETATM   24  C           1     -20.119  -9.788  -4.918  0.00  0.00     0.096 A 
HETATM   25  N           1     -19.357 -10.452  -5.843  0.00  0.00    -0.365 N 
HETATM   26  C           1     -18.034 -10.445  -5.464  0.00  0.00     0.042 A 
HETATM   27  H           1     -19.729 -10.900  -6.716  0.00  0.00     0.165 HD
HETATM   28  C           1     -16.909 -10.993  -6.093  0.00  0.00     0.030 A 
HETATM   29  C           1     -17.957  -9.752  -4.256  0.00  0.00    -0.002 A 
HETATM   30  C           1     -15.671 -10.827  -5.464  0.00  0.00     0.002 A 
HETATM   31  C           1     -15.565 -10.140  -4.256  0.00  0.00     0.001 A 
HETATM   32  C           1     -16.699  -9.597  -3.641  0.00  0.00     0.014 A 
ENDBRANCH  22  23
ENDBRANCH  21  22
BRANCH  21  33
HETATM   33  C           1     -21.848  -8.353  -1.526  0.00  0.00     0.197 C 
HETATM   34  O           1     -22.144  -7.375  -0.806  0.00  0.00    -0.646 OA
HETATM   35  O           1     -22.144  -9.511  -1.158  0.00  0.00    -0.646 OA
ENDBRANCH  21  33
ENDBRANCH   1  21
TORSDOF 8
ENDMDL
MODEL 3
REMARK VINA RESULT:      -8.4      1.995      8.524
REMARK  8 active torsions:
REMARK  status: ('A' for Active; 'I' for Inactive)
REMARK    1  A    between atoms: C_4  and  C_7 
REMARK    2  A    between atoms: C_4  and  C_20 
REMARK    3  A    between atoms: C_5  and  C_11 
REMARK    4  A    between atoms: C_5  and  C_18 
REMARK    5  A    between atoms: C_7  and  C_12 
REMARK    6  A    between atoms: C_7  and  N_14 
REMARK    7  A    between atoms: C_11  and  C_31 
REMARK    8  A    between atoms: C_11  and  N_24 
REMARK       I    between atoms: N_14  and  C_31 
ROOT
HETATM    1  N           1     -20.174  -7.220  -4.580  0.00  0.00    -0.344 N 
HETATM    2  H           1     -19.681  -7.053  -3.712  0.00  0.00     0.163 HD
HETATM    3  C           1     -20.034  -8.419  -5.225  0.00  0.00     0.249 C 
HETATM    4  O           1     -19.160  -8.567  -6.044  0.00  0.00    -0.271 OA
ENDROOT
BRANCH   3   5
HETATM    5  C           1     -20.975  -9.558  -4.913  0.00  0.00     0.278 C 
BRANCH   5   6
HETATM    6  C           1     -20.487 -10.295  -3.673  0.00  0.00     0.083 C 
BRANCH   6   7
HETATM    7  C           1     -21.614 -10.433  -2.697  0.00  0.00    -0.028 A 
HETATM    8  C           1     -22.579 -11.415  -2.706  0.00  0.00     0.096 A 
HETATM    9  N           1     -23.419 -11.184  -1.649  0.00  0.00    -0.365 N 
HETATM   10  H           1     -24.253 -11.775  -1.404  0.00  0.00     0.165 HD
HETATM   11  C           1     -23.014 -10.067  -0.953  0.00  0.00     0.042 A 
HETATM   12  C           1     -23.563  -9.461   0.184  0.00  0.00     0.030 A 
HETATM   13  C           1     -21.877  -9.576  -1.593  0.00  0.00    -0.002 A 
HETATM   14  C           1     -22.927  -8.319   0.677  0.00  0.00     0.002 A 
HETATM   15  C           1     -21.789  -7.805   0.058  0.00  0.00     0.001 A 
HETATM   16  C           1     -21.253  -8.423  -1.078  0.00  0.00     0.014 A 
ENDBRANCH   6   7
ENDBRANCH   5   6
BRANCH   5  17
HETATM   17  N           1     -21.015 -10.505  -6.075  0.00  0.00    -0.066 N 
HETATM   18  H           1     -20.637 -10.029  -6.925  0.00  0.00     0.275 HD
HETATM   19  H           1     -22.003 -10.798  -6.252  0.00  0.00     0.275 HD
HETATM   20  H           1     -20.435 -11.347  -5.858  0.00  0.00     0.275 HD
ENDBRANCH   5  17
ENDBRANCH   3   5
BRANCH   1  21
HETATM   21  C           1     -21.026  -6.189  -5.141  0.00  0.00     0.190 C 
BRANCH  21  22
HETATM   22  C           1     -21.324  -6.516  -6.597  0.00  0.00     0.077 C 
BRANCH  22  23
HETATM   23  C           1     -20.677  -5.496  -7.482  0.00  0.00    -0.028 A 
HETATM   24  C           1     -19.430  -4.941  -7.301  0.00  0.00     0.096 A 
HETATM   25  N           1     -19.215  -4.055  -8.325  0.00  0.00    -0.365 N 
HETATM   26  C           1     -20.303  -4.028  -9.168  0.00  0.00     0.042 A 
HETATM   27  H           1     -18.345  -3.482  -8.449  0.00  0.00     0.165 HD
HETATM   28  C           1     -20.528  -3.283 -10.331  0.00  0.00     0.030 A 
HETATM   29  C           1     -21.239  -4.928  -8.659  0.00  0.00    -0.002 A 
HETATM   30  C           1     -21.748  -3.464 -10.991  0.00  0.00     0.002 A 
HETATM   31  C           1     -22.701  -4.356 -10.505  0.00  0.00     0.001 A 
HETATM   32  C           1     -22.461  -5.094  -9.339  0.00  0.00     0.014 A 
ENDBRANCH  22  23
ENDBRANCH  21  22
BRANCH  21  33
HETATM   33  C           1     -22.317  -6.128  -4.363  0.00  0.00     0.197 C 
HETATM   34  O           1     -23.412  -6.148  -4.964  0.00  0.00    -0.646 OA
HETATM   35  O           1     -22.291  -6.057  -3.114  0.00  0.00    -0.646 OA
ENDBRANCH  21  33
ENDBRANCH   1  21
TORSDOF 8
ENDMDL
MODEL 4
REMARK VINA RESULT:      -8.2      4.668      7.161
REMARK  8 active torsions:
REMARK  status: ('A' for Active; 'I' for Inactive)
REMARK    1  A    between atoms: C_4  and  C_7 
REMARK    2  A    between atoms: C_4  and  C_20 
REMARK    3  A    between atoms: C_5  and  C_11 
REMARK    4  A    between atoms: C_5  and  C_18 
REMARK    5  A    between atoms: C_7  and  C_12 
REMARK    6  A    between atoms: C_7  and  N_14 
REMARK    7  A    between atoms: C_11  and  C_31 
REMARK    8  A    between atoms: C_11  and  N_24 
REMARK       I    between atoms: N_14  and  C_31 
ROOT
HETATM    1  N           1     -18.210 -11.106  -4.638  0.00  0.00    -0.344 N 
HETATM    2  H           1     -17.734 -11.955  -4.361  0.00  0.00     0.163 HD
HETATM    3  C           1     -19.086 -11.127  -5.691  0.00  0.00     0.249 C 
HETATM    4  O           1     -18.690 -10.912  -6.811  0.00  0.00    -0.271 OA
ENDROOT
BRANCH   3   5
HETATM    5  C           1     -20.547 -11.417  -5.450  0.00  0.00     0.278 C 
BRANCH   5   6
HETATM    6  C           1     -20.687 -12.384  -4.282  0.00  0.00     0.083 C 
BRANCH   6   7
HETATM    7  C           1     -21.749 -11.889  -3.349  0.00  0.00    -0.028 A 
HETATM    8  C           1     -22.783 -11.041  -3.674  0.00  0.00     0.096 A 
HETATM    9  N           1     -23.529 -10.837  -2.542  0.00  0.00    -0.365 N 
HETATM   10  H           1     -24.385 -10.231  -2.488  0.00  0.00     0.165 HD
HETATM   11  C           1     -22.993 -11.541  -1.486  0.00  0.00     0.042 A 
HETATM   12  C           1     -23.415 -11.633  -0.154  0.00  0.00     0.030 A 
HETATM   13  C           1     -21.871 -12.214  -1.969  0.00  0.00    -0.002 A 
HETATM   14  C           1     -22.663 -12.437   0.707  0.00  0.00     0.002 A 
HETATM   15  C           1     -21.536 -13.121   0.252  0.00  0.00     0.001 A 
HETATM   16  C           1     -21.129 -13.018  -1.083  0.00  0.00     0.014 A 
ENDBRANCH   6   7
ENDBRANCH   5   6
BRANCH   5  17
HETATM   17  N           1     -21.142 -12.032  -6.682  0.00  0.00    -0.066 N 
HETATM   18  H           1     -22.142 -11.742  -6.768  0.00  0.00     0.275 HD
HETATM   19  H           1     -21.088 -13.074  -6.612  0.00  0.00     0.275 HD
HETATM   20  H           1     -20.611 -11.712  -7.523  0.00  0.00     0.275 HD
ENDBRANCH   5  17
ENDBRANCH   3   5
BRANCH   1  21
HETATM   21  C           1     -17.964  -9.869  -3.923  0.00  0.00     0.190 C 
BRANCH  21  22
HETATM   22  C           1     -18.569  -9.961  -2.529  0.00  0.00     0.077 C 
BRANCH  22  23
HETATM   23  C           1     -19.747  -9.041  -2.435  0.00  0.00    -0.028 A 
HETATM   24  C           1     -20.258  -8.270  -3.454  0.00  0.00     0.096 A 
HETATM   25  N           1     -21.330  -7.576  -2.957  0.00  0.00    -0.365 N 
HETATM   26  C           1     -21.524  -7.886  -1.629  0.00  0.00     0.042 A 
HETATM   27  H           1     -21.920  -6.906  -3.509  0.00  0.00     0.165 HD
HETATM   28  C           1     -22.487  -7.425  -0.724  0.00  0.00     0.030 A 
HETATM   29  C           1     -20.539  -8.808  -1.275  0.00  0.00    -0.002 A 
HETATM   30  C           1     -22.438  -7.923   0.583  0.00  0.00     0.002 A 
HETATM   31  C           1     -21.465  -8.845   0.964  0.00  0.00     0.001 A 
HETATM   32  C           1     -20.509  -9.295   0.045  0.00  0.00     0.014 A 
ENDBRANCH  22  23
ENDBRANCH  21  22
BRANCH  21  33
HETATM   33  C           1     -16.477  -9.641  -3.813  0.00  0.00     0.197 C 
HETATM   34  O           1     -15.978  -9.276  -2.727  0.00  0.00    -0.646 OA
HETATM   35  O           1     -15.742  -9.819  -4.810  0.00  0.00    -0.646 OA
ENDBRANCH  21  33
ENDBRANCH   1  21
TORSDOF 8
ENDMDL
MODEL 5
REMARK VINA RESULT:      -8.2      4.947      6.573
REMARK  8 active torsions:
REMARK  status: ('A' for Active; 'I' for Inactive)
REMARK    1  A    between atoms: C_4  and  C_7 
REMARK    2  A    between atoms: C_4  and  C_20 
REMARK    3  A    between atoms: C_5  and  C_11 
REMARK    4  A    between atoms: C_5  and  C_18 
REMARK    5  A    between atoms: C_7  and  C_12 
REMARK    6  A    between atoms: C_7  and  N_14 
REMARK    7  A    between atoms: C_11  and  C_31 
REMARK    8  A    between atoms: C_11  and  N_24 
REMARK       I    between atoms: N_14  and  C_31 
ROOT
HETATM    1  N           1     -20.067 -11.126  -5.974  0.00  0.00    -0.344 N 
HETATM    2  H           1     -20.552 -10.403  -6.491  0.00  0.00     0.163 HD
HETATM    3  C           1     -18.743 -10.973  -5.664  0.00  0.00     0.249 C 
HETATM    4  O           1     -17.894 -11.371  -6.425  0.00  0.00    -0.271 OA
ENDROOT
BRANCH   3   5
HETATM    5  C           1     -18.343 -10.308  -4.369  0.00  0.00     0.278 C 
BRANCH   5   6
HETATM    6  C           1     -19.361  -9.232  -4.015  0.00  0.00     0.083 C 
BRANCH   6   7
HETATM    7  C           1     -19.825  -9.427  -2.605  0.00  0.00    -0.028 A 
HETATM    8  C           1     -19.432 -10.435  -1.754  0.00  0.00     0.096 A 
HETATM    9  N           1     -20.083 -10.255  -0.562  0.00  0.00    -0.365 N 
HETATM   10  H           1     -19.980 -10.874   0.279  0.00  0.00     0.165 HD
HETATM   11  C           1     -20.895  -9.143  -0.627  0.00  0.00     0.042 A 
HETATM   12  C           1     -21.738  -8.581   0.340  0.00  0.00     0.030 A 
HETATM   13  C           1     -20.749  -8.603  -1.905  0.00  0.00    -0.002 A 
HETATM   14  C           1     -22.451  -7.433  -0.015  0.00  0.00     0.002 A 
HETATM   15  C           1     -22.325  -6.871  -1.284  0.00  0.00     0.001 A 
HETATM   16  C           1     -21.478  -7.446  -2.239  0.00  0.00     0.014 A 
ENDBRANCH   6   7
ENDBRANCH   5   6
BRANCH   5  17
HETATM   17  N           1     -16.989  -9.683  -4.527  0.00  0.00    -0.066 N 
HETATM   18  H           1     -16.800  -9.514  -5.540  0.00  0.00     0.275 HD
HETATM   19  H           1     -16.261 -10.326  -4.140  0.00  0.00     0.275 HD
HETATM   20  H           1     -16.961  -8.775  -4.009  0.00  0.00     0.275 HD
ENDBRANCH   5  17
ENDBRANCH   3   5
BRANCH   1  21
HETATM   21  C           1     -20.775 -12.323  -5.563  0.00  0.00     0.190 C 
BRANCH  21  22
HETATM   22  C           1     -21.991 -11.933  -4.734  0.00  0.00     0.077 C 
BRANCH  22  23
HETATM   23  C           1     -21.888 -12.554  -3.375  0.00  0.00    -0.028 A 
HETATM   24  C           1     -21.066 -13.600  -3.021  0.00  0.00     0.096 A 
HETATM   25  N           1     -21.274 -13.864  -1.693  0.00  0.00    -0.365 N 
HETATM   26  C           1     -22.219 -13.005  -1.178  0.00  0.00     0.042 A 
HETATM   27  H           1     -20.783 -14.614  -1.146  0.00  0.00     0.165 HD
HETATM   28  C           1     -22.741 -12.905   0.117  0.00  0.00     0.030 A 
HETATM   29  C           1     -22.621 -12.168  -2.219  0.00  0.00    -0.002 A 
HETATM   30  C           1     -23.706 -11.919   0.351  0.00  0.00     0.002 A 
HETATM   31  C           1     -24.127 -11.070  -0.669  0.00  0.00     0.001 A 
HETATM   32  C           1     -23.594 -11.183  -1.959  0.00  0.00     0.014 A 
ENDBRANCH  22  23
ENDBRANCH  21  22
BRANCH  21  33
HETATM   33  C           1     -21.222 -13.085  -6.786  0.00  0.00     0.197 C 
HETATM   34  O           1     -22.179 -13.885  -6.710  0.00  0.00    -0.646 OA
HETATM   35  O           1     -20.635 -12.915  -7.878  0.00  0.00    -0.646 OA
ENDBRANCH  21  33
ENDBRANCH   1  21
TORSDOF 8
ENDMDL
MODEL 6
REMARK VINA RESULT:      -8.1      2.197      3.478
REMARK  8 active torsions:
REMARK  status: ('A' for Active; 'I' for Inactive)
REMARK    1  A    between atoms: C_4  and  C_7 
REMARK    2  A    between atoms: C_4  and  C_20 
REMARK    3  A    between atoms: C_5  and  C_11 
REMARK    4  A    between atoms: C_5  and  C_18 
REMARK    5  A    between atoms: C_7  and  C_12 
REMARK    6  A    between atoms: C_7  and  N_14 
REMARK    7  A    between atoms: C_11  and  C_31 
REMARK    8  A    between atoms: C_11  and  N_24 
REMARK       I    between atoms: N_14  and  C_31 
ROOT
HETATM    1  N           1     -21.564  -6.398  -3.165  0.00  0.00    -0.344 N 
HETATM    2  H           1     -21.473  -5.550  -2.619  0.00  0.00     0.163 HD
HETATM    3  C           1     -21.886  -6.324  -4.494  0.00  0.00     0.249 C 
HETATM    4  O           1     -23.044  -6.338  -4.837  0.00  0.00    -0.271 OA
ENDROOT
BRANCH   3   5
HETATM    5  C           1     -20.793  -6.225  -5.530  0.00  0.00     0.278 C 
BRANCH   5   6
HETATM    6  C           1     -20.673  -4.784  -6.006  0.00  0.00     0.083 C 
BRANCH   6   7
HETATM    7  C           1     -21.632  -4.548  -7.132  0.00  0.00    -0.028 A 
HETATM    8  C           1     -22.988  -4.347  -7.014  0.00  0.00     0.096 A 
HETATM    9  N           1     -23.496  -4.169  -8.274  0.00  0.00    -0.365 N 
HETATM   10  H           1     -24.508  -3.995  -8.495  0.00  0.00     0.165 HD
HETATM   11  C           1     -22.488  -4.251  -9.210  0.00  0.00     0.042 A 
HETATM   12  C           1     -22.537  -4.133 -10.604  0.00  0.00     0.030 A 
HETATM   13  C           1     -21.303  -4.488  -8.515  0.00  0.00    -0.002 A 
HETATM   14  C           1     -21.335  -4.263 -11.305  0.00  0.00     0.002 A 
HETATM   15  C           1     -20.135  -4.501 -10.638  0.00  0.00     0.001 A 
HETATM   16  C           1     -20.104  -4.616  -9.243  0.00  0.00     0.014 A 
ENDBRANCH   6   7
ENDBRANCH   5   6
BRANCH   5  17
HETATM   17  N           1     -21.129  -7.110  -6.694  0.00  0.00    -0.066 N 
HETATM   18  H           1     -20.251  -7.373  -7.195  0.00  0.00     0.275 HD
HETATM   19  H           1     -21.762  -6.598  -7.350  0.00  0.00     0.275 HD
HETATM   20  H           1     -21.607  -7.972  -6.349  0.00  0.00     0.275 HD
ENDBRANCH   5  17
ENDBRANCH   3   5
BRANCH   1  21
HETATM   21  C           1     -21.356  -7.689  -2.540  0.00  0.00     0.190 C 
BRANCH  21  22
HETATM   22  C           1     -19.878  -7.865  -2.220  0.00  0.00     0.077 C 
BRANCH  22  23
HETATM   23  C           1     -19.353  -9.073  -2.932  0.00  0.00    -0.028 A 
HETATM   24  C           1     -18.886  -9.113  -4.226  0.00  0.00     0.096 A 
HETATM   25  N           1     -18.500 -10.401  -4.492  0.00  0.00    -0.365 N 
HETATM   26  C           1     -18.709 -11.198  -3.389  0.00  0.00     0.042 A 
HETATM   27  H           1     -18.101 -10.732  -5.404  0.00  0.00     0.165 HD
HETATM   28  C           1     -18.465 -12.563  -3.200  0.00  0.00     0.030 A 
HETATM   29  C           1     -19.246 -10.385  -2.391  0.00  0.00    -0.002 A 
HETATM   30  C           1     -18.782 -13.111  -1.952  0.00  0.00     0.002 A 
HETATM   31  C           1     -19.320 -12.322  -0.938  0.00  0.00     0.001 A 
HETATM   32  C           1     -19.557 -10.958  -1.143  0.00  0.00     0.014 A 
ENDBRANCH  22  23
ENDBRANCH  21  22
BRANCH  21  33
HETATM   33  C           1     -22.161  -7.765  -1.266  0.00  0.00     0.197 C 
HETATM   34  O           1     -22.649  -6.727  -0.771  0.00  0.00    -0.646 OA
HETATM   35  O           1     -22.340  -8.869  -0.705  0.00  0.00    -0.646 OA
ENDBRANCH  21  33
ENDBRANCH   1  21
TORSDOF 8
ENDMDL
MODEL 7
REMARK VINA RESULT:      -8.1      3.876      7.802
REMARK  8 active torsions:
REMARK  status: ('A' for Active; 'I' for Inactive)
REMARK    1  A    between atoms: C_4  and  C_7 
REMARK    2  A    between atoms: C_4  and  C_20 
REMARK    3  A    between atoms: C_5  and  C_11 
REMARK    4  A    between atoms: C_5  and  C_18 
REMARK    5  A    between atoms: C_7  and  C_12 
REMARK    6  A    between atoms: C_7  and  N_14 
REMARK    7  A    between atoms: C_11  and  C_31 
REMARK    8  A    between atoms: C_11  and  N_24 
REMARK       I    between atoms: N_14  and  C_31 
ROOT
HETATM    1  N           1     -18.047 -12.235  -1.997  0.00  0.00    -0.344 N 
HETATM    2  H           1     -17.632 -12.365  -1.083  0.00  0.00     0.163 HD
HETATM    3  C           1     -18.881 -13.191  -2.511  0.00  0.00     0.249 C 
HETATM    4  O           1     -18.430 -14.092  -3.177  0.00  0.00    -0.271 OA
ENDROOT
BRANCH   3   5
HETATM    5  C           1     -20.365 -13.119  -2.245  0.00  0.00     0.278 C 
BRANCH   5   6
HETATM    6  C           1     -20.603 -12.686  -0.805  0.00  0.00     0.083 C 
BRANCH   6   7
HETATM    7  C           1     -21.746 -11.721  -0.755  0.00  0.00    -0.028 A 
HETATM    8  C           1     -22.971 -11.883  -1.361  0.00  0.00     0.096 A 
HETATM    9  N           1     -23.731 -10.779  -1.071  0.00  0.00    -0.365 N 
HETATM   10  H           1     -24.715 -10.624  -1.401  0.00  0.00     0.165 HD
HETATM   11  C           1     -23.016  -9.903  -0.285  0.00  0.00     0.042 A 
HETATM   12  C           1     -23.382  -8.660   0.247  0.00  0.00     0.030 A 
HETATM   13  C           1     -21.762 -10.474  -0.071  0.00  0.00    -0.002 A 
HETATM   14  C           1     -22.434  -7.985   1.021  0.00  0.00     0.002 A 
HETATM   15  C           1     -21.173  -8.531   1.252  0.00  0.00     0.001 A 
HETATM   16  C           1     -20.823  -9.774   0.712  0.00  0.00     0.014 A 
ENDBRANCH   6   7
ENDBRANCH   5   6
BRANCH   5  17
HETATM   17  N           1     -20.978 -14.469  -2.470  0.00  0.00    -0.066 N 
HETATM   18  H           1     -22.008 -14.364  -2.614  0.00  0.00     0.275 HD
HETATM   19  H           1     -20.804 -15.074  -1.635  0.00  0.00     0.275 HD
HETATM   20  H           1     -20.550 -14.910  -3.314  0.00  0.00     0.275 HD
ENDBRANCH   5  17
ENDBRANCH   3   5
BRANCH   1  21
HETATM   21  C           1     -17.757 -11.038  -2.762  0.00  0.00     0.190 C 
BRANCH  21  22
HETATM   22  C           1     -18.639  -9.898  -2.273  0.00  0.00     0.077 C 
BRANCH  22  23
HETATM   23  C           1     -19.460  -9.378  -3.412  0.00  0.00    -0.028 A 
HETATM   24  C           1     -19.436  -9.842  -4.707  0.00  0.00     0.096 A 
HETATM   25  N           1     -20.331  -9.101  -5.434  0.00  0.00    -0.365 N 
HETATM   26  C           1     -20.937  -8.163  -4.629  0.00  0.00     0.042 A 
HETATM   27  H           1     -20.527  -9.231  -6.456  0.00  0.00     0.165 HD
HETATM   28  C           1     -21.907  -7.200  -4.933  0.00  0.00     0.030 A 
HETATM   29  C           1     -20.406  -8.317  -3.348  0.00  0.00    -0.002 A 
HETATM   30  C           1     -22.343  -6.370  -3.895  0.00  0.00     0.002 A 
HETATM   31  C           1     -21.829  -6.501  -2.606  0.00  0.00     0.001 A 
HETATM   32  C           1     -20.860  -7.470  -2.319  0.00  0.00     0.014 A 
ENDBRANCH  22  23
ENDBRANCH  21  22
BRANCH  21  33
HETATM   33  C           1     -16.305 -10.667  -2.580  0.00  0.00     0.197 C 
HETATM   34  O           1     -15.949  -9.473  -2.672  0.00  0.00    -0.646 OA
HETATM   35  O           1     -15.459 -11.555  -2.337  0.00  0.00    -0.646 OA
ENDBRANCH  21  33
ENDBRANCH   1  21
TORSDOF 8
ENDMDL
MODEL 8
REMARK VINA RESULT:      -8.0      3.984      7.365
REMARK  8 active torsions:
REMARK  status: ('A' for Active; 'I' for Inactive)
REMARK    1  A    between atoms: C_4  and  C_7 
REMARK    2  A    between atoms: C_4  and  C_20 
REMARK    3  A    between atoms: C_5  and  C_11 
REMARK    4  A    between atoms: C_5  and  C_18 
REMARK    5  A    between atoms: C_7  and  C_12 
REMARK    6  A    between atoms: C_7  and  N_14 
REMARK    7  A    between atoms: C_11  and  C_31 
REMARK    8  A    between atoms: C_11  and  N_24 
REMARK       I    between atoms: N_14  and  C_31 
ROOT
HETATM    1  N           1     -20.320  -8.205  -4.649  0.00  0.00    -0.344 N 
HETATM    2  H           1     -19.748  -7.485  -5.070  0.00  0.00     0.163 HD
HETATM    3  C           1     -20.171  -9.510  -5.037  0.00  0.00     0.249 C 
HETATM    4  O           1     -20.825  -9.947  -5.952  0.00  0.00    -0.271 OA
ENDROOT
BRANCH   3   5
HETATM    5  C           1     -19.187 -10.402  -4.319  0.00  0.00     0.278 C 
BRANCH   5   6
HETATM    6  C           1     -17.851  -9.683  -4.187  0.00  0.00     0.083 C 
BRANCH   6   7
HETATM    7  C           1     -16.879 -10.563  -3.466  0.00  0.00    -0.028 A 
HETATM    8  C           1     -16.929 -10.906  -2.134  0.00  0.00     0.096 A 
HETATM    9  N           1     -15.861 -11.725  -1.872  0.00  0.00    -0.365 N 
HETATM   10  H           1     -15.641 -12.143  -0.934  0.00  0.00     0.165 HD
HETATM   11  C           1     -15.118 -11.918  -3.015  0.00  0.00     0.042 A 
HETATM   12  C           1     -13.955 -12.670  -3.221  0.00  0.00     0.030 A 
HETATM   13  C           1     -15.739 -11.197  -4.035  0.00  0.00    -0.002 A 
HETATM   14  C           1     -13.414 -12.682  -4.510  0.00  0.00     0.002 A 
HETATM   15  C           1     -14.013 -11.971  -5.548  0.00  0.00     0.001 A 
HETATM   16  C           1     -15.175 -11.224  -5.325  0.00  0.00     0.014 A 
ENDBRANCH   6   7
ENDBRANCH   5   6
BRANCH   5  17
HETATM   17  N           1     -18.998 -11.667  -5.102  0.00  0.00    -0.066 N 
HETATM   18  H           1     -18.906 -12.473  -4.444  0.00  0.00     0.275 HD
HETATM   19  H           1     -18.132 -11.592  -5.682  0.00  0.00     0.275 HD
HETATM   20  H           1     -19.823 -11.817  -5.725  0.00  0.00     0.275 HD
ENDBRANCH   5  17
ENDBRANCH   3   5
BRANCH   1  21
HETATM   21  C           1     -21.299  -7.857  -3.638  0.00  0.00     0.190 C 
BRANCH  21  22
HETATM   22  C           1     -20.673  -8.001  -2.257  0.00  0.00     0.077 C 
BRANCH  22  23
HETATM   23  C           1     -21.711  -8.474  -1.286  0.00  0.00    -0.028 A 
HETATM   24  C           1     -22.204  -7.762  -0.216  0.00  0.00     0.096 A 
HETATM   25  N           1     -23.131  -8.548   0.417  0.00  0.00    -0.365 N 
HETATM   26  C           1     -23.248  -9.759  -0.227  0.00  0.00     0.042 A 
HETATM   27  H           1     -23.675  -8.266   1.269  0.00  0.00     0.165 HD
HETATM   28  C           1     -24.063 -10.861   0.059  0.00  0.00     0.030 A 
HETATM   29  C           1     -22.363  -9.738  -1.305  0.00  0.00    -0.002 A 
HETATM   30  C           1     -23.966 -11.974  -0.783  0.00  0.00     0.002 A 
HETATM   31  C           1     -23.090 -11.980  -1.866  0.00  0.00     0.001 A 
HETATM   32  C           1     -22.283 -10.870  -2.139  0.00  0.00     0.014 A 
ENDBRANCH  22  23
ENDBRANCH  21  22
BRANCH  21  33
HETATM   33  C           1     -21.745  -6.430  -3.843  0.00  0.00     0.197 C 
HETATM   34  O           1     -21.346  -5.532  -3.071  0.00  0.00    -0.646 OA
HETATM   35  O           1     -22.515  -6.146  -4.786  0.00  0.00    -0.646 OA
ENDBRANCH  21  33
ENDBRANCH   1  21
TORSDOF 8
ENDMDL
MODEL 9
REMARK VINA RESULT:      -7.8      4.141      6.808
REMARK  8 active torsions:
REMARK  status: ('A' for Active; 'I' for Inactive)
REMARK    1  A    between atoms: C_4  and  C_7 
REMARK    2  A    between atoms: C_4  and  C_20 
REMARK    3  A    between atoms: C_5  and  C_11 
REMARK    4  A    between atoms: C_5  and  C_18 
REMARK    5  A    between atoms: C_7  and  C_12 
REMARK    6  A    between atoms: C_7  and  N_14 
REMARK    7  A    between atoms: C_11  and  C_31 
REMARK    8  A    between atoms: C_11  and  N_24 
REMARK       I    between atoms: N_14  and  C_31 
ROOT
HETATM    1  N           1     -20.088 -11.275   0.603  0.00  0.00    -0.344 N 
HETATM    2  H           1     -19.725 -10.836   1.439  0.00  0.00     0.163 HD
HETATM    3  C           1     -21.427 -11.211   0.324  0.00  0.00     0.249 C 
HETATM    4  O           1     -22.171 -12.070   0.734  0.00  0.00    -0.271 OA
ENDROOT
BRANCH   3   5
HETATM    5  C           1     -21.973 -10.068  -0.496  0.00  0.00     0.278 C 
BRANCH   5   6
HETATM    6  C           1     -21.178  -8.804  -0.198  0.00  0.00     0.083 C 
BRANCH   6   7
HETATM    7  C           1     -21.513  -7.753  -1.211  0.00  0.00    -0.028 A 
HETATM    8  C           1     -22.317  -6.655  -1.004  0.00  0.00     0.096 A 
HETATM    9  N           1     -22.365  -5.946  -2.176  0.00  0.00    -0.365 N 
HETATM   10  H           1     -22.905  -5.056  -2.318  0.00  0.00     0.165 HD
HETATM   11  C           1     -21.604  -6.568  -3.141  0.00  0.00     0.042 A 
HETATM   12  C           1     -21.362  -6.208  -4.472  0.00  0.00     0.030 A 
HETATM   13  C           1     -21.055  -7.709  -2.557  0.00  0.00    -0.002 A 
HETATM   14  C           1     -20.534  -7.044  -5.226  0.00  0.00     0.002 A 
HETATM   15  C           1     -19.972  -8.191  -4.669  0.00  0.00     0.001 A 
HETATM   16  C           1     -20.224  -8.536  -3.337  0.00  0.00     0.014 A 
ENDBRANCH   6   7
ENDBRANCH   5   6
BRANCH   5  17
HETATM   17  N           1     -23.414  -9.846  -0.144  0.00  0.00    -0.066 N 
HETATM   18  H           1     -23.843 -10.751   0.154  0.00  0.00     0.275 HD
HETATM   19  H           1     -23.925  -9.478  -0.979  0.00  0.00     0.275 HD
HETATM   20  H           1     -23.480  -9.154   0.637  0.00  0.00     0.275 HD
ENDBRANCH   5  17
ENDBRANCH   3   5
BRANCH   1  21
HETATM   21  C           1     -19.192 -11.972  -0.299  0.00  0.00     0.190 C 
BRANCH  21  22
HETATM   22  C           1     -17.766 -11.870   0.225  0.00  0.00     0.077 C 
BRANCH  22  23
HETATM   23  C           1     -16.805 -12.199  -0.876  0.00  0.00    -0.028 A 
HETATM   24  C           1     -16.009 -13.319  -0.950  0.00  0.00     0.096 A 
HETATM   25  N           1     -15.281 -13.239  -2.109  0.00  0.00    -0.365 N 
HETATM   26  C           1     -15.593 -12.083  -2.788  0.00  0.00     0.042 A 
HETATM   27  H           1     -14.587 -13.956  -2.432  0.00  0.00     0.165 HD
HETATM   28  C           1     -15.105 -11.588  -4.003  0.00  0.00     0.030 A 
HETATM   29  C           1     -16.552 -11.409  -2.032  0.00  0.00    -0.002 A 
HETATM   30  C           1     -15.613 -10.365  -4.455  0.00  0.00     0.002 A 
HETATM   31  C           1     -16.572  -9.671  -3.720  0.00  0.00     0.001 A 
HETATM   32  C           1     -17.050 -10.180  -2.507  0.00  0.00     0.014 A 
ENDBRANCH  22  23
ENDBRANCH  21  22
BRANCH  21  33
HETATM   33  C           1     -19.596 -13.423  -0.384  0.00  0.00     0.197 C 
HETATM   34  O           1     -19.474 -14.166   0.613  0.00  0.00    -0.646 OA
HETATM   35  O           1     -20.054 -13.883  -1.454  0.00  0.00    -0.646 OA
ENDBRANCH  21  33
ENDBRANCH   1  21
TORSDOF 8
ENDMDL
