MODEL 1
REMARK VINA RESULT:      -7.2      0.000      0.000
REMARK  12 active torsions:
REMARK  status: ('A' for Active; 'I' for Inactive)
REMARK    1  A    between atoms: C_2  and  C_4 
REMARK    2  A    between atoms: C_4  and  C_5 
REMARK    3  A    between atoms: C_4  and  N_11 
REMARK    4  A    between atoms: C_5  and  O_6 
REMARK    5  A    between atoms: O_6  and  P_7 
REMARK    6  A    between atoms: P_7  and  O_9 
REMARK       I    between atoms: N_11  and  C_12 
REMARK    7  A    between atoms: C_12  and  C_13 
REMARK    8  A    between atoms: C_13  and  C_14 
REMARK    9  A    between atoms: C_13  and  N_20 
REMARK   10  A    between atoms: C_14  and  O_15 
REMARK   11  A    between atoms: O_15  and  P_16 
REMARK   12  A    between atoms: P_16  and  O_17 
ROOT
HETATM    1  N           1     -31.235  -4.989 -16.422  0.00  0.00    -0.343 N 
HETATM    2  C           1     -32.117  -4.028 -16.841  0.00  0.00     0.251 C 
HETATM    3  O           1     -31.733  -3.118 -17.537  0.00  0.00    -0.271 OA
HETATM    4  H           1     -31.558  -5.751 -15.839  0.00  0.00     0.163 HD
ENDROOT
BRANCH   2   5
HETATM    5  C           1     -33.567  -4.105 -16.433  0.00  0.00     0.298 C 
BRANCH   5   6
HETATM    6  C           1     -34.271  -2.808 -16.809  0.00  0.00     0.224 C 
BRANCH   6   7
HETATM    7  O           1     -35.108  -2.408 -15.758  0.00  0.00    -0.287 OA
BRANCH   7   8
HETATM    8  P           1     -35.755  -0.934 -15.888  0.00  0.00     0.406 P 
HETATM    9  O           1     -34.732   0.083 -15.562  0.00  0.00    -0.624 OA
HETATM   10  O           1     -36.893  -0.811 -14.950  0.00  0.00    -0.624 OA
BRANCH   8  11
HETATM   11  O           1     -36.278  -0.707 -17.399  0.00  0.00    -0.300 OA
HETATM   12  H           1     -36.637   0.164 -17.405  0.00  0.00     0.223 HD
ENDBRANCH   8  11
ENDBRANCH   7   8
ENDBRANCH   6   7
ENDBRANCH   5   6
BRANCH   5  13
HETATM   13  N           1     -33.658  -4.312 -14.950  0.00  0.00    -0.064 N 
HETATM   14  H           1     -32.900  -4.962 -14.642  0.00  0.00     0.275 HD
HETATM   15  H           1     -33.548  -3.394 -14.463  0.00  0.00     0.275 HD
HETATM   16  H           1     -34.588  -4.724 -14.713  0.00  0.00     0.275 HD
ENDBRANCH   5  13
ENDBRANCH   2   5
BRANCH   1  17
HETATM   17  C           1     -29.842  -4.914 -16.814  0.00  0.00     0.210 C 
BRANCH  17  18
HETATM   18  C           1     -29.643  -5.669 -18.106  0.00  0.00     0.198 C 
HETATM   19  O           1     -28.922  -5.188 -19.007  0.00  0.00    -0.646 OA
HETATM   20  O           1     -30.201  -6.775 -18.276  0.00  0.00    -0.646 OA
ENDBRANCH  17  18
BRANCH  17  21
HETATM   21  C           1     -28.975  -5.533 -15.726  0.00  0.00     0.217 C 
BRANCH  21  22
HETATM   22  O           1     -27.648  -5.107 -15.885  0.00  0.00    -0.287 OA
BRANCH  22  23
HETATM   23  P           1     -26.556  -6.270 -16.140  0.00  0.00     0.406 P 
HETATM   24  O           1     -26.924  -7.472 -15.357  0.00  0.00    -0.624 OA
HETATM   25  O           1     -25.222  -5.795 -15.714  0.00  0.00    -0.624 OA
BRANCH  23  26
HETATM   26  O           1     -26.523  -6.642 -17.711  0.00  0.00    -0.300 OA
HETATM   27  H           1     -25.642  -6.453 -17.987  0.00  0.00     0.223 HD
ENDBRANCH  23  26
ENDBRANCH  22  23
ENDBRANCH  21  22
ENDBRANCH  17  21
ENDBRANCH   1  17
TORSDOF 12
ENDMDL
MODEL 2
REMARK VINA RESULT:      -6.7      4.878      6.769
REMARK  12 active torsions:
REMARK  status: ('A' for Active; 'I' for Inactive)
REMARK    1  A    between atoms: C_2  and  C_4 
REMARK    2  A    between atoms: C_4  and  C_5 
REMARK    3  A    between atoms: C_4  and  N_11 
REMARK    4  A    between atoms: C_5  and  O_6 
REMARK    5  A    between atoms: O_6  and  P_7 
REMARK    6  A    between atoms: P_7  and  O_9 
REMARK       I    between atoms: N_11  and  C_12 
REMARK    7  A    between atoms: C_12  and  C_13 
REMARK    8  A    between atoms: C_13  and  C_14 
REMARK    9  A    between atoms: C_13  and  N_20 
REMARK   10  A    between atoms: C_14  and  O_15 
REMARK   11  A    between atoms: O_15  and  P_16 
REMARK   12  A    between atoms: P_16  and  O_17 
ROOT
HETATM    1  N           1     -35.101  -2.115 -12.315  0.00  0.00    -0.343 N 
HETATM    2  C           1     -36.129  -1.459 -11.692  0.00  0.00     0.251 C 
HETATM    3  O           1     -36.818  -2.040 -10.887  0.00  0.00    -0.271 OA
HETATM    4  H           1     -34.524  -1.628 -12.988  0.00  0.00     0.163 HD
ENDROOT
BRANCH   2   5
HETATM    5  C           1     -36.402  -0.010 -12.011  0.00  0.00     0.298 C 
BRANCH   5   6
HETATM    6  C           1     -37.408   0.079 -13.151  0.00  0.00     0.224 C 
BRANCH   6   7
HETATM    7  O           1     -37.071  -0.851 -14.146  0.00  0.00    -0.287 OA
BRANCH   7   8
HETATM    8  P           1     -36.475  -0.238 -15.515  0.00  0.00     0.406 P 
HETATM    9  O           1     -36.926  -1.059 -16.660  0.00  0.00    -0.624 OA
HETATM   10  O           1     -34.996  -0.242 -15.454  0.00  0.00    -0.624 OA
BRANCH   8  11
HETATM   11  O           1     -36.999   1.279 -15.701  0.00  0.00    -0.300 OA
HETATM   12  H           1     -37.452   1.281 -16.526  0.00  0.00     0.223 HD
ENDBRANCH   8  11
ENDBRANCH   7   8
ENDBRANCH   6   7
ENDBRANCH   5   6
BRANCH   5  13
HETATM   13  N           1     -35.124   0.661 -12.419  0.00  0.00    -0.064 N 
HETATM   14  H           1     -34.315   0.170 -11.974  0.00  0.00     0.275 HD
HETATM   15  H           1     -35.026   0.621 -13.458  0.00  0.00     0.275 HD
HETATM   16  H           1     -35.140   1.658 -12.107  0.00  0.00     0.275 HD
ENDBRANCH   5  13
ENDBRANCH   2   5
BRANCH   1  17
HETATM   17  C           1     -34.839  -3.508 -12.007  0.00  0.00     0.210 C 
BRANCH  17  18
HETATM   18  C           1     -33.831  -3.593 -10.887  0.00  0.00     0.198 C 
HETATM   19  O           1     -33.751  -4.632 -10.196  0.00  0.00    -0.646 OA
HETATM   20  O           1     -33.076  -2.625 -10.650  0.00  0.00    -0.646 OA
ENDBRANCH  17  18
BRANCH  17  21
HETATM   21  C           1     -34.285  -4.204 -13.243  0.00  0.00     0.217 C 
BRANCH  21  22
HETATM   22  O           1     -34.244  -3.298 -14.313  0.00  0.00    -0.287 OA
BRANCH  22  23
HETATM   23  P           1     -34.086  -3.945 -15.784  0.00  0.00     0.406 P 
HETATM   24  O           1     -34.973  -5.125 -15.901  0.00  0.00    -0.624 OA
HETATM   25  O           1     -32.682  -4.362 -15.991  0.00  0.00    -0.624 OA
BRANCH  23  26
HETATM   26  O           1     -34.497  -2.851 -16.899  0.00  0.00    -0.300 OA
HETATM   27  H           1     -35.439  -2.845 -16.899  0.00  0.00     0.223 HD
ENDBRANCH  23  26
ENDBRANCH  22  23
ENDBRANCH  21  22
ENDBRANCH  17  21
ENDBRANCH   1  17
TORSDOF 12
ENDMDL
MODEL 3
REMARK VINA RESULT:      -6.6      6.180      9.355
REMARK  12 active torsions:
REMARK  status: ('A' for Active; 'I' for Inactive)
REMARK    1  A    between atoms: C_2  and  C_4 
REMARK    2  A    between atoms: C_4  and  C_5 
REMARK    3  A    between atoms: C_4  and  N_11 
REMARK    4  A    between atoms: C_5  and  O_6 
REMARK    5  A    between atoms: O_6  and  P_7 
REMARK    6  A    between atoms: P_7  and  O_9 
REMARK       I    between atoms: N_11  and  C_12 
REMARK    7  A    between atoms: C_12  and  C_13 
REMARK    8  A    between atoms: C_13  and  C_14 
REMARK    9  A    between atoms: C_13  and  N_20 
REMARK   10  A    between atoms: C_14  and  O_15 
REMARK   11  A    between atoms: O_15  and  P_16 
REMARK   12  A    between atoms: P_16  and  O_17 
ROOT
HETATM    1  N           1     -35.385  -1.930 -12.245  0.00  0.00    -0.343 N 
HETATM    2  C           1     -34.350  -2.606 -11.655  0.00  0.00     0.251 C 
HETATM    3  O           1     -33.581  -2.020 -10.930  0.00  0.00    -0.271 OA
HETATM    4  H           1     -36.029  -2.422 -12.852  0.00  0.00     0.163 HD
ENDROOT
BRANCH   2   5
HETATM    5  C           1     -34.169  -4.082 -11.911  0.00  0.00     0.298 C 
BRANCH   5   6
HETATM    6  C           1     -33.960  -4.805 -10.587  0.00  0.00     0.224 C 
BRANCH   6   7
HETATM    7  O           1     -33.451  -6.089 -10.831  0.00  0.00    -0.287 OA
BRANCH   7   8
HETATM    8  P           1     -34.445  -7.319 -10.506  0.00  0.00     0.406 P 
HETATM    9  O           1     -35.340  -6.947  -9.388  0.00  0.00    -0.624 OA
HETATM   10  O           1     -33.650  -8.509 -10.128  0.00  0.00    -0.624 OA
BRANCH   8  11
HETATM   11  O           1     -35.330  -7.658 -11.814  0.00  0.00    -0.300 OA
HETATM   12  H           1     -34.707  -7.923 -12.468  0.00  0.00     0.223 HD
ENDBRANCH   8  11
ENDBRANCH   7   8
ENDBRANCH   6   7
ENDBRANCH   5   6
BRANCH   5  13
HETATM   13  N           1     -32.974  -4.293 -12.791  0.00  0.00    -0.064 N 
HETATM   14  H           1     -32.130  -3.869 -12.341  0.00  0.00     0.275 HD
HETATM   15  H           1     -32.817  -5.318 -12.926  0.00  0.00     0.275 HD
HETATM   16  H           1     -33.140  -3.840 -13.718  0.00  0.00     0.275 HD
ENDBRANCH   5  13
ENDBRANCH   2   5
BRANCH   1  17
HETATM   17  C           1     -35.558  -0.512 -12.000  0.00  0.00     0.210 C 
BRANCH  17  18
HETATM   18  C           1     -36.696  -0.306 -11.030  0.00  0.00     0.198 C 
HETATM   19  O           1     -36.610   0.570 -10.142  0.00  0.00    -0.646 OA
HETATM   20  O           1     -37.725  -1.011 -11.114  0.00  0.00    -0.646 OA
ENDBRANCH  17  18
BRANCH  17  21
HETATM   21  C           1     -35.873   0.195 -13.311  0.00  0.00     0.217 C 
BRANCH  21  22
HETATM   22  O           1     -36.424  -0.723 -14.217  0.00  0.00    -0.287 OA
BRANCH  22  23
HETATM   23  P           1     -36.308  -0.333 -15.780  0.00  0.00     0.406 P 
HETATM   24  O           1     -37.437  -0.934 -16.524  0.00  0.00    -0.624 OA
HETATM   25  O           1     -35.031  -0.847 -16.322  0.00  0.00    -0.624 OA
BRANCH  23  26
HETATM   26  O           1     -36.354   1.274 -15.938  0.00  0.00    -0.300 OA
HETATM   27  H           1     -35.776   1.465 -16.657  0.00  0.00     0.223 HD
ENDBRANCH  23  26
ENDBRANCH  22  23
ENDBRANCH  21  22
ENDBRANCH  17  21
ENDBRANCH   1  17
TORSDOF 12
ENDMDL
MODEL 4
REMARK VINA RESULT:      -6.5      2.137      7.646
REMARK  12 active torsions:
REMARK  status: ('A' for Active; 'I' for Inactive)
REMARK    1  A    between atoms: C_2  and  C_4 
REMARK    2  A    between atoms: C_4  and  C_5 
REMARK    3  A    between atoms: C_4  and  N_11 
REMARK    4  A    between atoms: C_5  and  O_6 
REMARK    5  A    between atoms: O_6  and  P_7 
REMARK    6  A    between atoms: P_7  and  O_9 
REMARK       I    between atoms: N_11  and  C_12 
REMARK    7  A    between atoms: C_12  and  C_13 
REMARK    8  A    between atoms: C_13  and  C_14 
REMARK    9  A    between atoms: C_13  and  N_20 
REMARK   10  A    between atoms: C_14  and  O_15 
REMARK   11  A    between atoms: O_15  and  P_16 
REMARK   12  A    between atoms: P_16  and  O_17 
ROOT
HETATM    1  N           1     -31.433  -5.026 -16.201  0.00  0.00    -0.343 N 
HETATM    2  C           1     -30.691  -6.020 -16.782  0.00  0.00     0.251 C 
HETATM    3  O           1     -31.128  -6.623 -17.733  0.00  0.00    -0.271 OA
HETATM    4  H           1     -31.067  -4.520 -15.405  0.00  0.00     0.163 HD
ENDROOT
BRANCH   2   5
HETATM    5  C           1     -29.328  -6.361 -16.233  0.00  0.00     0.298 C 
BRANCH   5   6
HETATM    6  C           1     -28.326  -5.295 -16.658  0.00  0.00     0.224 C 
BRANCH   6   7
HETATM    7  O           1     -27.243  -5.291 -15.767  0.00  0.00    -0.287 OA
BRANCH   7   8
HETATM    8  P           1     -26.006  -6.255 -16.151  0.00  0.00     0.406 P 
HETATM    9  O           1     -25.961  -6.439 -17.619  0.00  0.00    -0.624 OA
HETATM   10  O           1     -26.182  -7.568 -15.492  0.00  0.00    -0.624 OA
BRANCH   8  11
HETATM   11  O           1     -24.624  -5.584 -15.651  0.00  0.00    -0.300 OA
HETATM   12  H           1     -24.772  -5.363 -14.748  0.00  0.00     0.223 HD
ENDBRANCH   8  11
ENDBRANCH   7   8
ENDBRANCH   6   7
ENDBRANCH   5   6
BRANCH   5  13
HETATM   13  N           1     -28.895  -7.695 -16.766  0.00  0.00    -0.064 N 
HETATM   14  H           1     -29.325  -8.456 -16.191  0.00  0.00     0.275 HD
HETATM   15  H           1     -29.206  -7.791 -17.758  0.00  0.00     0.275 HD
HETATM   16  H           1     -27.854  -7.768 -16.717  0.00  0.00     0.275 HD
ENDBRANCH   5  13
ENDBRANCH   2   5
BRANCH   1  17
HETATM   17  C           1     -32.743  -4.698 -16.729  0.00  0.00     0.210 C 
BRANCH  17  18
HETATM   18  C           1     -32.691  -3.345 -17.395  0.00  0.00     0.198 C 
HETATM   19  O           1     -31.652  -2.977 -17.985  0.00  0.00    -0.646 OA
HETATM   20  O           1     -33.688  -2.590 -17.357  0.00  0.00    -0.646 OA
ENDBRANCH  17  18
BRANCH  17  21
HETATM   21  C           1     -33.755  -4.666 -15.591  0.00  0.00     0.217 C 
BRANCH  21  22
HETATM   22  O           1     -33.102  -4.340 -14.393  0.00  0.00    -0.287 OA
BRANCH  22  23
HETATM   23  P           1     -34.050  -3.852 -13.180  0.00  0.00     0.406 P 
HETATM   24  O           1     -35.012  -4.925 -12.844  0.00  0.00    -0.624 OA
HETATM   25  O           1     -34.788  -2.638 -13.590  0.00  0.00    -0.624 OA
BRANCH  23  26
HETATM   26  O           1     -33.140  -3.521 -11.887  0.00  0.00    -0.300 OA
HETATM   27  H           1     -33.362  -2.636 -11.653  0.00  0.00     0.223 HD
ENDBRANCH  23  26
ENDBRANCH  22  23
ENDBRANCH  21  22
ENDBRANCH  17  21
ENDBRANCH   1  17
TORSDOF 12
ENDMDL
MODEL 5
REMARK VINA RESULT:      -6.5      5.548      6.985
REMARK  12 active torsions:
REMARK  status: ('A' for Active; 'I' for Inactive)
REMARK    1  A    between atoms: C_2  and  C_4 
REMARK    2  A    between atoms: C_4  and  C_5 
REMARK    3  A    between atoms: C_4  and  N_11 
REMARK    4  A    between atoms: C_5  and  O_6 
REMARK    5  A    between atoms: O_6  and  P_7 
REMARK    6  A    between atoms: P_7  and  O_9 
REMARK       I    between atoms: N_11  and  C_12 
REMARK    7  A    between atoms: C_12  and  C_13 
REMARK    8  A    between atoms: C_13  and  C_14 
REMARK    9  A    between atoms: C_13  and  N_20 
REMARK   10  A    between atoms: C_14  and  O_15 
REMARK   11  A    between atoms: O_15  and  P_16 
REMARK   12  A    between atoms: P_16  and  O_17 
ROOT
HETATM    1  N           1     -35.430  -2.480 -11.614  0.00  0.00    -0.343 N 
HETATM    2  C           1     -35.656  -1.131 -11.666  0.00  0.00     0.251 C 
HETATM    3  O           1     -34.725  -0.363 -11.728  0.00  0.00    -0.271 OA
HETATM    4  H           1     -36.211  -3.122 -11.562  0.00  0.00     0.163 HD
ENDROOT
BRANCH   2   5
HETATM    5  C           1     -37.069  -0.601 -11.644  0.00  0.00     0.298 C 
BRANCH   5   6
HETATM    6  C           1     -37.420  -0.033 -13.012  0.00  0.00     0.224 C 
BRANCH   6   7
HETATM    7  O           1     -36.937  -0.889 -14.012  0.00  0.00    -0.287 OA
BRANCH   7   8
HETATM    8  P           1     -36.349  -0.174 -15.335  0.00  0.00     0.406 P 
HETATM    9  O           1     -37.332  -0.288 -16.435  0.00  0.00    -0.624 OA
HETATM   10  O           1     -35.085  -0.833 -15.731  0.00  0.00    -0.624 OA
BRANCH   8  11
HETATM   11  O           1     -36.067   1.386 -15.025  0.00  0.00    -0.300 OA
HETATM   12  H           1     -36.420   1.531 -14.164  0.00  0.00     0.223 HD
ENDBRANCH   8  11
ENDBRANCH   7   8
ENDBRANCH   6   7
ENDBRANCH   5   6
BRANCH   5  13
HETATM   13  N           1     -37.181   0.479 -10.610  0.00  0.00    -0.064 N 
HETATM   14  H           1     -37.631   0.092  -9.748  0.00  0.00     0.275 HD
HETATM   15  H           1     -36.228   0.835 -10.373  0.00  0.00     0.275 HD
HETATM   16  H           1     -37.763   1.261 -10.985  0.00  0.00     0.275 HD
ENDBRANCH   5  13
ENDBRANCH   2   5
BRANCH   1  17
HETATM   17  C           1     -34.072  -2.988 -11.635  0.00  0.00     0.210 C 
BRANCH  17  18
HETATM   18  C           1     -33.788  -3.603 -12.984  0.00  0.00     0.198 C 
HETATM   19  O           1     -32.737  -4.256 -13.164  0.00  0.00    -0.646 OA
HETATM   20  O           1     -34.603  -3.459 -13.921  0.00  0.00    -0.646 OA
ENDBRANCH  17  18
BRANCH  17  21
HETATM   21  C           1     -33.910  -4.045 -10.550  0.00  0.00     0.217 C 
BRANCH  21  22
HETATM   22  O           1     -34.972  -4.958 -10.623  0.00  0.00    -0.287 OA
BRANCH  22  23
HETATM   23  P           1     -34.561  -6.511 -10.790  0.00  0.00     0.406 P 
HETATM   24  O           1     -35.094  -7.288  -9.648  0.00  0.00    -0.624 OA
HETATM   25  O           1     -33.087  -6.630 -10.821  0.00  0.00    -0.624 OA
BRANCH  23  26
HETATM   26  O           1     -35.179  -7.086 -12.166  0.00  0.00    -0.300 OA
HETATM   27  H           1     -34.910  -6.472 -12.830  0.00  0.00     0.223 HD
ENDBRANCH  23  26
ENDBRANCH  22  23
ENDBRANCH  21  22
ENDBRANCH  17  21
ENDBRANCH   1  17
TORSDOF 12
ENDMDL
MODEL 6
REMARK VINA RESULT:      -6.2     12.826     16.259
REMARK  12 active torsions:
REMARK  status: ('A' for Active; 'I' for Inactive)
REMARK    1  A    between atoms: C_2  and  C_4 
REMARK    2  A    between atoms: C_4  and  C_5 
REMARK    3  A    between atoms: C_4  and  N_11 
REMARK    4  A    between atoms: C_5  and  O_6 
REMARK    5  A    between atoms: O_6  and  P_7 
REMARK    6  A    between atoms: P_7  and  O_9 
REMARK       I    between atoms: N_11  and  C_12 
REMARK    7  A    between atoms: C_12  and  C_13 
REMARK    8  A    between atoms: C_13  and  C_14 
REMARK    9  A    between atoms: C_13  and  N_20 
REMARK   10  A    between atoms: C_14  and  O_15 
REMARK   11  A    between atoms: O_15  and  P_16 
REMARK   12  A    between atoms: P_16  and  O_17 
ROOT
HETATM    1  N           1     -21.332  -5.430  -5.283  0.00  0.00    -0.343 N 
HETATM    2  C           1     -21.579  -6.535  -4.513  0.00  0.00     0.251 C 
HETATM    3  O           1     -21.978  -7.553  -5.027  0.00  0.00    -0.271 OA
HETATM    4  H           1     -20.998  -4.577  -4.852  0.00  0.00     0.163 HD
ENDROOT
BRANCH   2   5
HETATM    5  C           1     -21.355  -6.481  -3.021  0.00  0.00     0.298 C 
BRANCH   5   6
HETATM    6  C           1     -21.249  -7.897  -2.471  0.00  0.00     0.224 C 
BRANCH   6   7
HETATM    7  O           1     -20.854  -7.848  -1.127  0.00  0.00    -0.287 OA
BRANCH   7   8
HETATM    8  P           1     -21.914  -8.428  -0.055  0.00  0.00     0.406 P 
HETATM    9  O           1     -21.276  -8.506   1.277  0.00  0.00    -0.624 OA
HETATM   10  O           1     -22.350  -9.779  -0.475  0.00  0.00    -0.624 OA
BRANCH   8  11
HETATM   11  O           1     -23.197  -7.450   0.019  0.00  0.00    -0.300 OA
HETATM   12  H           1     -23.061  -6.816  -0.664  0.00  0.00     0.223 HD
ENDBRANCH   8  11
ENDBRANCH   7   8
ENDBRANCH   6   7
ENDBRANCH   5   6
BRANCH   5  13
HETATM   13  N           1     -22.506  -5.776  -2.369  0.00  0.00    -0.064 N 
HETATM   14  H           1     -23.399  -6.060  -2.834  0.00  0.00     0.275 HD
HETATM   15  H           1     -22.544  -6.034  -1.357  0.00  0.00     0.275 HD
HETATM   16  H           1     -22.379  -4.743  -2.462  0.00  0.00     0.275 HD
ENDBRANCH   5  13
ENDBRANCH   2   5
BRANCH   1  17
HETATM   17  C           1     -21.548  -5.483  -6.715  0.00  0.00     0.210 C 
BRANCH  17  18
HETATM   18  C           1     -20.225  -5.679  -7.415  0.00  0.00     0.198 C 
HETATM   19  O           1     -19.530  -6.688  -7.167  0.00  0.00    -0.646 OA
HETATM   20  O           1     -19.825  -4.833  -8.244  0.00  0.00    -0.646 OA
ENDBRANCH  17  18
BRANCH  17  21
HETATM   21  C           1     -22.180  -4.178  -7.181  0.00  0.00     0.217 C 
BRANCH  21  22
HETATM   22  O           1     -23.457  -4.435  -7.702  0.00  0.00    -0.287 OA
BRANCH  22  23
HETATM   23  P           1     -23.710  -3.960  -9.224  0.00  0.00     0.406 P 
HETATM   24  O           1     -24.087  -5.129 -10.050  0.00  0.00    -0.624 OA
HETATM   25  O           1     -22.474  -3.353  -9.763  0.00  0.00    -0.624 OA
BRANCH  23  26
HETATM   26  O           1     -24.904  -2.872  -9.256  0.00  0.00    -0.300 OA
HETATM   27  H           1     -25.187  -2.795  -8.360  0.00  0.00     0.223 HD
ENDBRANCH  23  26
ENDBRANCH  22  23
ENDBRANCH  21  22
ENDBRANCH  17  21
ENDBRANCH   1  17
TORSDOF 12
ENDMDL
MODEL 7
REMARK VINA RESULT:      -6.1     19.966     22.605
REMARK  12 active torsions:
REMARK  status: ('A' for Active; 'I' for Inactive)
REMARK    1  A    between atoms: C_2  and  C_4 
REMARK    2  A    between atoms: C_4  and  C_5 
REMARK    3  A    between atoms: C_4  and  N_11 
REMARK    4  A    between atoms: C_5  and  O_6 
REMARK    5  A    between atoms: O_6  and  P_7 
REMARK    6  A    between atoms: P_7  and  O_9 
REMARK       I    between atoms: N_11  and  C_12 
REMARK    7  A    between atoms: C_12  and  C_13 
REMARK    8  A    between atoms: C_13  and  C_14 
REMARK    9  A    between atoms: C_13  and  N_20 
REMARK   10  A    between atoms: C_14  and  O_15 
REMARK   11  A    between atoms: O_15  and  P_16 
REMARK   12  A    between atoms: P_16  and  O_17 
ROOT
HETATM    1  N           1     -11.454   5.400 -21.445  0.00  0.00    -0.343 N 
HETATM    2  C           1     -11.781   4.425 -22.350  0.00  0.00     0.251 C 
HETATM    3  O           1     -10.944   3.633 -22.713  0.00  0.00    -0.271 OA
HETATM    4  H           1     -12.156   6.064 -21.142  0.00  0.00     0.163 HD
ENDROOT
BRANCH   2   5
HETATM    5  C           1     -13.185   4.342 -22.896  0.00  0.00     0.298 C 
BRANCH   5   6
HETATM    6  C           1     -13.990   5.542 -22.414  0.00  0.00     0.224 C 
BRANCH   6   7
HETATM    7  O           1     -14.929   5.122 -21.460  0.00  0.00    -0.287 OA
BRANCH   7   8
HETATM    8  P           1     -14.506   5.322 -19.914  0.00  0.00     0.406 P 
HETATM    9  O           1     -13.683   6.544 -19.783  0.00  0.00    -0.624 OA
HETATM   10  O           1     -13.727   4.148 -19.461  0.00  0.00    -0.624 OA
BRANCH   8  11
HETATM   11  O           1     -15.834   5.468 -19.006  0.00  0.00    -0.300 OA
HETATM   12  H           1     -16.552   5.327 -19.599  0.00  0.00     0.223 HD
ENDBRANCH   8  11
ENDBRANCH   7   8
ENDBRANCH   6   7
ENDBRANCH   5   6
BRANCH   5  13
HETATM   13  N           1     -13.833   3.078 -22.414  0.00  0.00    -0.064 N 
HETATM   14  H           1     -13.299   2.254 -22.773  0.00  0.00     0.275 HD
HETATM   15  H           1     -13.835   3.063 -21.370  0.00  0.00     0.275 HD
HETATM   16  H           1     -14.816   3.036 -22.766  0.00  0.00     0.275 HD
ENDBRANCH   5  13
ENDBRANCH   2   5
BRANCH   1  17
HETATM   17  C           1     -10.105   5.480 -20.922  0.00  0.00     0.210 C 
BRANCH  17  18
HETATM   18  C           1     -10.083   4.950 -19.509  0.00  0.00     0.198 C 
HETATM   19  O           1     -10.318   3.742 -19.291  0.00  0.00    -0.646 OA
HETATM   20  O           1      -9.828   5.719 -18.556  0.00  0.00    -0.646 OA
ENDBRANCH  17  18
BRANCH  17  21
HETATM   21  C           1      -9.644   6.931 -20.927  0.00  0.00     0.217 C 
BRANCH  21  22
HETATM   22  O           1     -10.761   7.778 -20.864  0.00  0.00    -0.287 OA
BRANCH  22  23
HETATM   23  P           1     -10.631   9.049 -19.877  0.00  0.00     0.406 P 
HETATM   24  O           1     -11.898   9.814 -19.889  0.00  0.00    -0.624 OA
HETATM   25  O           1      -9.526   9.919 -20.335  0.00  0.00    -0.624 OA
BRANCH  23  26
HETATM   26  O           1     -10.328   8.535 -18.376  0.00  0.00    -0.300 OA
HETATM   27  H           1     -11.004   7.904 -18.193  0.00  0.00     0.223 HD
ENDBRANCH  23  26
ENDBRANCH  22  23
ENDBRANCH  21  22
ENDBRANCH  17  21
ENDBRANCH   1  17
TORSDOF 12
ENDMDL
MODEL 8
REMARK VINA RESULT:      -6.1     11.466     15.742
REMARK  12 active torsions:
REMARK  status: ('A' for Active; 'I' for Inactive)
REMARK    1  A    between atoms: C_2  and  C_4 
REMARK    2  A    between atoms: C_4  and  C_5 
REMARK    3  A    between atoms: C_4  and  N_11 
REMARK    4  A    between atoms: C_5  and  O_6 
REMARK    5  A    between atoms: O_6  and  P_7 
REMARK    6  A    between atoms: P_7  and  O_9 
REMARK       I    between atoms: N_11  and  C_12 
REMARK    7  A    between atoms: C_12  and  C_13 
REMARK    8  A    between atoms: C_13  and  C_14 
REMARK    9  A    between atoms: C_13  and  N_20 
REMARK   10  A    between atoms: C_14  and  O_15 
REMARK   11  A    between atoms: O_15  and  P_16 
REMARK   12  A    between atoms: P_16  and  O_17 
ROOT
HETATM    1  N           1     -21.402  -5.205  -6.400  0.00  0.00    -0.343 N 
HETATM    2  C           1     -21.244  -6.480  -5.928  0.00  0.00     0.251 C 
HETATM    3  O           1     -21.229  -7.413  -6.696  0.00  0.00    -0.271 OA
HETATM    4  H           1     -21.415  -4.424  -5.756  0.00  0.00     0.163 HD
ENDROOT
BRANCH   2   5
HETATM    5  C           1     -21.090  -6.722  -4.446  0.00  0.00     0.298 C 
BRANCH   5   6
HETATM    6  C           1     -21.050  -8.220  -4.177  0.00  0.00     0.224 C 
BRANCH   6   7
HETATM    7  O           1     -19.853  -8.546  -3.522  0.00  0.00    -0.287 OA
BRANCH   7   8
HETATM    8  P           1     -18.826  -9.481  -4.345  0.00  0.00     0.406 P 
HETATM    9  O           1     -19.261 -10.892  -4.252  0.00  0.00    -0.624 OA
HETATM   10  O           1     -17.467  -9.342  -3.775  0.00  0.00    -0.624 OA
BRANCH   8  11
HETATM   11  O           1     -18.807  -9.026  -5.895  0.00  0.00    -0.300 OA
HETATM   12  H           1     -18.462  -9.766  -6.363  0.00  0.00     0.223 HD
ENDBRANCH   8  11
ENDBRANCH   7   8
ENDBRANCH   6   7
ENDBRANCH   5   6
BRANCH   5  13
HETATM   13  N           1     -22.250  -6.113  -3.717  0.00  0.00    -0.064 N 
HETATM   14  H           1     -22.100  -6.203  -2.686  0.00  0.00     0.275 HD
HETATM   15  H           1     -22.329  -5.102  -3.970  0.00  0.00     0.275 HD
HETATM   16  H           1     -23.129  -6.610  -3.986  0.00  0.00     0.275 HD
ENDBRANCH   5  13
ENDBRANCH   2   5
BRANCH   1  17
HETATM   17  C           1     -21.551  -4.974  -7.824  0.00  0.00     0.210 C 
BRANCH  17  18
HETATM   18  C           1     -20.198  -4.687  -8.429  0.00  0.00     0.198 C 
HETATM   19  O           1     -20.037  -4.769  -9.666  0.00  0.00    -0.646 OA
HETATM   20  O           1     -19.239  -4.368  -7.694  0.00  0.00    -0.646 OA
ENDBRANCH  17  18
BRANCH  17  21
HETATM   21  C           1     -22.472  -3.782  -8.051  0.00  0.00     0.217 C 
BRANCH  21  22
HETATM   22  O           1     -23.656  -4.215  -8.665  0.00  0.00    -0.287 OA
BRANCH  22  23
HETATM   23  P           1     -23.747  -3.995 -10.262  0.00  0.00     0.406 P 
HETATM   24  O           1     -24.969  -3.224 -10.585  0.00  0.00    -0.624 OA
HETATM   25  O           1     -23.801  -5.309 -10.939  0.00  0.00    -0.624 OA
BRANCH  23  26
HETATM   26  O           1     -22.448  -3.179 -10.767  0.00  0.00    -0.300 OA
HETATM   27  H           1     -22.163  -2.685 -10.016  0.00  0.00     0.223 HD
ENDBRANCH  23  26
ENDBRANCH  22  23
ENDBRANCH  21  22
ENDBRANCH  17  21
ENDBRANCH   1  17
TORSDOF 12
ENDMDL
MODEL 9
REMARK VINA RESULT:      -6.0     11.771     15.574
REMARK  12 active torsions:
REMARK  status: ('A' for Active; 'I' for Inactive)
REMARK    1  A    between atoms: C_2  and  C_4 
REMARK    2  A    between atoms: C_4  and  C_5 
REMARK    3  A    between atoms: C_4  and  N_11 
REMARK    4  A    between atoms: C_5  and  O_6 
REMARK    5  A    between atoms: O_6  and  P_7 
REMARK    6  A    between atoms: P_7  and  O_9 
REMARK       I    between atoms: N_11  and  C_12 
REMARK    7  A    between atoms: C_12  and  C_13 
REMARK    8  A    between atoms: C_13  and  C_14 
REMARK    9  A    between atoms: C_13  and  N_20 
REMARK   10  A    between atoms: C_14  and  O_15 
REMARK   11  A    between atoms: O_15  and  P_16 
REMARK   12  A    between atoms: P_16  and  O_17 
ROOT
HETATM    1  N           1     -21.371  -5.094  -6.461  0.00  0.00    -0.343 N 
HETATM    2  C           1     -21.205  -6.339  -5.915  0.00  0.00     0.251 C 
HETATM    3  O           1     -21.210  -7.316  -6.626  0.00  0.00    -0.271 OA
HETATM    4  H           1     -21.366  -4.275  -5.865  0.00  0.00     0.163 HD
ENDROOT
BRANCH   2   5
HETATM    5  C           1     -21.016  -6.490  -4.426  0.00  0.00     0.298 C 
BRANCH   5   6
HETATM    6  C           1     -20.652  -7.933  -4.104  0.00  0.00     0.224 C 
BRANCH   6   7
HETATM    7  O           1     -20.329  -8.042  -2.743  0.00  0.00    -0.287 OA
BRANCH   7   8
HETATM    8  P           1     -21.306  -8.972  -1.855  0.00  0.00     0.406 P 
HETATM    9  O           1     -22.043  -9.899  -2.742  0.00  0.00    -0.624 OA
HETATM   10  O           1     -22.267  -8.118  -1.122  0.00  0.00    -0.624 OA
BRANCH   8  11
HETATM   11  O           1     -20.429  -9.821  -0.798  0.00  0.00    -0.300 OA
HETATM   12  H           1     -19.998 -10.481  -1.313  0.00  0.00     0.223 HD
ENDBRANCH   8  11
ENDBRANCH   7   8
ENDBRANCH   6   7
ENDBRANCH   5   6
BRANCH   5  13
HETATM   13  N           1     -22.289  -6.127  -3.722  0.00  0.00    -0.064 N 
HETATM   14  H           1     -22.432  -5.092  -3.772  0.00  0.00     0.275 HD
HETATM   15  H           1     -23.092  -6.611  -4.182  0.00  0.00     0.275 HD
HETATM   16  H           1     -22.230  -6.421  -2.721  0.00  0.00     0.275 HD
ENDBRANCH   5  13
ENDBRANCH   2   5
BRANCH   1  17
HETATM   17  C           1     -21.552  -4.949  -7.892  0.00  0.00     0.210 C 
BRANCH  17  18
HETATM   18  C           1     -20.229  -4.610  -8.534  0.00  0.00     0.198 C 
HETATM   19  O           1     -20.114  -4.631  -9.778  0.00  0.00    -0.646 OA
HETATM   20  O           1     -19.247  -4.309  -7.820  0.00  0.00    -0.646 OA
ENDBRANCH  17  18
BRANCH  17  21
HETATM   21  C           1     -22.550  -3.831  -8.166  0.00  0.00     0.217 C 
BRANCH  21  22
HETATM   22  O           1     -23.664  -4.352  -8.840  0.00  0.00    -0.287 OA
BRANCH  22  23
HETATM   23  P           1     -23.769  -4.000 -10.412  0.00  0.00     0.406 P 
HETATM   24  O           1     -25.003  -3.222 -10.662  0.00  0.00    -0.624 OA
HETATM   25  O           1     -23.811  -5.254 -11.197  0.00  0.00    -0.624 OA
BRANCH  23  26
HETATM   26  O           1     -22.485  -3.127 -10.855  0.00  0.00    -0.300 OA
HETATM   27  H           1     -22.843  -2.346 -11.242  0.00  0.00     0.223 HD
ENDBRANCH  23  26
ENDBRANCH  22  23
ENDBRANCH  21  22
ENDBRANCH  17  21
ENDBRANCH   1  17
TORSDOF 12
ENDMDL
