MODEL 1
REMARK VINA RESULT:      -7.8      0.000      0.000
REMARK  12 active torsions:
REMARK  status: ('A' for Active; 'I' for Inactive)
REMARK    1  A    between atoms: C_2  and  C_4 
REMARK    2  A    between atoms: C_4  and  C_5 
REMARK    3  A    between atoms: C_5  and  C_6 
REMARK    4  A    between atoms: C_6  and  C_7 
REMARK    5  A    between atoms: C_6  and  N_10 
REMARK       I    between atoms: N_10  and  C_11 
REMARK    6  A    between atoms: C_11  and  C_12 
REMARK    7  A    between atoms: C_12  and  C_13 
REMARK    8  A    between atoms: C_12  and  N_25 
REMARK    9  A    between atoms: C_13  and  C_14 
REMARK   10  A    between atoms: C_17  and  O_18 
REMARK   11  A    between atoms: O_18  and  P_19 
REMARK   12  A    between atoms: P_19  and  O_20 
ROOT
HETATM    1  C           1     -33.743  -4.843 -15.443  0.00  0.00     0.278 C 
ENDROOT
BRANCH   1   2
HETATM    2  C           1     -34.197  -3.947 -14.317  0.00  0.00     0.249 C 
HETATM    3  N           1     -34.149  -4.396 -13.024  0.00  0.00    -0.345 N 
HETATM    4  H           1     -33.809  -5.327 -12.823  0.00  0.00     0.163 HD
HETATM    5  O           1     -34.603  -2.835 -14.556  0.00  0.00    -0.271 OA
BRANCH   3   6
HETATM    6  C           1     -34.586  -3.534 -11.942  0.00  0.00     0.186 C 
BRANCH   6   7
HETATM    7  C           1     -35.326  -4.361 -10.899  0.00  0.00     0.046 C 
BRANCH   7   8
HETATM    8  C           1     -34.352  -5.318 -10.225  0.00  0.00     0.116 C 
BRANCH   8   9
HETATM    9  C           1     -34.742  -6.741 -10.543  0.00  0.00     0.172 C 
HETATM   10  O           1     -34.751  -7.603  -9.639  0.00  0.00    -0.648 OA
HETATM   11  O           1     -35.058  -7.056 -11.711  0.00  0.00    -0.648 OA
ENDBRANCH   8   9
ENDBRANCH   7   8
ENDBRANCH   6   7
BRANCH   6  12
HETATM   12  C           1     -33.385  -2.880 -11.305  0.00  0.00     0.196 C 
HETATM   13  O           1     -33.530  -1.866 -10.590  0.00  0.00    -0.646 OA
HETATM   14  O           1     -32.243  -3.354 -11.493  0.00  0.00    -0.646 OA
ENDBRANCH   6  12
ENDBRANCH   3   6
ENDBRANCH   1   2
BRANCH   1  15
HETATM   15  C           1     -33.225  -3.991 -16.593  0.00  0.00     0.081 C 
BRANCH  15  16
HETATM   16  C           1     -31.896  -4.514 -17.044  0.00  0.00    -0.056 A 
HETATM   17  C           1     -30.948  -3.640 -17.576  0.00  0.00     0.010 A 
HETATM   18  C           1     -29.710  -4.127 -17.996  0.00  0.00     0.038 A 
HETATM   19  C           1     -29.421  -5.487 -17.884  0.00  0.00     0.081 A 
HETATM   20  C           1     -30.369  -6.360 -17.353  0.00  0.00     0.038 A 
HETATM   21  C           1     -31.607  -5.874 -16.933  0.00  0.00     0.010 A 
BRANCH  19  22
HETATM   22  O           1     -28.218  -5.959 -18.294  0.00  0.00    -0.247 OA
BRANCH  22  23
HETATM   23  P           1     -27.039  -6.082 -17.197  0.00  0.00     0.411 P 
HETATM   24  O           1     -25.759  -6.374 -17.881  0.00  0.00    -0.624 OA
HETATM   25  O           1     -26.923  -4.808 -16.453  0.00  0.00    -0.624 OA
BRANCH  23  26
HETATM   26  O           1     -27.383  -7.278 -16.168  0.00  0.00    -0.300 OA
HETATM   27  H           1     -26.565  -7.724 -16.031  0.00  0.00     0.223 HD
ENDBRANCH  23  26
ENDBRANCH  22  23
ENDBRANCH  19  22
ENDBRANCH  15  16
ENDBRANCH   1  15
BRANCH   1  28
HETATM   28  N           1     -34.900  -5.673 -15.917  0.00  0.00    -0.066 N 
HETATM   29  H           1     -34.588  -6.664 -16.043  0.00  0.00     0.275 HD
HETATM   30  H           1     -35.667  -5.637 -15.210  0.00  0.00     0.275 HD
HETATM   31  H           1     -35.245  -5.299 -16.830  0.00  0.00     0.275 HD
ENDBRANCH   1  28
TORSDOF 12
ENDMDL
MODEL 2
REMARK VINA RESULT:      -7.5     13.388     14.714
REMARK  12 active torsions:
REMARK  status: ('A' for Active; 'I' for Inactive)
REMARK    1  A    between atoms: C_2  and  C_4 
REMARK    2  A    between atoms: C_4  and  C_5 
REMARK    3  A    between atoms: C_5  and  C_6 
REMARK    4  A    between atoms: C_6  and  C_7 
REMARK    5  A    between atoms: C_6  and  N_10 
REMARK       I    between atoms: N_10  and  C_11 
REMARK    6  A    between atoms: C_11  and  C_12 
REMARK    7  A    between atoms: C_12  and  C_13 
REMARK    8  A    between atoms: C_12  and  N_25 
REMARK    9  A    between atoms: C_13  and  C_14 
REMARK   10  A    between atoms: C_17  and  O_18 
REMARK   11  A    between atoms: O_18  and  P_19 
REMARK   12  A    between atoms: P_19  and  O_20 
ROOT
HETATM    1  C           1     -21.416  -6.872  -4.620  0.00  0.00     0.278 C 
ENDROOT
BRANCH   1   2
HETATM    2  C           1     -21.121  -8.229  -4.029  0.00  0.00     0.249 C 
HETATM    3  N           1     -21.746  -8.623  -2.875  0.00  0.00    -0.345 N 
HETATM    4  H           1     -22.405  -8.005  -2.420  0.00  0.00     0.163 HD
HETATM    5  O           1     -20.335  -8.967  -4.572  0.00  0.00    -0.271 OA
BRANCH   3   6
HETATM    6  C           1     -21.463  -9.927  -2.307  0.00  0.00     0.186 C 
BRANCH   6   7
HETATM    7  C           1     -21.393  -9.818  -0.790  0.00  0.00     0.046 C 
BRANCH   7   8
HETATM    8  C           1     -21.148  -8.367  -0.396  0.00  0.00     0.116 C 
BRANCH   8   9
HETATM    9  C           1     -22.470  -7.663  -0.212  0.00  0.00     0.172 C 
HETATM   10  O           1     -23.296  -8.093   0.621  0.00  0.00    -0.648 OA
HETATM   11  O           1     -22.738  -6.650  -0.893  0.00  0.00    -0.648 OA
ENDBRANCH   8   9
ENDBRANCH   7   8
ENDBRANCH   6   7
BRANCH   6  12
HETATM   12  C           1     -22.558 -10.890  -2.692  0.00  0.00     0.196 C 
HETATM   13  O           1     -23.494 -11.123  -1.897  0.00  0.00    -0.646 OA
HETATM   14  O           1     -22.530 -11.457  -3.806  0.00  0.00    -0.646 OA
ENDBRANCH   6  12
ENDBRANCH   3   6
ENDBRANCH   1   2
BRANCH   1  15
HETATM   15  C           1     -20.338  -6.514  -5.632  0.00  0.00     0.081 C 
BRANCH  15  16
HETATM   16  C           1     -20.936  -5.691  -6.731  0.00  0.00    -0.056 A 
HETATM   17  C           1     -20.237  -5.508  -7.924  0.00  0.00     0.010 A 
HETATM   18  C           1     -20.794  -4.741  -8.947  0.00  0.00     0.038 A 
HETATM   19  C           1     -22.049  -4.157  -8.777  0.00  0.00     0.081 A 
HETATM   20  C           1     -22.747  -4.340  -7.584  0.00  0.00     0.038 A 
HETATM   21  C           1     -22.191  -5.106  -6.561  0.00  0.00     0.010 A 
BRANCH  19  22
HETATM   22  O           1     -22.589  -3.411  -9.772  0.00  0.00    -0.247 OA
BRANCH  22  23
HETATM   23  P           1     -23.597  -4.139 -10.803  0.00  0.00     0.411 P 
HETATM   24  O           1     -23.994  -5.456 -10.257  0.00  0.00    -0.624 OA
HETATM   25  O           1     -24.800  -3.298 -10.992  0.00  0.00    -0.624 OA
BRANCH  23  26
HETATM   26  O           1     -22.856  -4.347 -12.223  0.00  0.00    -0.300 OA
HETATM   27  H           1     -22.150  -3.723 -12.222  0.00  0.00     0.223 HD
ENDBRANCH  23  26
ENDBRANCH  22  23
ENDBRANCH  19  22
ENDBRANCH  15  16
ENDBRANCH   1  15
BRANCH   1  28
HETATM   28  N           1     -21.436  -5.845  -3.526  0.00  0.00    -0.066 N 
HETATM   29  H           1     -20.497  -5.809  -3.066  0.00  0.00     0.275 HD
HETATM   30  H           1     -21.660  -4.909  -3.931  0.00  0.00     0.275 HD
HETATM   31  H           1     -22.161  -6.104  -2.819  0.00  0.00     0.275 HD
ENDBRANCH   1  28
TORSDOF 12
ENDMDL
MODEL 3
REMARK VINA RESULT:      -7.4     13.225     14.606
REMARK  12 active torsions:
REMARK  status: ('A' for Active; 'I' for Inactive)
REMARK    1  A    between atoms: C_2  and  C_4 
REMARK    2  A    between atoms: C_4  and  C_5 
REMARK    3  A    between atoms: C_5  and  C_6 
REMARK    4  A    between atoms: C_6  and  C_7 
REMARK    5  A    between atoms: C_6  and  N_10 
REMARK       I    between atoms: N_10  and  C_11 
REMARK    6  A    between atoms: C_11  and  C_12 
REMARK    7  A    between atoms: C_12  and  C_13 
REMARK    8  A    between atoms: C_12  and  N_25 
REMARK    9  A    between atoms: C_13  and  C_14 
REMARK   10  A    between atoms: C_17  and  O_18 
REMARK   11  A    between atoms: O_18  and  P_19 
REMARK   12  A    between atoms: P_19  and  O_20 
ROOT
HETATM    1  C           1     -21.469  -6.465  -4.950  0.00  0.00     0.278 C 
ENDROOT
BRANCH   1   2
HETATM    2  C           1     -20.773  -7.802  -4.876  0.00  0.00     0.249 C 
HETATM    3  N           1     -21.424  -8.883  -4.342  0.00  0.00    -0.345 N 
HETATM    4  H           1     -22.370  -8.785  -3.999  0.00  0.00     0.163 HD
HETATM    5  O           1     -19.644  -7.919  -5.287  0.00  0.00    -0.271 OA
BRANCH   3   6
HETATM    6  C           1     -20.754 -10.168  -4.271  0.00  0.00     0.186 C 
BRANCH   6   7
HETATM    7  C           1     -20.942 -10.763  -2.883  0.00  0.00     0.046 C 
BRANCH   7   8
HETATM    8  C           1     -21.903  -9.894  -2.082  0.00  0.00     0.116 C 
BRANCH   8   9
HETATM    9  C           1     -21.130  -9.091  -1.065  0.00  0.00     0.172 C 
HETATM   10  O           1     -20.912  -9.563   0.070  0.00  0.00    -0.648 OA
HETATM   11  O           1     -20.706  -7.952  -1.361  0.00  0.00    -0.648 OA
ENDBRANCH   8   9
ENDBRANCH   7   8
ENDBRANCH   6   7
BRANCH   6  12
HETATM   12  C           1     -21.346 -11.099  -5.301  0.00  0.00     0.196 C 
HETATM   13  O           1     -21.974 -12.116  -4.937  0.00  0.00    -0.646 OA
HETATM   14  O           1     -21.206 -10.853  -6.519  0.00  0.00    -0.646 OA
ENDBRANCH   6  12
ENDBRANCH   3   6
ENDBRANCH   1   2
BRANCH   1  15
HETATM   15  C           1     -20.509  -5.423  -5.509  0.00  0.00     0.081 C 
BRANCH  15  16
HETATM   16  C           1     -20.994  -4.964  -6.849  0.00  0.00    -0.056 A 
HETATM   17  C           1     -22.266  -4.405  -6.975  0.00  0.00     0.010 A 
HETATM   18  C           1     -22.718  -3.977  -8.223  0.00  0.00     0.038 A 
HETATM   19  C           1     -21.899  -4.108  -9.345  0.00  0.00     0.081 A 
HETATM   20  C           1     -20.629  -4.668  -9.218  0.00  0.00     0.038 A 
HETATM   21  C           1     -20.176  -5.096  -7.970  0.00  0.00     0.010 A 
BRANCH  19  22
HETATM   22  O           1     -22.339  -3.693 -10.557  0.00  0.00    -0.247 OA
BRANCH  22  23
HETATM   23  P           1     -23.708  -4.334 -11.127  0.00  0.00     0.411 P 
HETATM   24  O           1     -24.042  -5.550 -10.352  0.00  0.00    -0.624 OA
HETATM   25  O           1     -24.804  -3.349 -10.999  0.00  0.00    -0.624 OA
BRANCH  23  26
HETATM   26  O           1     -23.513  -4.724 -12.682  0.00  0.00    -0.300 OA
HETATM   27  H           1     -22.697  -5.194 -12.714  0.00  0.00     0.223 HD
ENDBRANCH  23  26
ENDBRANCH  22  23
ENDBRANCH  19  22
ENDBRANCH  15  16
ENDBRANCH   1  15
BRANCH   1  28
HETATM   28  N           1     -21.907  -6.054  -3.575  0.00  0.00    -0.066 N 
HETATM   29  H           1     -21.506  -6.715  -2.871  0.00  0.00     0.275 HD
HETATM   30  H           1     -21.569  -5.086  -3.376  0.00  0.00     0.275 HD
HETATM   31  H           1     -22.951  -6.078  -3.521  0.00  0.00     0.275 HD
ENDBRANCH   1  28
TORSDOF 12
ENDMDL
MODEL 4
REMARK VINA RESULT:      -7.2     13.994     15.462
REMARK  12 active torsions:
REMARK  status: ('A' for Active; 'I' for Inactive)
REMARK    1  A    between atoms: C_2  and  C_4 
REMARK    2  A    between atoms: C_4  and  C_5 
REMARK    3  A    between atoms: C_5  and  C_6 
REMARK    4  A    between atoms: C_6  and  C_7 
REMARK    5  A    between atoms: C_6  and  N_10 
REMARK       I    between atoms: N_10  and  C_11 
REMARK    6  A    between atoms: C_11  and  C_12 
REMARK    7  A    between atoms: C_12  and  C_13 
REMARK    8  A    between atoms: C_12  and  N_25 
REMARK    9  A    between atoms: C_13  and  C_14 
REMARK   10  A    between atoms: C_17  and  O_18 
REMARK   11  A    between atoms: O_18  and  P_19 
REMARK   12  A    between atoms: P_19  and  O_20 
ROOT
HETATM    1  C           1     -21.561  -6.456  -4.862  0.00  0.00     0.278 C 
ENDROOT
BRANCH   1   2
HETATM    2  C           1     -21.033  -7.868  -4.781  0.00  0.00     0.249 C 
HETATM    3  N           1     -20.576  -8.359  -3.586  0.00  0.00    -0.345 N 
HETATM    4  H           1     -20.591  -7.776  -2.760  0.00  0.00     0.163 HD
HETATM    5  O           1     -21.016  -8.564  -5.767  0.00  0.00    -0.271 OA
BRANCH   3   6
HETATM    6  C           1     -20.069  -9.715  -3.508  0.00  0.00     0.186 C 
BRANCH   6   7
HETATM    7  C           1     -18.599  -9.688  -3.114  0.00  0.00     0.046 C 
BRANCH   7   8
HETATM    8  C           1     -17.738  -9.966  -4.339  0.00  0.00     0.116 C 
BRANCH   8   9
HETATM    9  C           1     -16.285  -9.746  -3.996  0.00  0.00     0.172 C 
HETATM   10  O           1     -15.964  -9.363  -2.851  0.00  0.00    -0.648 OA
HETATM   11  O           1     -15.403  -9.947  -4.859  0.00  0.00    -0.648 OA
ENDBRANCH   8   9
ENDBRANCH   7   8
ENDBRANCH   6   7
BRANCH   6  12
HETATM   12  C           1     -20.853 -10.484  -2.473  0.00  0.00     0.196 C 
HETATM   13  O           1     -20.351 -11.491  -1.930  0.00  0.00    -0.646 OA
HETATM   14  O           1     -22.005 -10.114  -2.160  0.00  0.00    -0.646 OA
ENDBRANCH   6  12
ENDBRANCH   3   6
ENDBRANCH   1   2
BRANCH   1  15
HETATM   15  C           1     -20.506  -5.556  -5.491  0.00  0.00     0.081 C 
BRANCH  15  16
HETATM   16  C           1     -21.001  -5.052  -6.811  0.00  0.00    -0.056 A 
HETATM   17  C           1     -20.173  -5.107  -7.933  0.00  0.00     0.010 A 
HETATM   18  C           1     -20.635  -4.637  -9.163  0.00  0.00     0.038 A 
HETATM   19  C           1     -21.923  -4.113  -9.271  0.00  0.00     0.081 A 
HETATM   20  C           1     -22.749  -4.058  -8.150  0.00  0.00     0.038 A 
HETATM   21  C           1     -22.289  -4.527  -6.920  0.00  0.00     0.010 A 
BRANCH  19  22
HETATM   22  O           1     -22.370  -3.656 -10.466  0.00  0.00    -0.247 OA
BRANCH  22  23
HETATM   23  P           1     -23.709  -4.320 -11.079  0.00  0.00     0.411 P 
HETATM   24  O           1     -24.039  -5.549 -10.323  0.00  0.00    -0.624 OA
HETATM   25  O           1     -24.828  -3.358 -10.974  0.00  0.00    -0.624 OA
BRANCH  23  26
HETATM   26  O           1     -23.462  -4.693 -12.630  0.00  0.00    -0.300 OA
HETATM   27  H           1     -23.834  -3.976 -13.115  0.00  0.00     0.223 HD
ENDBRANCH  23  26
ENDBRANCH  22  23
ENDBRANCH  19  22
ENDBRANCH  15  16
ENDBRANCH   1  15
BRANCH   1  28
HETATM   28  N           1     -21.880  -5.962  -3.482  0.00  0.00    -0.066 N 
HETATM   29  H           1     -20.994  -5.855  -2.937  0.00  0.00     0.275 HD
HETATM   30  H           1     -22.362  -5.038  -3.546  0.00  0.00     0.275 HD
HETATM   31  H           1     -22.503  -6.650  -3.002  0.00  0.00     0.275 HD
ENDBRANCH   1  28
TORSDOF 12
ENDMDL
MODEL 5
REMARK VINA RESULT:      -7.2      1.674      2.359
REMARK  12 active torsions:
REMARK  status: ('A' for Active; 'I' for Inactive)
REMARK    1  A    between atoms: C_2  and  C_4 
REMARK    2  A    between atoms: C_4  and  C_5 
REMARK    3  A    between atoms: C_5  and  C_6 
REMARK    4  A    between atoms: C_6  and  C_7 
REMARK    5  A    between atoms: C_6  and  N_10 
REMARK       I    between atoms: N_10  and  C_11 
REMARK    6  A    between atoms: C_11  and  C_12 
REMARK    7  A    between atoms: C_12  and  C_13 
REMARK    8  A    between atoms: C_12  and  N_25 
REMARK    9  A    between atoms: C_13  and  C_14 
REMARK   10  A    between atoms: C_17  and  O_18 
REMARK   11  A    between atoms: O_18  and  P_19 
REMARK   12  A    between atoms: P_19  and  O_20 
ROOT
HETATM    1  C           1     -32.839  -4.659 -16.887  0.00  0.00     0.278 C 
ENDROOT
BRANCH   1   2
HETATM    2  C           1     -33.750  -4.544 -15.689  0.00  0.00     0.249 C 
HETATM    3  N           1     -33.247  -4.124 -14.486  0.00  0.00    -0.345 N 
HETATM    4  H           1     -32.267  -3.890 -14.401  0.00  0.00     0.163 HD
HETATM    5  O           1     -34.920  -4.822 -15.791  0.00  0.00    -0.271 OA
BRANCH   3   6
HETATM    6  C           1     -34.123  -4.013 -13.335  0.00  0.00     0.186 C 
BRANCH   6   7
HETATM    7  C           1     -33.406  -4.536 -12.098  0.00  0.00     0.046 C 
BRANCH   7   8
HETATM    8  C           1     -34.432  -5.028 -11.086  0.00  0.00     0.116 C 
BRANCH   8   9
HETATM    9  C           1     -34.081  -6.431 -10.654  0.00  0.00     0.172 C 
HETATM   10  O           1     -32.939  -6.886 -10.874  0.00  0.00    -0.648 OA
HETATM   11  O           1     -34.935  -7.137 -10.075  0.00  0.00    -0.648 OA
ENDBRANCH   8   9
ENDBRANCH   7   8
ENDBRANCH   6   7
BRANCH   6  12
HETATM   12  C           1     -34.496  -2.566 -13.126  0.00  0.00     0.196 C 
HETATM   13  O           1     -34.246  -2.007 -12.037  0.00  0.00    -0.646 OA
HETATM   14  O           1     -35.055  -1.926 -14.043  0.00  0.00    -0.646 OA
ENDBRANCH   6  12
ENDBRANCH   3   6
ENDBRANCH   1   2
BRANCH   1  15
HETATM   15  C           1     -32.146  -6.014 -16.869  0.00  0.00     0.081 C 
BRANCH  15  16
HETATM   16  C           1     -30.663  -5.816 -16.802  0.00  0.00    -0.056 A 
HETATM   17  C           1     -30.050  -5.558 -15.576  0.00  0.00     0.010 A 
HETATM   18  C           1     -28.668  -5.373 -15.513  0.00  0.00     0.038 A 
HETATM   19  C           1     -27.901  -5.447 -16.676  0.00  0.00     0.081 A 
HETATM   20  C           1     -28.515  -5.704 -17.901  0.00  0.00     0.038 A 
HETATM   21  C           1     -29.896  -5.889 -17.964  0.00  0.00     0.010 A 
BRANCH  19  22
HETATM   22  O           1     -26.560  -5.266 -16.614  0.00  0.00    -0.247 OA
BRANCH  22  23
HETATM   23  P           1     -25.663  -6.454 -15.988  0.00  0.00     0.411 P 
HETATM   24  O           1     -26.546  -7.554 -15.540  0.00  0.00    -0.624 OA
HETATM   25  O           1     -24.726  -6.959 -17.017  0.00  0.00    -0.624 OA
BRANCH  23  26
HETATM   26  O           1     -24.826  -5.890 -14.728  0.00  0.00    -0.300 OA
HETATM   27  H           1     -23.922  -5.954 -14.987  0.00  0.00     0.223 HD
ENDBRANCH  23  26
ENDBRANCH  22  23
ENDBRANCH  19  22
ENDBRANCH  15  16
ENDBRANCH   1  15
BRANCH   1  28
HETATM   28  N           1     -31.809  -3.569 -16.838  0.00  0.00    -0.066 N 
HETATM   29  H           1     -31.114  -3.713 -17.605  0.00  0.00     0.275 HD
HETATM   30  H           1     -32.276  -2.643 -16.961  0.00  0.00     0.275 HD
HETATM   31  H           1     -31.320  -3.595 -15.915  0.00  0.00     0.275 HD
ENDBRANCH   1  28
TORSDOF 12
ENDMDL
MODEL 6
REMARK VINA RESULT:      -7.1      2.793      4.290
REMARK  12 active torsions:
REMARK  status: ('A' for Active; 'I' for Inactive)
REMARK    1  A    between atoms: C_2  and  C_4 
REMARK    2  A    between atoms: C_4  and  C_5 
REMARK    3  A    between atoms: C_5  and  C_6 
REMARK    4  A    between atoms: C_6  and  C_7 
REMARK    5  A    between atoms: C_6  and  N_10 
REMARK       I    between atoms: N_10  and  C_11 
REMARK    6  A    between atoms: C_11  and  C_12 
REMARK    7  A    between atoms: C_12  and  C_13 
REMARK    8  A    between atoms: C_12  and  N_25 
REMARK    9  A    between atoms: C_13  and  C_14 
REMARK   10  A    between atoms: C_17  and  O_18 
REMARK   11  A    between atoms: O_18  and  P_19 
REMARK   12  A    between atoms: P_19  and  O_20 
ROOT
HETATM    1  C           1     -33.828  -4.176 -15.669  0.00  0.00     0.278 C 
ENDROOT
BRANCH   1   2
HETATM    2  C           1     -34.515  -2.991 -15.034  0.00  0.00     0.249 C 
HETATM    3  N           1     -34.936  -1.947 -15.814  0.00  0.00    -0.345 N 
HETATM    4  H           1     -34.788  -1.969 -16.814  0.00  0.00     0.163 HD
HETATM    5  O           1     -34.692  -2.964 -13.840  0.00  0.00    -0.271 OA
BRANCH   3   6
HETATM    6  C           1     -35.595  -0.808 -15.204  0.00  0.00     0.186 C 
BRANCH   6   7
HETATM    7  C           1     -34.584   0.310 -14.987  0.00  0.00     0.046 C 
BRANCH   7   8
HETATM    8  C           1     -35.004   1.150 -13.788  0.00  0.00     0.116 C 
BRANCH   8   9
HETATM    9  C           1     -35.361   0.243 -12.637  0.00  0.00     0.172 C 
HETATM   10  O           1     -36.554   0.113 -12.290  0.00  0.00    -0.648 OA
HETATM   11  O           1     -34.462  -0.379 -12.030  0.00  0.00    -0.648 OA
ENDBRANCH   8   9
ENDBRANCH   7   8
ENDBRANCH   6   7
BRANCH   6  12
HETATM   12  C           1     -36.697  -0.320 -16.112  0.00  0.00     0.196 C 
HETATM   13  O           1     -36.992   0.893 -16.141  0.00  0.00    -0.646 OA
HETATM   14  O           1     -37.315  -1.131 -16.836  0.00  0.00    -0.646 OA
ENDBRANCH   6  12
ENDBRANCH   3   6
ENDBRANCH   1   2
BRANCH   1  15
HETATM   15  C           1     -33.234  -3.762 -17.007  0.00  0.00     0.081 C 
BRANCH  15  16
HETATM   16  C           1     -31.874  -4.368 -17.160  0.00  0.00    -0.056 A 
HETATM   17  C           1     -31.672  -5.714 -16.853  0.00  0.00     0.010 A 
HETATM   18  C           1     -30.405  -6.280 -16.995  0.00  0.00     0.038 A 
HETATM   19  C           1     -29.339  -5.499 -17.443  0.00  0.00     0.081 A 
HETATM   20  C           1     -29.541  -4.154 -17.749  0.00  0.00     0.038 A 
HETATM   21  C           1     -30.807  -3.588 -17.607  0.00  0.00     0.010 A 
BRANCH  19  22
HETATM   22  O           1     -28.108  -6.049 -17.580  0.00  0.00    -0.247 OA
BRANCH  22  23
HETATM   23  P           1     -27.142  -6.074 -16.287  0.00  0.00     0.411 P 
HETATM   24  O           1     -25.766  -5.709 -16.693  0.00  0.00    -0.624 OA
HETATM   25  O           1     -27.635  -5.105 -15.283  0.00  0.00    -0.624 OA
BRANCH  23  26
HETATM   26  O           1     -27.137  -7.557 -15.647  0.00  0.00    -0.300 OA
HETATM   27  H           1     -27.495  -8.113 -16.320  0.00  0.00     0.223 HD
ENDBRANCH  23  26
ENDBRANCH  22  23
ENDBRANCH  19  22
ENDBRANCH  15  16
ENDBRANCH   1  15
BRANCH   1  28
HETATM   28  N           1     -34.828  -5.274 -15.884  0.00  0.00    -0.066 N 
HETATM   29  H           1     -34.412  -6.187 -15.587  0.00  0.00     0.275 HD
HETATM   30  H           1     -35.684  -5.082 -15.318  0.00  0.00     0.275 HD
HETATM   31  H           1     -35.080  -5.321 -16.897  0.00  0.00     0.275 HD
ENDBRANCH   1  28
TORSDOF 12
ENDMDL
MODEL 7
REMARK VINA RESULT:      -7.0     13.100     15.125
REMARK  12 active torsions:
REMARK  status: ('A' for Active; 'I' for Inactive)
REMARK    1  A    between atoms: C_2  and  C_4 
REMARK    2  A    between atoms: C_4  and  C_5 
REMARK    3  A    between atoms: C_5  and  C_6 
REMARK    4  A    between atoms: C_6  and  C_7 
REMARK    5  A    between atoms: C_6  and  N_10 
REMARK       I    between atoms: N_10  and  C_11 
REMARK    6  A    between atoms: C_11  and  C_12 
REMARK    7  A    between atoms: C_12  and  C_13 
REMARK    8  A    between atoms: C_12  and  N_25 
REMARK    9  A    between atoms: C_13  and  C_14 
REMARK   10  A    between atoms: C_17  and  O_18 
REMARK   11  A    between atoms: O_18  and  P_19 
REMARK   12  A    between atoms: P_19  and  O_20 
ROOT
HETATM    1  C           1     -21.161  -5.595  -7.013  0.00  0.00     0.278 C 
ENDROOT
BRANCH   1   2
HETATM    2  C           1     -21.869  -4.429  -7.660  0.00  0.00     0.249 C 
HETATM    3  N           1     -22.682  -4.638  -8.742  0.00  0.00    -0.345 N 
HETATM    4  H           1     -22.808  -5.572  -9.108  0.00  0.00     0.163 HD
HETATM    5  O           1     -21.718  -3.314  -7.223  0.00  0.00    -0.271 OA
BRANCH   3   6
HETATM    6  C           1     -23.362  -3.517  -9.363  0.00  0.00     0.186 C 
BRANCH   6   7
HETATM    7  C           1     -22.696  -3.191 -10.693  0.00  0.00     0.046 C 
BRANCH   7   8
HETATM    8  C           1     -21.885  -4.391 -11.164  0.00  0.00     0.116 C 
BRANCH   8   9
HETATM    9  C           1     -20.414  -4.104 -10.995  0.00  0.00     0.172 C 
HETATM   10  O           1     -19.637  -5.013 -10.635  0.00  0.00    -0.648 OA
HETATM   11  O           1     -19.972  -2.955 -11.217  0.00  0.00    -0.648 OA
ENDBRANCH   8   9
ENDBRANCH   7   8
ENDBRANCH   6   7
BRANCH   6  12
HETATM   12  C           1     -24.808  -3.878  -9.601  0.00  0.00     0.196 C 
HETATM   13  O           1     -25.156  -5.077  -9.634  0.00  0.00    -0.646 OA
HETATM   14  O           1     -25.657  -2.976  -9.765  0.00  0.00    -0.646 OA
ENDBRANCH   6  12
ENDBRANCH   3   6
ENDBRANCH   1   2
BRANCH   1  15
HETATM   15  C           1     -20.782  -5.230  -5.585  0.00  0.00     0.081 C 
BRANCH  15  16
HETATM   16  C           1     -21.106  -6.373  -4.674  0.00  0.00    -0.056 A 
HETATM   17  C           1     -21.282  -6.147  -3.308  0.00  0.00     0.010 A 
HETATM   18  C           1     -21.584  -7.212  -2.459  0.00  0.00     0.038 A 
HETATM   19  C           1     -21.709  -8.502  -2.975  0.00  0.00     0.081 A 
HETATM   20  C           1     -21.531  -8.727  -4.340  0.00  0.00     0.038 A 
HETATM   21  C           1     -21.230  -7.663  -5.189  0.00  0.00     0.010 A 
BRANCH  19  22
HETATM   22  O           1     -22.001  -9.536  -2.150  0.00  0.00    -0.247 OA
BRANCH  22  23
HETATM   23  P           1     -20.806 -10.155  -1.258  0.00  0.00     0.411 P 
HETATM   24  O           1     -19.505  -9.838  -1.890  0.00  0.00    -0.624 OA
HETATM   25  O           1     -20.851  -9.571   0.101  0.00  0.00    -0.624 OA
BRANCH  23  26
HETATM   26  O           1     -20.980 -11.758  -1.163  0.00  0.00    -0.300 OA
HETATM   27  H           1     -21.895 -11.893  -0.982  0.00  0.00     0.223 HD
ENDBRANCH  23  26
ENDBRANCH  22  23
ENDBRANCH  19  22
ENDBRANCH  15  16
ENDBRANCH   1  15
BRANCH   1  28
HETATM   28  N           1     -19.920  -5.919  -7.792  0.00  0.00    -0.066 N 
HETATM   29  H           1     -19.078  -5.672  -7.223  0.00  0.00     0.275 HD
HETATM   30  H           1     -19.904  -6.940  -8.013  0.00  0.00     0.275 HD
HETATM   31  H           1     -19.913  -5.368  -8.681  0.00  0.00     0.275 HD
ENDBRANCH   1  28
TORSDOF 12
ENDMDL
MODEL 8
REMARK VINA RESULT:      -6.8     13.755     16.038
REMARK  12 active torsions:
REMARK  status: ('A' for Active; 'I' for Inactive)
REMARK    1  A    between atoms: C_2  and  C_4 
REMARK    2  A    between atoms: C_4  and  C_5 
REMARK    3  A    between atoms: C_5  and  C_6 
REMARK    4  A    between atoms: C_6  and  C_7 
REMARK    5  A    between atoms: C_6  and  N_10 
REMARK       I    between atoms: N_10  and  C_11 
REMARK    6  A    between atoms: C_11  and  C_12 
REMARK    7  A    between atoms: C_12  and  C_13 
REMARK    8  A    between atoms: C_12  and  N_25 
REMARK    9  A    between atoms: C_13  and  C_14 
REMARK   10  A    between atoms: C_17  and  O_18 
REMARK   11  A    between atoms: O_18  and  P_19 
REMARK   12  A    between atoms: P_19  and  O_20 
ROOT
HETATM    1  C           1     -20.658  -5.901  -4.980  0.00  0.00     0.278 C 
ENDROOT
BRANCH   1   2
HETATM    2  C           1     -20.965  -5.870  -6.458  0.00  0.00     0.249 C 
HETATM    3  N           1     -21.318  -4.690  -7.058  0.00  0.00    -0.345 N 
HETATM    4  H           1     -21.372  -3.841  -6.512  0.00  0.00     0.163 HD
HETATM    5  O           1     -20.899  -6.884  -7.110  0.00  0.00    -0.271 OA
BRANCH   3   6
HETATM    6  C           1     -21.613  -4.661  -8.478  0.00  0.00     0.186 C 
BRANCH   6   7
HETATM    7  C           1     -22.671  -3.602  -8.756  0.00  0.00     0.046 C 
BRANCH   7   8
HETATM    8  C           1     -23.966  -4.279  -9.185  0.00  0.00     0.116 C 
BRANCH   8   9
HETATM    9  C           1     -24.257  -3.946 -10.628  0.00  0.00     0.172 C 
HETATM   10  O           1     -25.189  -3.166 -10.914  0.00  0.00    -0.648 OA
HETATM   11  O           1     -23.563  -4.451 -11.537  0.00  0.00    -0.648 OA
ENDBRANCH   8   9
ENDBRANCH   7   8
ENDBRANCH   6   7
BRANCH   6  12
HETATM   12  C           1     -20.356  -4.328  -9.244  0.00  0.00     0.196 C 
HETATM   13  O           1     -19.447  -3.667  -8.698  0.00  0.00    -0.646 OA
HETATM   14  O           1     -20.225  -4.713 -10.426  0.00  0.00    -0.646 OA
ENDBRANCH   6  12
ENDBRANCH   3   6
ENDBRANCH   1   2
BRANCH   1  15
HETATM   15  C           1     -21.927  -6.227  -4.205  0.00  0.00     0.081 C 
BRANCH  15  16
HETATM   16  C           1     -21.650  -7.330  -3.232  0.00  0.00    -0.056 A 
HETATM   17  C           1     -21.419  -8.626  -3.695  0.00  0.00     0.010 A 
HETATM   18  C           1     -21.161  -9.654  -2.789  0.00  0.00     0.038 A 
HETATM   19  C           1     -21.134  -9.387  -1.420  0.00  0.00     0.081 A 
HETATM   20  C           1     -21.366  -8.092  -0.958  0.00  0.00     0.038 A 
HETATM   21  C           1     -21.624  -7.064  -1.863  0.00  0.00     0.010 A 
BRANCH  19  22
HETATM   22  O           1     -20.884 -10.387  -0.540  0.00  0.00    -0.247 OA
BRANCH  22  23
HETATM   23  P           1     -22.060 -11.456  -0.254  0.00  0.00     0.411 P 
HETATM   24  O           1     -23.349 -10.744  -0.112  0.00  0.00    -0.624 OA
HETATM   25  O           1     -22.142 -12.411  -1.382  0.00  0.00    -0.624 OA
BRANCH  23  26
HETATM   26  O           1     -21.737 -12.259   1.109  0.00  0.00    -0.300 OA
HETATM   27  H           1     -21.127 -12.932   0.857  0.00  0.00     0.223 HD
ENDBRANCH  23  26
ENDBRANCH  22  23
ENDBRANCH  19  22
ENDBRANCH  15  16
ENDBRANCH   1  15
BRANCH   1  28
HETATM   28  N           1     -20.140  -4.560  -4.550  0.00  0.00    -0.066 N 
HETATM   29  H           1     -19.097  -4.598  -4.477  0.00  0.00     0.275 HD
HETATM   30  H           1     -20.412  -3.839  -5.255  0.00  0.00     0.275 HD
HETATM   31  H           1     -20.546  -4.313  -3.620  0.00  0.00     0.275 HD
ENDBRANCH   1  28
TORSDOF 12
ENDMDL
MODEL 9
REMARK VINA RESULT:      -6.8     13.950     15.463
REMARK  12 active torsions:
REMARK  status: ('A' for Active; 'I' for Inactive)
REMARK    1  A    between atoms: C_2  and  C_4 
REMARK    2  A    between atoms: C_4  and  C_5 
REMARK    3  A    between atoms: C_5  and  C_6 
REMARK    4  A    between atoms: C_6  and  C_7 
REMARK    5  A    between atoms: C_6  and  N_10 
REMARK       I    between atoms: N_10  and  C_11 
REMARK    6  A    between atoms: C_11  and  C_12 
REMARK    7  A    between atoms: C_12  and  C_13 
REMARK    8  A    between atoms: C_12  and  N_25 
REMARK    9  A    between atoms: C_13  and  C_14 
REMARK   10  A    between atoms: C_17  and  O_18 
REMARK   11  A    between atoms: O_18  and  P_19 
REMARK   12  A    between atoms: P_19  and  O_20 
ROOT
HETATM    1  C           1     -21.622  -6.443  -4.427  0.00  0.00     0.278 C 
ENDROOT
BRANCH   1   2
HETATM    2  C           1     -20.999  -7.816  -4.509  0.00  0.00     0.249 C 
HETATM    3  N           1     -20.325  -8.326  -3.432  0.00  0.00    -0.345 N 
HETATM    4  H           1     -20.244  -7.784  -2.582  0.00  0.00     0.163 HD
HETATM    5  O           1     -21.096  -8.463  -5.524  0.00  0.00    -0.271 OA
BRANCH   3   6
HETATM    6  C           1     -19.727  -9.645  -3.511  0.00  0.00     0.186 C 
BRANCH   6   7
HETATM    7  C           1     -18.219  -9.511  -3.673  0.00  0.00     0.046 C 
BRANCH   7   8
HETATM    8  C           1     -17.716 -10.572  -4.644  0.00  0.00     0.116 C 
BRANCH   8   9
HETATM    9  C           1     -18.161 -10.226  -6.044  0.00  0.00     0.172 C 
HETATM   10  O           1     -17.948  -9.085  -6.504  0.00  0.00    -0.648 OA
HETATM   11  O           1     -18.743 -11.084  -6.743  0.00  0.00    -0.648 OA
ENDBRANCH   8   9
ENDBRANCH   7   8
ENDBRANCH   6   7
BRANCH   6  12
HETATM   12  C           1     -20.030 -10.410  -2.247  0.00  0.00     0.196 C 
HETATM   13  O           1     -19.935 -11.656  -2.232  0.00  0.00    -0.646 OA
HETATM   14  O           1     -20.378  -9.798  -1.214  0.00  0.00    -0.646 OA
ENDBRANCH   6  12
ENDBRANCH   3   6
ENDBRANCH   1   2
BRANCH   1  15
HETATM   15  C           1     -20.615  -5.401  -4.891  0.00  0.00     0.081 C 
BRANCH  15  16
HETATM   16  C           1     -21.025  -4.871  -6.230  0.00  0.00    -0.056 A 
HETATM   17  C           1     -20.074  -4.289  -7.070  0.00  0.00     0.010 A 
HETATM   18  C           1     -20.456  -3.795  -8.318  0.00  0.00     0.038 A 
HETATM   19  C           1     -21.787  -3.883  -8.725  0.00  0.00     0.081 A 
HETATM   20  C           1     -22.736  -4.464  -7.886  0.00  0.00     0.038 A 
HETATM   21  C           1     -22.356  -4.958  -6.638  0.00  0.00     0.010 A 
BRANCH  19  22
HETATM   22  O           1     -22.157  -3.402  -9.937  0.00  0.00    -0.247 OA
BRANCH  22  23
HETATM   23  P           1     -21.233  -3.765 -11.211  0.00  0.00     0.411 P 
HETATM   24  O           1     -20.462  -4.995 -10.926  0.00  0.00    -0.624 OA
HETATM   25  O           1     -22.091  -3.981 -12.397  0.00  0.00    -0.624 OA
BRANCH  23  26
HETATM   26  O           1     -20.213  -2.546 -11.499  0.00  0.00    -0.300 OA
HETATM   27  H           1     -20.113  -2.528 -12.436  0.00  0.00     0.223 HD
ENDBRANCH  23  26
ENDBRANCH  22  23
ENDBRANCH  19  22
ENDBRANCH  15  16
ENDBRANCH   1  15
BRANCH   1  28
HETATM   28  N           1     -22.018  -6.159  -3.008  0.00  0.00    -0.066 N 
HETATM   29  H           1     -23.058  -6.216  -2.919  0.00  0.00     0.275 HD
HETATM   30  H           1     -21.576  -6.864  -2.376  0.00  0.00     0.275 HD
HETATM   31  H           1     -21.697  -5.201  -2.743  0.00  0.00     0.275 HD
ENDBRANCH   1  28
TORSDOF 12
ENDMDL
