MODEL 1
REMARK VINA RESULT:      -5.2      0.000      0.000
REMARK  6 active torsions:
REMARK  status: ('A' for Active; 'I' for Inactive)
REMARK    1  A    between atoms: S_2  and  C_10 
REMARK    2  A    between atoms: C_3  and  C_14 
REMARK       I    between atoms: C_8  and  N_15 
REMARK    3  A    between atoms: C_8  and  C_12 
REMARK    4  A    between atoms: C_10  and  C_11 
REMARK    5  A    between atoms: C_11  and  C_14 
REMARK    6  A    between atoms: C_14  and  N_15 
ROOT
HETATM    1  O           1     -28.317  -7.129 -16.510  0.00  0.00    -0.271 OA
HETATM    2  C           1     -27.826  -6.026 -16.555  0.00  0.00     0.251 C 
HETATM    3  H           1     -26.109  -4.950 -16.978  0.00  0.00     0.163 HD
HETATM    4  N           1     -26.521  -5.873 -16.940  0.00  0.00    -0.345 N 
ENDROOT
BRANCH   4   5
HETATM    5  C           1     -25.729  -7.036 -17.294  0.00  0.00     0.186 C 
BRANCH   5   6
HETATM    6  C           1     -24.852  -7.419 -16.127  0.00  0.00     0.196 C 
HETATM    7  O           1     -25.096  -6.969 -14.987  0.00  0.00    -0.646 OA
HETATM    8  O           1     -23.880  -8.187 -16.301  0.00  0.00    -0.646 OA
ENDBRANCH   5   6
BRANCH   5   9
HETATM    9  C           1     -24.856  -6.709 -18.498  0.00  0.00     0.046 C 
BRANCH   9  10
HETATM   10  C           1     -25.733  -6.556 -19.735  0.00  0.00     0.076 C 
BRANCH  10  11
HETATM   11  S           1     -25.277  -7.815 -20.959  0.00  0.00    -0.173 SA
HETATM   12  C           1     -26.956  -8.448 -21.229  0.00  0.00     0.089 C 
ENDBRANCH  10  11
ENDBRANCH   9  10
ENDBRANCH   5   9
ENDBRANCH   4   5
BRANCH   2  13
HETATM   13  C           1     -28.649  -4.817 -16.186  0.00  0.00     0.311 C 
HETATM   14  C           1     -30.117  -5.182 -16.050  0.00  0.00     0.047 C 
HETATM   15  C           1     -30.732  -4.872 -17.409  0.00  0.00     0.033 C 
HETATM   16  C           1     -29.585  -4.336 -18.249  0.00  0.00     0.271 C 
HETATM   17  N           1     -28.635  -3.831 -17.262  0.00  0.00     0.097 N 
HETATM   18  H           1     -28.949  -2.921 -16.924  0.00  0.00     0.317 HD
ENDBRANCH   2  13
TORSDOF 6
ENDMDL
MODEL 2
REMARK VINA RESULT:      -5.2      2.018      2.578
REMARK  6 active torsions:
REMARK  status: ('A' for Active; 'I' for Inactive)
REMARK    1  A    between atoms: S_2  and  C_10 
REMARK    2  A    between atoms: C_3  and  C_14 
REMARK       I    between atoms: C_8  and  N_15 
REMARK    3  A    between atoms: C_8  and  C_12 
REMARK    4  A    between atoms: C_10  and  C_11 
REMARK    5  A    between atoms: C_11  and  C_14 
REMARK    6  A    between atoms: C_14  and  N_15 
ROOT
HETATM    1  O           1     -28.310  -7.264 -19.236  0.00  0.00    -0.271 OA
HETATM    2  C           1     -27.927  -6.202 -18.807  0.00  0.00     0.251 C 
HETATM    3  H           1     -26.264  -5.054 -18.356  0.00  0.00     0.163 HD
HETATM    4  N           1     -26.585  -5.944 -18.715  0.00  0.00    -0.345 N 
ENDROOT
BRANCH   4   5
HETATM    5  C           1     -25.624  -6.947 -19.132  0.00  0.00     0.186 C 
BRANCH   5   6
HETATM    6  C           1     -24.428  -6.908 -18.213  0.00  0.00     0.196 C 
HETATM    7  O           1     -23.275  -6.852 -18.692  0.00  0.00    -0.646 OA
HETATM    8  O           1     -24.590  -6.932 -16.974  0.00  0.00    -0.646 OA
ENDBRANCH   5   6
BRANCH   5   9
HETATM    9  C           1     -25.177  -6.660 -20.559  0.00  0.00     0.046 C 
BRANCH   9  10
HETATM   10  C           1     -25.096  -7.966 -21.339  0.00  0.00     0.076 C 
BRANCH  10  11
HETATM   11  S           1     -23.782  -7.847 -22.585  0.00  0.00    -0.173 SA
HETATM   12  C           1     -22.495  -8.657 -21.595  0.00  0.00     0.089 C 
ENDBRANCH  10  11
ENDBRANCH   9  10
ENDBRANCH   5   9
ENDBRANCH   4   5
BRANCH   2  13
HETATM   13  C           1     -28.926  -5.159 -18.373  0.00  0.00     0.311 C 
HETATM   14  C           1     -28.376  -4.324 -17.230  0.00  0.00     0.047 C 
HETATM   15  C           1     -28.900  -4.989 -15.963  0.00  0.00     0.033 C 
HETATM   16  C           1     -29.731  -6.165 -16.448  0.00  0.00     0.271 C 
HETATM   17  N           1     -30.117  -5.785 -17.804  0.00  0.00     0.097 N 
HETATM   18  H           1     -30.890  -5.122 -17.764  0.00  0.00     0.317 HD
ENDBRANCH   2  13
TORSDOF 6
ENDMDL
MODEL 3
REMARK VINA RESULT:      -5.1     12.479     14.420
REMARK  6 active torsions:
REMARK  status: ('A' for Active; 'I' for Inactive)
REMARK    1  A    between atoms: S_2  and  C_10 
REMARK    2  A    between atoms: C_3  and  C_14 
REMARK       I    between atoms: C_8  and  N_15 
REMARK    3  A    between atoms: C_8  and  C_12 
REMARK    4  A    between atoms: C_10  and  C_11 
REMARK    5  A    between atoms: C_11  and  C_14 
REMARK    6  A    between atoms: C_14  and  N_15 
ROOT
HETATM    1  O           1     -22.620  -5.486  -5.825  0.00  0.00    -0.271 OA
HETATM    2  C           1     -21.429  -5.386  -5.653  0.00  0.00     0.251 C 
HETATM    3  H           1     -19.789  -6.156  -4.652  0.00  0.00     0.163 HD
HETATM    4  N           1     -20.786  -6.239  -4.796  0.00  0.00    -0.345 N 
ENDROOT
BRANCH   4   5
HETATM    5  C           1     -21.537  -7.264  -4.097  0.00  0.00     0.186 C 
BRANCH   5   6
HETATM    6  C           1     -21.652  -6.894  -2.638  0.00  0.00     0.196 C 
HETATM    7  O           1     -22.420  -5.973  -2.286  0.00  0.00    -0.646 OA
HETATM    8  O           1     -20.979  -7.509  -1.782  0.00  0.00    -0.646 OA
ENDBRANCH   5   6
BRANCH   5   9
HETATM    9  C           1     -20.817  -8.600  -4.225  0.00  0.00     0.046 C 
BRANCH   9  10
HETATM   10  C           1     -19.530  -8.409  -5.019  0.00  0.00     0.076 C 
BRANCH  10  11
HETATM   11  S           1     -18.398  -9.785  -4.676  0.00  0.00    -0.173 SA
HETATM   12  C           1     -18.148  -9.404  -2.920  0.00  0.00     0.089 C 
ENDBRANCH  10  11
ENDBRANCH   9  10
ENDBRANCH   5   9
ENDBRANCH   4   5
BRANCH   2  13
HETATM   13  C           1     -20.648  -4.319  -6.380  0.00  0.00     0.311 C 
HETATM   14  C           1     -21.504  -3.650  -7.441  0.00  0.00     0.047 C 
HETATM   15  C           1     -21.196  -4.399  -8.732  0.00  0.00     0.033 C 
HETATM   16  C           1     -20.172  -5.452  -8.344  0.00  0.00     0.271 C 
HETATM   17  N           1     -19.549  -4.907  -7.140  0.00  0.00     0.097 N 
HETATM   18  H           1     -18.869  -4.194  -7.403  0.00  0.00     0.317 HD
ENDBRANCH   2  13
TORSDOF 6
ENDMDL
MODEL 4
REMARK VINA RESULT:      -4.9     12.843     14.813
REMARK  6 active torsions:
REMARK  status: ('A' for Active; 'I' for Inactive)
REMARK    1  A    between atoms: S_2  and  C_10 
REMARK    2  A    between atoms: C_3  and  C_14 
REMARK       I    between atoms: C_8  and  N_15 
REMARK    3  A    between atoms: C_8  and  C_12 
REMARK    4  A    between atoms: C_10  and  C_11 
REMARK    5  A    between atoms: C_11  and  C_14 
REMARK    6  A    between atoms: C_14  and  N_15 
ROOT
HETATM    1  O           1     -21.242  -8.091  -5.989  0.00  0.00    -0.271 OA
HETATM    2  C           1     -20.664  -7.105  -5.600  0.00  0.00     0.251 C 
HETATM    3  H           1     -20.123  -6.001  -3.935  0.00  0.00     0.163 HD
HETATM    4  N           1     -20.608  -6.826  -4.261  0.00  0.00    -0.345 N 
ENDROOT
BRANCH   4   5
HETATM    5  C           1     -21.245  -7.717  -3.309  0.00  0.00     0.186 C 
BRANCH   5   6
HETATM    6  C           1     -21.904  -6.902  -2.223  0.00  0.00     0.196 C 
HETATM    7  O           1     -22.493  -5.838  -2.511  0.00  0.00    -0.646 OA
HETATM    8  O           1     -21.861  -7.291  -1.036  0.00  0.00    -0.646 OA
ENDBRANCH   5   6
BRANCH   5   9
HETATM    9  C           1     -20.197  -8.632  -2.690  0.00  0.00     0.046 C 
BRANCH   9  10
HETATM   10  C           1     -20.360 -10.041  -3.247  0.00  0.00     0.076 C 
BRANCH  10  11
HETATM   11  S           1     -22.125 -10.445  -3.366  0.00  0.00    -0.173 SA
HETATM   12  C           1     -21.912 -12.000  -4.278  0.00  0.00     0.089 C 
ENDBRANCH  10  11
ENDBRANCH   9  10
ENDBRANCH   5   9
ENDBRANCH   4   5
BRANCH   2  13
HETATM   13  C           1     -20.002  -6.179  -6.590  0.00  0.00     0.311 C 
HETATM   14  C           1     -19.878  -4.776  -6.020  0.00  0.00     0.047 C 
HETATM   15  C           1     -21.106  -4.030  -6.527  0.00  0.00     0.033 C 
HETATM   16  C           1     -21.864  -5.042  -7.369  0.00  0.00     0.271 C 
HETATM   17  N           1     -20.839  -6.000  -7.774  0.00  0.00     0.097 N 
HETATM   18  H           1     -20.296  -5.611  -8.544  0.00  0.00     0.317 HD
ENDBRANCH   2  13
TORSDOF 6
ENDMDL
MODEL 5
REMARK VINA RESULT:      -4.9      2.456      4.607
REMARK  6 active torsions:
REMARK  status: ('A' for Active; 'I' for Inactive)
REMARK    1  A    between atoms: S_2  and  C_10 
REMARK    2  A    between atoms: C_3  and  C_14 
REMARK       I    between atoms: C_8  and  N_15 
REMARK    3  A    between atoms: C_8  and  C_12 
REMARK    4  A    between atoms: C_10  and  C_11 
REMARK    5  A    between atoms: C_11  and  C_14 
REMARK    6  A    between atoms: C_14  and  N_15 
ROOT
HETATM    1  O           1     -24.052  -6.573 -18.159  0.00  0.00    -0.271 OA
HETATM    2  C           1     -25.088  -6.926 -18.670  0.00  0.00     0.251 C 
HETATM    3  H           1     -27.149  -6.956 -18.480  0.00  0.00     0.163 HD
HETATM    4  N           1     -26.282  -6.662 -18.052  0.00  0.00    -0.345 N 
ENDROOT
BRANCH   4   5
HETATM    5  C           1     -26.300  -5.958 -16.784  0.00  0.00     0.186 C 
BRANCH   5   6
HETATM    6  C           1     -26.275  -6.960 -15.655  0.00  0.00     0.196 C 
HETATM    7  O           1     -25.198  -7.227 -15.081  0.00  0.00    -0.646 OA
HETATM    8  O           1     -27.333  -7.522 -15.295  0.00  0.00    -0.646 OA
ENDBRANCH   5   6
BRANCH   5   9
HETATM    9  C           1     -27.567  -5.118 -16.687  0.00  0.00     0.046 C 
BRANCH   9  10
HETATM   10  C           1     -28.450  -5.388 -17.898  0.00  0.00     0.076 C 
BRANCH  10  11
HETATM   11  S           1     -30.035  -6.081 -17.349  0.00  0.00    -0.173 SA
HETATM   12  C           1     -29.907  -7.634 -18.279  0.00  0.00     0.089 C 
ENDBRANCH  10  11
ENDBRANCH   9  10
ENDBRANCH   5   9
ENDBRANCH   4   5
BRANCH   2  13
HETATM   13  C           1     -25.069  -7.658 -19.989  0.00  0.00     0.311 C 
HETATM   14  C           1     -24.158  -6.958 -20.983  0.00  0.00     0.047 C 
HETATM   15  C           1     -25.075  -6.048 -21.790  0.00  0.00     0.033 C 
HETATM   16  C           1     -26.465  -6.281 -21.223  0.00  0.00     0.271 C 
HETATM   17  N           1     -26.381  -7.612 -20.628  0.00  0.00     0.097 N 
HETATM   18  H           1     -26.450  -8.317 -21.362  0.00  0.00     0.317 HD
ENDBRANCH   2  13
TORSDOF 6
ENDMDL
MODEL 6
REMARK VINA RESULT:      -4.9     14.696     16.607
REMARK  6 active torsions:
REMARK  status: ('A' for Active; 'I' for Inactive)
REMARK    1  A    between atoms: S_2  and  C_10 
REMARK    2  A    between atoms: C_3  and  C_14 
REMARK       I    between atoms: C_8  and  N_15 
REMARK    3  A    between atoms: C_8  and  C_12 
REMARK    4  A    between atoms: C_10  and  C_11 
REMARK    5  A    between atoms: C_11  and  C_14 
REMARK    6  A    between atoms: C_14  and  N_15 
ROOT
HETATM    1  O           1     -19.765  -8.298  -1.551  0.00  0.00    -0.271 OA
HETATM    2  C           1     -20.863  -8.798  -1.616  0.00  0.00     0.251 C 
HETATM    3  H           1     -22.559  -9.018  -2.781  0.00  0.00     0.163 HD
HETATM    4  N           1     -21.640  -8.599  -2.726  0.00  0.00    -0.345 N 
ENDROOT
BRANCH   4   5
HETATM    5  C           1     -21.145  -7.788  -3.821  0.00  0.00     0.186 C 
BRANCH   5   6
HETATM    6  C           1     -21.903  -6.484  -3.862  0.00  0.00     0.196 C 
HETATM    7  O           1     -22.096  -5.907  -4.954  0.00  0.00    -0.646 OA
HETATM    8  O           1     -22.338  -5.980  -2.804  0.00  0.00    -0.646 OA
ENDBRANCH   5   6
BRANCH   5   9
HETATM    9  C           1     -21.345  -8.532  -5.135  0.00  0.00     0.046 C 
BRANCH   9  10
HETATM   10  C           1     -20.520  -9.812  -5.126  0.00  0.00     0.076 C 
BRANCH  10  11
HETATM   11  S           1     -18.764  -9.399  -4.934  0.00  0.00    -0.173 SA
HETATM   12  C           1     -18.132 -10.703  -6.027  0.00  0.00     0.089 C 
ENDBRANCH  10  11
ENDBRANCH   9  10
ENDBRANCH   5   9
ENDBRANCH   4   5
BRANCH   2  13
HETATM   13  C           1     -21.378  -9.641  -0.476  0.00  0.00     0.311 C 
HETATM   14  C           1     -22.896  -9.689  -0.481  0.00  0.00     0.047 C 
HETATM   15  C           1     -23.332  -8.583   0.473  0.00  0.00     0.033 C 
HETATM   16  C           1     -22.040  -7.966   0.981  0.00  0.00     0.271 C 
HETATM   17  N           1     -21.054  -9.029   0.810  0.00  0.00     0.097 N 
HETATM   18  H           1     -21.149  -9.706   1.566  0.00  0.00     0.317 HD
ENDBRANCH   2  13
TORSDOF 6
ENDMDL
MODEL 7
REMARK VINA RESULT:      -4.8      2.625      5.065
REMARK  6 active torsions:
REMARK  status: ('A' for Active; 'I' for Inactive)
REMARK    1  A    between atoms: S_2  and  C_10 
REMARK    2  A    between atoms: C_3  and  C_14 
REMARK       I    between atoms: C_8  and  N_15 
REMARK    3  A    between atoms: C_8  and  C_12 
REMARK    4  A    between atoms: C_10  and  C_11 
REMARK    5  A    between atoms: C_11  and  C_14 
REMARK    6  A    between atoms: C_14  and  N_15 
ROOT
HETATM    1  O           1     -25.512  -6.409 -18.358  0.00  0.00    -0.271 OA
HETATM    2  C           1     -26.584  -6.341 -18.910  0.00  0.00     0.251 C 
HETATM    3  H           1     -28.622  -6.105 -18.636  0.00  0.00     0.163 HD
HETATM    4  N           1     -27.724  -6.163 -18.174  0.00  0.00    -0.345 N 
ENDROOT
BRANCH   4   5
HETATM    5  C           1     -27.644  -6.057 -16.730  0.00  0.00     0.186 C 
BRANCH   5   6
HETATM    6  C           1     -28.170  -7.326 -16.104  0.00  0.00     0.196 C 
HETATM    7  O           1     -27.716  -7.717 -15.007  0.00  0.00    -0.646 OA
HETATM    8  O           1     -29.060  -7.986 -16.683  0.00  0.00    -0.646 OA
ENDBRANCH   5   6
BRANCH   5   9
HETATM    9  C           1     -28.482  -4.876 -16.259  0.00  0.00     0.046 C 
BRANCH   9  10
HETATM   10  C           1     -28.808  -3.979 -17.446  0.00  0.00     0.076 C 
BRANCH  10  11
HETATM   11  S           1     -30.577  -3.576 -17.433  0.00  0.00    -0.173 SA
HETATM   12  C           1     -31.153  -5.225 -16.941  0.00  0.00     0.089 C 
ENDBRANCH  10  11
ENDBRANCH   9  10
ENDBRANCH   5   9
ENDBRANCH   4   5
BRANCH   2  13
HETATM   13  C           1     -26.667  -6.451 -20.413  0.00  0.00     0.311 C 
HETATM   14  C           1     -26.841  -7.898 -20.841  0.00  0.00     0.047 C 
HETATM   15  C           1     -25.432  -8.398 -21.135  0.00  0.00     0.033 C 
HETATM   16  C           1     -24.525  -7.208 -20.869  0.00  0.00     0.271 C 
HETATM   17  N           1     -25.406  -6.055 -21.033  0.00  0.00     0.097 N 
HETATM   18  H           1     -25.535  -5.866 -22.027  0.00  0.00     0.317 HD
ENDBRANCH   2  13
TORSDOF 6
ENDMDL
MODEL 8
REMARK VINA RESULT:      -4.6      2.619      4.633
REMARK  6 active torsions:
REMARK  status: ('A' for Active; 'I' for Inactive)
REMARK    1  A    between atoms: S_2  and  C_10 
REMARK    2  A    between atoms: C_3  and  C_14 
REMARK       I    between atoms: C_8  and  N_15 
REMARK    3  A    between atoms: C_8  and  C_12 
REMARK    4  A    between atoms: C_10  and  C_11 
REMARK    5  A    between atoms: C_11  and  C_14 
REMARK    6  A    between atoms: C_14  and  N_15 
ROOT
HETATM    1  O           1     -28.090  -5.177 -19.147  0.00  0.00    -0.271 OA
HETATM    2  C           1     -27.262  -6.043 -19.299  0.00  0.00     0.251 C 
HETATM    3  H           1     -25.961  -7.334 -18.338  0.00  0.00     0.163 HD
HETATM    4  N           1     -26.654  -6.609 -18.211  0.00  0.00    -0.345 N 
ENDROOT
BRANCH   4   5
HETATM    5  C           1     -27.006  -6.169 -16.875  0.00  0.00     0.186 C 
BRANCH   5   6
HETATM    6  C           1     -25.871  -6.480 -15.929  0.00  0.00     0.196 C 
HETATM    7  O           1     -25.850  -7.568 -15.315  0.00  0.00    -0.646 OA
HETATM    8  O           1     -24.953  -5.648 -15.760  0.00  0.00    -0.646 OA
ENDBRANCH   5   6
BRANCH   5   9
HETATM    9  C           1     -28.262  -6.896 -16.414  0.00  0.00     0.046 C 
BRANCH   9  10
HETATM   10  C           1     -29.168  -5.923 -15.668  0.00  0.00     0.076 C 
BRANCH  10  11
HETATM   11  S           1     -30.591  -5.500 -16.710  0.00  0.00    -0.173 SA
HETATM   12  C           1     -30.674  -7.087 -17.588  0.00  0.00     0.089 C 
ENDBRANCH  10  11
ENDBRANCH   9  10
ENDBRANCH   5   9
ENDBRANCH   4   5
BRANCH   2  13
HETATM   13  C           1     -26.895  -6.500 -20.690  0.00  0.00     0.311 C 
HETATM   14  C           1     -26.463  -7.956 -20.685  0.00  0.00     0.047 C 
HETATM   15  C           1     -24.944  -7.919 -20.570  0.00  0.00     0.033 C 
HETATM   16  C           1     -24.585  -6.443 -20.525  0.00  0.00     0.271 C 
HETATM   17  N           1     -25.717  -5.789 -21.177  0.00  0.00     0.097 N 
HETATM   18  H           1     -25.628  -5.886 -22.188  0.00  0.00     0.317 HD
ENDBRANCH   2  13
TORSDOF 6
ENDMDL
MODEL 9
REMARK VINA RESULT:      -4.6     14.648     16.639
REMARK  6 active torsions:
REMARK  status: ('A' for Active; 'I' for Inactive)
REMARK    1  A    between atoms: S_2  and  C_10 
REMARK    2  A    between atoms: C_3  and  C_14 
REMARK       I    between atoms: C_8  and  N_15 
REMARK    3  A    between atoms: C_8  and  C_12 
REMARK    4  A    between atoms: C_10  and  C_11 
REMARK    5  A    between atoms: C_11  and  C_14 
REMARK    6  A    between atoms: C_14  and  N_15 
ROOT
HETATM    1  O           1     -20.097 -10.207  -2.325  0.00  0.00    -0.271 OA
HETATM    2  C           1     -21.302 -10.276  -2.286  0.00  0.00     0.251 C 
HETATM    3  H           1     -23.069  -9.213  -2.474  0.00  0.00     0.163 HD
HETATM    4  N           1     -22.060  -9.156  -2.506  0.00  0.00    -0.345 N 
ENDROOT
BRANCH   4   5
HETATM    5  C           1     -21.413  -7.888  -2.785  0.00  0.00     0.186 C 
BRANCH   5   6
HETATM    6  C           1     -21.988  -6.823  -1.884  0.00  0.00     0.196 C 
HETATM    7  O           1     -22.426  -7.130  -0.754  0.00  0.00    -0.646 OA
HETATM    8  O           1     -22.025  -5.633  -2.267  0.00  0.00    -0.646 OA
ENDBRANCH   5   6
BRANCH   5   9
HETATM    9  C           1     -21.654  -7.505  -4.239  0.00  0.00     0.046 C 
BRANCH   9  10
HETATM   10  C           1     -20.351  -7.627  -5.019  0.00  0.00     0.076 C 
BRANCH  10  11
HETATM   11  S           1     -20.196  -6.227  -6.163  0.00  0.00    -0.173 SA
HETATM   12  C           1     -21.889  -5.610  -5.953  0.00  0.00     0.089 C 
ENDBRANCH  10  11
ENDBRANCH   9  10
ENDBRANCH   5   9
ENDBRANCH   4   5
BRANCH   2  13
HETATM   13  C           1     -21.975 -11.595  -1.994  0.00  0.00     0.311 C 
HETATM   14  C           1     -23.451 -11.397  -1.699  0.00  0.00     0.047 C 
HETATM   15  C           1     -23.545 -11.302  -0.182  0.00  0.00     0.033 C 
HETATM   16  C           1     -22.117 -11.460   0.314  0.00  0.00     0.271 C 
HETATM   17  N           1     -21.451 -12.184  -0.765  0.00  0.00     0.097 N 
HETATM   18  H           1     -21.690 -13.174  -0.708  0.00  0.00     0.317 HD
ENDBRANCH   2  13
TORSDOF 6
ENDMDL
