MODEL 1
REMARK VINA RESULT:      -6.0      0.000      0.000
REMARK  6 active torsions:
REMARK  status: ('A' for Active; 'I' for Inactive)
REMARK    1  A    between atoms: C_2  and  C_4 
REMARK    2  A    between atoms: C_2  and  C_16 
REMARK    3  A    between atoms: C_2  and  N_6 
REMARK    4  A    between atoms: O_3  and  C_4 
REMARK       I    between atoms: N_6  and  C_11 
REMARK    5  A    between atoms: C_10  and  C_11 
REMARK    6  A    between atoms: C_10  and  N_18 
ROOT
HETATM    1  N           1     -22.067  -4.710  -9.030  0.00  0.00    -0.343 N 
HETATM    2  C           1     -21.638  -4.402  -7.767  0.00  0.00     0.248 C 
HETATM    3  H           1     -22.050  -5.671  -9.349  0.00  0.00     0.163 HD
HETATM    4  O           1     -21.658  -3.255  -7.387  0.00  0.00    -0.271 OA
ENDROOT
BRANCH   1   5
HETATM    5  C           1     -22.544  -3.662  -9.910  0.00  0.00     0.214 C 
BRANCH   5   6
HETATM    6  C           1     -21.742  -3.684 -11.205  0.00  0.00     0.147 C 
HETATM    7  C           1     -20.402  -4.364 -10.960  0.00  0.00     0.042 C 
BRANCH   6   8
HETATM    8  O           1     -22.454  -4.392 -12.183  0.00  0.00    -0.393 OA
HETATM    9  H           1     -21.825  -4.694 -12.816  0.00  0.00     0.210 HD
ENDBRANCH   6   8
ENDBRANCH   5   6
BRANCH   5  10
HETATM   10  C           1     -24.004  -3.890 -10.218  0.00  0.00     0.199 C 
HETATM   11  O           1     -24.526  -5.001  -9.985  0.00  0.00    -0.646 OA
HETATM   12  O           1     -24.692  -2.966 -10.705  0.00  0.00    -0.646 OA
ENDBRANCH   5  10
ENDBRANCH   1   5
BRANCH   2  13
HETATM   13  C           1     -21.141  -5.493  -6.851  0.00  0.00     0.270 C 
HETATM   14  C           1     -20.580  -4.872  -5.578  0.00  0.00     0.050 C 
BRANCH  13  15
HETATM   15  N           1     -20.064  -6.273  -7.543  0.00  0.00    -0.067 N 
HETATM   16  H           1     -20.487  -7.091  -8.035  0.00  0.00     0.275 HD
HETATM   17  H           1     -19.371  -6.611  -6.837  0.00  0.00     0.275 HD
HETATM   18  H           1     -19.581  -5.660  -8.238  0.00  0.00     0.275 HD
ENDBRANCH  13  15
ENDBRANCH   2  13
TORSDOF 6
ENDMDL
MODEL 2
REMARK VINA RESULT:      -4.9      1.647      2.510
REMARK  6 active torsions:
REMARK  status: ('A' for Active; 'I' for Inactive)
REMARK    1  A    between atoms: C_2  and  C_4 
REMARK    2  A    between atoms: C_2  and  C_16 
REMARK    3  A    between atoms: C_2  and  N_6 
REMARK    4  A    between atoms: O_3  and  C_4 
REMARK       I    between atoms: N_6  and  C_11 
REMARK    5  A    between atoms: C_10  and  C_11 
REMARK    6  A    between atoms: C_10  and  N_18 
ROOT
HETATM    1  N           1     -22.262  -4.316  -8.782  0.00  0.00    -0.343 N 
HETATM    2  C           1     -21.493  -5.020  -7.896  0.00  0.00     0.248 C 
HETATM    3  H           1     -22.813  -3.530  -8.460  0.00  0.00     0.163 HD
HETATM    4  O           1     -20.835  -5.958  -8.280  0.00  0.00    -0.271 OA
ENDROOT
BRANCH   1   5
HETATM    5  C           1     -22.289  -4.696 -10.181  0.00  0.00     0.214 C 
BRANCH   5   6
HETATM    6  C           1     -23.728  -4.688 -10.680  0.00  0.00     0.147 C 
HETATM    7  C           1     -24.490  -3.549 -10.014  0.00  0.00     0.042 C 
BRANCH   6   8
HETATM    8  O           1     -23.740  -4.508 -12.070  0.00  0.00    -0.393 OA
HETATM    9  H           1     -24.008  -3.619 -12.230  0.00  0.00     0.210 HD
ENDBRANCH   6   8
ENDBRANCH   5   6
BRANCH   5  10
HETATM   10  C           1     -21.472  -3.715 -10.984  0.00  0.00     0.199 C 
HETATM   11  O           1     -20.302  -4.002 -11.319  0.00  0.00    -0.646 OA
HETATM   12  O           1     -21.965  -2.614 -11.316  0.00  0.00    -0.646 OA
ENDBRANCH   5  10
ENDBRANCH   1   5
BRANCH   2  13
HETATM   13  C           1     -21.464  -4.624  -6.440  0.00  0.00     0.270 C 
HETATM   14  C           1     -20.026  -4.638  -5.937  0.00  0.00     0.050 C 
BRANCH  13  15
HETATM   15  N           1     -22.281  -5.597  -5.643  0.00  0.00    -0.067 N 
HETATM   16  H           1     -22.396  -5.240  -4.669  0.00  0.00     0.275 HD
HETATM   17  H           1     -21.795  -6.523  -5.620  0.00  0.00     0.275 HD
HETATM   18  H           1     -23.220  -5.709  -6.086  0.00  0.00     0.275 HD
ENDBRANCH  13  15
ENDBRANCH   2  13
TORSDOF 6
ENDMDL
MODEL 3
REMARK VINA RESULT:      -4.7     17.464     19.180
REMARK  6 active torsions:
REMARK  status: ('A' for Active; 'I' for Inactive)
REMARK    1  A    between atoms: C_2  and  C_4 
REMARK    2  A    between atoms: C_2  and  C_16 
REMARK    3  A    between atoms: C_2  and  N_6 
REMARK    4  A    between atoms: O_3  and  C_4 
REMARK       I    between atoms: N_6  and  C_11 
REMARK    5  A    between atoms: C_10  and  C_11 
REMARK    6  A    between atoms: C_10  and  N_18 
ROOT
HETATM    1  N           1     -12.302   6.666 -20.417  0.00  0.00    -0.343 N 
HETATM    2  C           1     -12.692   5.951 -21.517  0.00  0.00     0.248 C 
HETATM    3  H           1     -12.952   6.819 -19.657  0.00  0.00     0.163 HD
HETATM    4  O           1     -11.916   5.769 -22.425  0.00  0.00    -0.271 OA
ENDROOT
BRANCH   1   5
HETATM    5  C           1     -10.958   7.205 -20.342  0.00  0.00     0.214 C 
BRANCH   5   6
HETATM    6  C           1     -10.989   8.542 -19.613  0.00  0.00     0.147 C 
HETATM    7  C           1     -12.433   8.928 -19.323  0.00  0.00     0.042 C 
BRANCH   6   8
HETATM    8  O           1     -10.282   8.434 -18.408  0.00  0.00    -0.393 OA
HETATM    9  H           1     -10.884   8.099 -17.766  0.00  0.00     0.210 HD
ENDBRANCH   6   8
ENDBRANCH   5   6
BRANCH   5  10
HETATM   10  C           1     -10.072   6.242 -19.591  0.00  0.00     0.199 C 
HETATM   11  O           1      -8.862   6.144 -19.888  0.00  0.00    -0.646 OA
HETATM   12  O           1     -10.548   5.542 -18.671  0.00  0.00    -0.646 OA
ENDBRANCH   5  10
ENDBRANCH   1   5
BRANCH   2  13
HETATM   13  C           1     -14.091   5.390 -21.596  0.00  0.00     0.270 C 
HETATM   14  C           1     -14.539   4.945 -20.210  0.00  0.00     0.050 C 
BRANCH  13  15
HETATM   15  N           1     -14.104   4.214 -22.526  0.00  0.00    -0.067 N 
HETATM   16  H           1     -14.841   3.539 -22.223  0.00  0.00     0.275 HD
HETATM   17  H           1     -13.171   3.744 -22.508  0.00  0.00     0.275 HD
HETATM   18  H           1     -14.310   4.540 -23.498  0.00  0.00     0.275 HD
ENDBRANCH  13  15
ENDBRANCH   2  13
TORSDOF 6
ENDMDL
MODEL 4
REMARK VINA RESULT:      -4.6      2.305      3.464
REMARK  6 active torsions:
REMARK  status: ('A' for Active; 'I' for Inactive)
REMARK    1  A    between atoms: C_2  and  C_4 
REMARK    2  A    between atoms: C_2  and  C_16 
REMARK    3  A    between atoms: C_2  and  N_6 
REMARK    4  A    between atoms: O_3  and  C_4 
REMARK       I    between atoms: N_6  and  C_11 
REMARK    5  A    between atoms: C_10  and  C_11 
REMARK    6  A    between atoms: C_10  and  N_18 
ROOT
HETATM    1  N           1     -21.880  -4.915  -7.080  0.00  0.00    -0.343 N 
HETATM    2  C           1     -21.362  -5.999  -6.423  0.00  0.00     0.248 C 
HETATM    3  H           1     -22.300  -4.159  -6.555  0.00  0.00     0.163 HD
HETATM    4  O           1     -20.860  -6.901  -7.051  0.00  0.00    -0.271 OA
ENDROOT
BRANCH   1   5
HETATM    5  C           1     -21.828  -4.851  -8.528  0.00  0.00     0.214 C 
BRANCH   5   6
HETATM    6  C           1     -23.043  -4.093  -9.045  0.00  0.00     0.147 C 
HETATM    7  C           1     -23.649  -4.849 -10.221  0.00  0.00     0.042 C 
BRANCH   6   8
HETATM    8  O           1     -23.994  -3.980  -8.022  0.00  0.00    -0.393 OA
HETATM    9  H           1     -24.213  -3.067  -7.950  0.00  0.00     0.210 HD
ENDBRANCH   6   8
ENDBRANCH   5   6
BRANCH   5  10
HETATM   10  C           1     -20.569  -4.137  -8.954  0.00  0.00     0.199 C 
HETATM   11  O           1     -20.312  -3.993 -10.169  0.00  0.00    -0.646 OA
HETATM   12  O           1     -19.782  -3.688  -8.092  0.00  0.00    -0.646 OA
ENDBRANCH   5  10
ENDBRANCH   1   5
BRANCH   2  13
HETATM   13  C           1     -21.416  -6.065  -4.917  0.00  0.00     0.270 C 
HETATM   14  C           1     -20.630  -7.278  -4.433  0.00  0.00     0.050 C 
BRANCH  13  15
HETATM   15  N           1     -22.844  -6.186  -4.474  0.00  0.00    -0.067 N 
HETATM   16  H           1     -23.471  -5.797  -5.213  0.00  0.00     0.275 HD
HETATM   17  H           1     -22.979  -5.654  -3.585  0.00  0.00     0.275 HD
HETATM   18  H           1     -23.075  -7.193  -4.316  0.00  0.00     0.275 HD
ENDBRANCH  13  15
ENDBRANCH   2  13
TORSDOF 6
ENDMDL
MODEL 5
REMARK VINA RESULT:      -4.6     16.980     18.450
REMARK  6 active torsions:
REMARK  status: ('A' for Active; 'I' for Inactive)
REMARK    1  A    between atoms: C_2  and  C_4 
REMARK    2  A    between atoms: C_2  and  C_16 
REMARK    3  A    between atoms: C_2  and  N_6 
REMARK    4  A    between atoms: O_3  and  C_4 
REMARK       I    between atoms: N_6  and  C_11 
REMARK    5  A    between atoms: C_10  and  C_11 
REMARK    6  A    between atoms: C_10  and  N_18 
ROOT
HETATM    1  N           1     -11.809   5.407 -20.677  0.00  0.00    -0.343 N 
HETATM    2  C           1     -11.279   6.625 -21.007  0.00  0.00     0.248 C 
HETATM    3  H           1     -11.461   4.907 -19.868  0.00  0.00     0.163 HD
HETATM    4  O           1     -11.695   7.222 -21.972  0.00  0.00    -0.271 OA
ENDROOT
BRANCH   1   5
HETATM    5  C           1     -12.867   4.833 -21.484  0.00  0.00     0.214 C 
BRANCH   5   6
HETATM    6  C           1     -12.561   3.365 -21.752  0.00  0.00     0.147 C 
HETATM    7  C           1     -11.451   2.901 -20.818  0.00  0.00     0.042 C 
BRANCH   6   8
HETATM    8  O           1     -13.713   2.599 -21.528  0.00  0.00    -0.393 OA
HETATM    9  H           1     -13.453   1.695 -21.571  0.00  0.00     0.210 HD
ENDBRANCH   6   8
ENDBRANCH   5   6
BRANCH   5  10
HETATM   10  C           1     -14.179   4.948 -20.748  0.00  0.00     0.199 C 
HETATM   11  O           1     -15.214   5.282 -21.364  0.00  0.00    -0.646 OA
HETATM   12  O           1     -14.231   4.707 -19.522  0.00  0.00    -0.646 OA
ENDBRANCH   5  10
ENDBRANCH   1   5
BRANCH   2  13
HETATM   13  C           1     -10.178   7.223 -20.166  0.00  0.00     0.270 C 
HETATM   14  C           1      -9.452   8.296 -20.967  0.00  0.00     0.050 C 
BRANCH  13  15
HETATM   15  N           1      -9.207   6.147 -19.779  0.00  0.00    -0.067 N 
HETATM   16  H           1      -9.486   5.247 -20.231  0.00  0.00     0.275 HD
HETATM   17  H           1      -9.212   6.032 -18.740  0.00  0.00     0.275 HD
HETATM   18  H           1      -8.248   6.413 -20.095  0.00  0.00     0.275 HD
ENDBRANCH  13  15
ENDBRANCH   2  13
TORSDOF 6
ENDMDL
MODEL 6
REMARK VINA RESULT:      -4.5      2.190      4.867
REMARK  6 active torsions:
REMARK  status: ('A' for Active; 'I' for Inactive)
REMARK    1  A    between atoms: C_2  and  C_4 
REMARK    2  A    between atoms: C_2  and  C_16 
REMARK    3  A    between atoms: C_2  and  N_6 
REMARK    4  A    between atoms: O_3  and  C_4 
REMARK       I    between atoms: N_6  and  C_11 
REMARK    5  A    between atoms: C_10  and  C_11 
REMARK    6  A    between atoms: C_10  and  N_18 
ROOT
HETATM    1  N           1     -22.126  -5.160  -8.250  0.00  0.00    -0.343 N 
HETATM    2  C           1     -22.932  -4.285  -8.927  0.00  0.00     0.248 C 
HETATM    3  H           1     -22.283  -6.157  -8.330  0.00  0.00     0.163 HD
HETATM    4  O           1     -22.745  -3.095  -8.832  0.00  0.00    -0.271 OA
ENDROOT
BRANCH   1   5
HETATM    5  C           1     -21.050  -4.659  -7.418  0.00  0.00     0.214 C 
BRANCH   5   6
HETATM    6  C           1     -20.842  -5.601  -6.239  0.00  0.00     0.147 C 
HETATM    7  C           1     -22.195  -6.026  -5.684  0.00  0.00     0.042 C 
BRANCH   6   8
HETATM    8  O           1     -20.135  -6.734  -6.665  0.00  0.00    -0.393 OA
HETATM    9  H           1     -20.754  -7.298  -7.096  0.00  0.00     0.210 HD
ENDBRANCH   6   8
ENDBRANCH   5   6
BRANCH   5  10
HETATM   10  C           1     -19.781  -4.581  -8.230  0.00  0.00     0.199 C 
HETATM   11  O           1     -18.722  -4.184  -7.699  0.00  0.00    -0.646 OA
HETATM   12  O           1     -19.789  -4.915  -9.435  0.00  0.00    -0.646 OA
ENDBRANCH   5  10
ENDBRANCH   1   5
BRANCH   2  13
HETATM   13  C           1     -24.052  -4.806  -9.794  0.00  0.00     0.270 C 
HETATM   14  C           1     -23.593  -4.853 -11.245  0.00  0.00     0.050 C 
BRANCH  13  15
HETATM   15  N           1     -25.238  -3.895  -9.675  0.00  0.00    -0.067 N 
HETATM   16  H           1     -25.567  -3.625 -10.629  0.00  0.00     0.275 HD
HETATM   17  H           1     -24.967  -3.038  -9.143  0.00  0.00     0.275 HD
HETATM   18  H           1     -26.007  -4.390  -9.169  0.00  0.00     0.275 HD
ENDBRANCH  13  15
ENDBRANCH   2  13
TORSDOF 6
ENDMDL
MODEL 7
REMARK VINA RESULT:      -4.5      3.255      4.888
REMARK  6 active torsions:
REMARK  status: ('A' for Active; 'I' for Inactive)
REMARK    1  A    between atoms: C_2  and  C_4 
REMARK    2  A    between atoms: C_2  and  C_16 
REMARK    3  A    between atoms: C_2  and  N_6 
REMARK    4  A    between atoms: O_3  and  C_4 
REMARK       I    between atoms: N_6  and  C_11 
REMARK    5  A    between atoms: C_10  and  C_11 
REMARK    6  A    between atoms: C_10  and  N_18 
ROOT
HETATM    1  N           1     -21.609  -5.532  -5.050  0.00  0.00    -0.343 N 
HETATM    2  C           1     -21.384  -6.678  -4.336  0.00  0.00     0.248 C 
HETATM    3  H           1     -21.742  -4.652  -4.566  0.00  0.00     0.163 HD
HETATM    4  O           1     -21.225  -7.727  -4.914  0.00  0.00    -0.271 OA
ENDROOT
BRANCH   1   5
HETATM    5  C           1     -21.656  -5.577  -6.498  0.00  0.00     0.214 C 
BRANCH   5   6
HETATM    6  C           1     -22.501  -4.419  -7.013  0.00  0.00     0.147 C 
HETATM    7  C           1     -22.491  -4.422  -8.536  0.00  0.00     0.042 C 
BRANCH   6   8
HETATM    8  O           1     -23.817  -4.561  -6.554  0.00  0.00    -0.393 OA
HETATM    9  H           1     -24.309  -3.837  -6.903  0.00  0.00     0.210 HD
ENDBRANCH   6   8
ENDBRANCH   5   6
BRANCH   5  10
HETATM   10  C           1     -20.256  -5.464  -7.050  0.00  0.00     0.199 C 
HETATM   11  O           1     -19.756  -6.418  -7.684  0.00  0.00    -0.646 OA
HETATM   12  O           1     -19.597  -4.416  -6.874  0.00  0.00    -0.646 OA
ENDBRANCH   5  10
ENDBRANCH   1   5
BRANCH   2  13
HETATM   13  C           1     -21.335  -6.631  -2.828  0.00  0.00     0.270 C 
HETATM   14  C           1     -21.379  -8.049  -2.274  0.00  0.00     0.050 C 
BRANCH  13  15
HETATM   15  N           1     -22.512  -5.857  -2.315  0.00  0.00    -0.067 N 
HETATM   16  H           1     -22.178  -4.996  -1.829  0.00  0.00     0.275 HD
HETATM   17  H           1     -23.053  -6.449  -1.644  0.00  0.00     0.275 HD
HETATM   18  H           1     -23.128  -5.588  -3.115  0.00  0.00     0.275 HD
ENDBRANCH  13  15
ENDBRANCH   2  13
TORSDOF 6
ENDMDL
MODEL 8
REMARK VINA RESULT:      -4.3      2.452      3.360
REMARK  6 active torsions:
REMARK  status: ('A' for Active; 'I' for Inactive)
REMARK    1  A    between atoms: C_2  and  C_4 
REMARK    2  A    between atoms: C_2  and  C_16 
REMARK    3  A    between atoms: C_2  and  N_6 
REMARK    4  A    between atoms: O_3  and  C_4 
REMARK       I    between atoms: N_6  and  C_11 
REMARK    5  A    between atoms: C_10  and  C_11 
REMARK    6  A    between atoms: C_10  and  N_18 
ROOT
HETATM    1  N           1     -21.082  -5.961  -6.933  0.00  0.00    -0.343 N 
HETATM    2  C           1     -21.090  -6.455  -5.656  0.00  0.00     0.248 C 
HETATM    3  H           1     -21.052  -6.596  -7.721  0.00  0.00     0.163 HD
HETATM    4  O           1     -21.125  -5.696  -4.716  0.00  0.00    -0.271 OA
ENDROOT
BRANCH   1   5
HETATM    5  C           1     -21.115  -4.529  -7.157  0.00  0.00     0.214 C 
BRANCH   5   6
HETATM    6  C           1     -19.984  -4.137  -8.100  0.00  0.00     0.147 C 
HETATM    7  C           1     -18.647  -4.340  -7.399  0.00  0.00     0.042 C 
BRANCH   6   8
HETATM    8  O           1     -20.037  -4.937  -9.249  0.00  0.00    -0.393 OA
HETATM    9  H           1     -19.686  -4.425  -9.957  0.00  0.00     0.210 HD
ENDBRANCH   6   8
ENDBRANCH   5   6
BRANCH   5  10
HETATM   10  C           1     -22.439  -4.147  -7.772  0.00  0.00     0.199 C 
HETATM   11  O           1     -22.469  -3.530  -8.858  0.00  0.00    -0.646 OA
HETATM   12  O           1     -23.506  -4.448  -7.194  0.00  0.00    -0.646 OA
ENDBRANCH   5  10
ENDBRANCH   1   5
BRANCH   2  13
HETATM   13  C           1     -21.055  -7.945  -5.423  0.00  0.00     0.270 C 
HETATM   14  C           1     -21.546  -8.251  -4.014  0.00  0.00     0.050 C 
BRANCH  13  15
HETATM   15  N           1     -19.649  -8.442  -5.581  0.00  0.00    -0.067 N 
HETATM   16  H           1     -19.027  -7.648  -5.851  0.00  0.00     0.275 HD
HETATM   17  H           1     -19.621  -9.176  -6.325  0.00  0.00     0.275 HD
HETATM   18  H           1     -19.321  -8.851  -4.677  0.00  0.00     0.275 HD
ENDBRANCH  13  15
ENDBRANCH   2  13
TORSDOF 6
ENDMDL
MODEL 9
REMARK VINA RESULT:      -4.3      3.399      6.054
REMARK  6 active torsions:
REMARK  status: ('A' for Active; 'I' for Inactive)
REMARK    1  A    between atoms: C_2  and  C_4 
REMARK    2  A    between atoms: C_2  and  C_16 
REMARK    3  A    between atoms: C_2  and  N_6 
REMARK    4  A    between atoms: O_3  and  C_4 
REMARK       I    between atoms: N_6  and  C_11 
REMARK    5  A    between atoms: C_10  and  C_11 
REMARK    6  A    between atoms: C_10  and  N_18 
ROOT
HETATM    1  N           1     -21.112  -6.561  -6.495  0.00  0.00    -0.343 N 
HETATM    2  C           1     -21.001  -5.252  -6.878  0.00  0.00     0.248 C 
HETATM    3  H           1     -21.487  -7.246  -7.138  0.00  0.00     0.163 HD
HETATM    4  O           1     -20.552  -4.434  -6.109  0.00  0.00    -0.271 OA
ENDROOT
BRANCH   1   5
HETATM    5  C           1     -20.692  -6.967  -5.167  0.00  0.00     0.214 C 
BRANCH   5   6
HETATM    6  C           1     -21.877  -6.885  -4.215  0.00  0.00     0.147 C 
HETATM    7  C           1     -21.452  -6.177  -2.935  0.00  0.00     0.042 C 
BRANCH   6   8
HETATM    8  O           1     -22.917  -6.169  -4.823  0.00  0.00    -0.393 OA
HETATM    9  H           1     -22.641  -5.978  -5.703  0.00  0.00     0.210 HD
ENDBRANCH   6   8
ENDBRANCH   5   6
BRANCH   5  10
HETATM   10  C           1     -20.179  -8.385  -5.214  0.00  0.00     0.199 C 
HETATM   11  O           1     -20.838  -9.269  -5.802  0.00  0.00    -0.646 OA
HETATM   12  O           1     -19.094  -8.676  -4.664  0.00  0.00    -0.646 OA
ENDBRANCH   5  10
ENDBRANCH   1   5
BRANCH   2  13
HETATM   13  C           1     -21.438  -4.830  -8.259  0.00  0.00     0.270 C 
HETATM   14  C           1     -20.219  -4.416  -9.074  0.00  0.00     0.050 C 
BRANCH  13  15
HETATM   15  N           1     -22.382  -3.670  -8.151  0.00  0.00    -0.067 N 
HETATM   16  H           1     -22.224  -3.016  -8.949  0.00  0.00     0.275 HD
HETATM   17  H           1     -22.215  -3.168  -7.249  0.00  0.00     0.275 HD
HETATM   18  H           1     -23.367  -4.019  -8.176  0.00  0.00     0.275 HD
ENDBRANCH  13  15
ENDBRANCH   2  13
TORSDOF 6
ENDMDL
