MODEL 1
REMARK VINA RESULT:      -6.5      0.000      0.000
REMARK  8 active torsions:
REMARK  status: ('A' for Active; 'I' for Inactive)
REMARK    1  A    between atoms: N_2  and  C_18 
REMARK       I    between atoms: N_2  and  C_3 
REMARK    2  A    between atoms: C_3  and  C_4 
REMARK    3  A    between atoms: C_4  and  C_5 
REMARK    4  A    between atoms: C_4  and  N_14 
REMARK    5  A    between atoms: C_5  and  C_9 
REMARK    6  A    between atoms: C_17  and  C_18 
REMARK    7  A    between atoms: C_18  and  C_20 
REMARK    8  A    between atoms: O_19  and  C_20 
ROOT
HETATM    1  N           1     -22.139  -4.775  -9.056  0.00  0.00    -0.343 N 
HETATM    2  C           1     -21.696  -4.521  -7.786  0.00  0.00     0.249 C 
HETATM    3  H           1     -22.146  -5.724  -9.409  0.00  0.00     0.163 HD
HETATM    4  O           1     -21.688  -3.389  -7.365  0.00  0.00    -0.271 OA
ENDROOT
BRANCH   2   5
HETATM    5  C           1     -21.220  -5.655  -6.911  0.00  0.00     0.284 C 
BRANCH   5   6
HETATM    6  C           1     -20.922  -5.128  -5.513  0.00  0.00     0.155 C 
BRANCH   6   7
HETATM    7  C           1     -21.170  -6.219  -4.500  0.00  0.00     0.175 C 
HETATM    8  O           1     -20.567  -7.310  -4.597  0.00  0.00    -0.648 OA
HETATM    9  O           1     -21.979  -6.032  -3.565  0.00  0.00    -0.648 OA
ENDBRANCH   6   7
ENDBRANCH   5   6
BRANCH   5  10
HETATM   10  N           1     -19.974  -6.247  -7.497  0.00  0.00    -0.066 N 
HETATM   11  H           1     -19.172  -6.085  -6.847  0.00  0.00     0.275 HD
HETATM   12  H           1     -20.108  -7.275  -7.634  0.00  0.00     0.275 HD
HETATM   13  H           1     -19.772  -5.795  -8.418  0.00  0.00     0.275 HD
ENDBRANCH   5  10
ENDBRANCH   2   5
BRANCH   1  14
HETATM   14  C           1     -22.596  -3.686  -9.896  0.00  0.00     0.214 C 
BRANCH  14  15
HETATM   15  C           1     -24.063  -3.866 -10.198  0.00  0.00     0.199 C 
HETATM   16  O           1     -24.711  -2.939 -10.731  0.00  0.00    -0.646 OA
HETATM   17  O           1     -24.632  -4.943  -9.915  0.00  0.00    -0.646 OA
ENDBRANCH  14  15
BRANCH  14  18
HETATM   18  C           1     -21.806  -3.685 -11.198  0.00  0.00     0.147 C 
HETATM   19  C           1     -20.428  -4.287 -10.956  0.00  0.00     0.042 C 
BRANCH  18  20
HETATM   20  O           1     -22.486  -4.445 -12.159  0.00  0.00    -0.393 OA
HETATM   21  H           1     -22.931  -3.838 -12.725  0.00  0.00     0.210 HD
ENDBRANCH  18  20
ENDBRANCH  14  18
ENDBRANCH   1  14
TORSDOF 8
ENDMDL
MODEL 2
REMARK VINA RESULT:      -6.1     12.638     14.485
REMARK  8 active torsions:
REMARK  status: ('A' for Active; 'I' for Inactive)
REMARK    1  A    between atoms: N_2  and  C_18 
REMARK       I    between atoms: N_2  and  C_3 
REMARK    2  A    between atoms: C_3  and  C_4 
REMARK    3  A    between atoms: C_4  and  C_5 
REMARK    4  A    between atoms: C_4  and  N_14 
REMARK    5  A    between atoms: C_5  and  C_9 
REMARK    6  A    between atoms: C_17  and  C_18 
REMARK    7  A    between atoms: C_18  and  C_20 
REMARK    8  A    between atoms: O_19  and  C_20 
ROOT
HETATM    1  N           1     -35.449  -1.841 -11.513  0.00  0.00    -0.343 N 
HETATM    2  C           1     -34.262  -2.263 -10.978  0.00  0.00     0.249 C 
HETATM    3  H           1     -36.114  -2.518 -11.865  0.00  0.00     0.163 HD
HETATM    4  O           1     -33.468  -1.456 -10.557  0.00  0.00    -0.271 OA
ENDROOT
BRANCH   2   5
HETATM    5  C           1     -33.946  -3.737 -10.911  0.00  0.00     0.284 C 
BRANCH   5   6
HETATM    6  C           1     -33.264  -4.170 -12.203  0.00  0.00     0.155 C 
BRANCH   6   7
HETATM    7  C           1     -34.280  -4.219 -13.317  0.00  0.00     0.175 C 
HETATM    8  O           1     -34.383  -3.259 -14.111  0.00  0.00    -0.648 OA
HETATM    9  O           1     -35.018  -5.219 -13.447  0.00  0.00    -0.648 OA
ENDBRANCH   6   7
ENDBRANCH   5   6
BRANCH   5  10
HETATM   10  N           1     -35.217  -4.512 -10.735  0.00  0.00    -0.066 N 
HETATM   11  H           1     -35.684  -4.633 -11.661  0.00  0.00     0.275 HD
HETATM   12  H           1     -34.999  -5.452 -10.331  0.00  0.00     0.275 HD
HETATM   13  H           1     -35.855  -3.994 -10.088  0.00  0.00     0.275 HD
ENDBRANCH   5  10
ENDBRANCH   2   5
BRANCH   1  14
HETATM   14  C           1     -35.752  -0.424 -11.577  0.00  0.00     0.214 C 
BRANCH  14  15
HETATM   15  C           1     -36.941  -0.125 -10.697  0.00  0.00     0.199 C 
HETATM   16  O           1     -36.842   0.714  -9.776  0.00  0.00    -0.646 OA
HETATM   17  O           1     -38.026  -0.717 -10.889  0.00  0.00    -0.646 OA
ENDBRANCH  14  15
BRANCH  14  18
HETATM   18  C           1     -36.074  -0.040 -13.015  0.00  0.00     0.147 C 
HETATM   19  C           1     -34.821   0.505 -13.687  0.00  0.00     0.042 C 
BRANCH  18  20
HETATM   20  O           1     -36.525  -1.170 -13.711  0.00  0.00    -0.393 OA
HETATM   21  H           1     -35.904  -1.859 -13.546  0.00  0.00     0.210 HD
ENDBRANCH  18  20
ENDBRANCH  14  18
ENDBRANCH   1  14
TORSDOF 8
ENDMDL
MODEL 3
REMARK VINA RESULT:      -6.1     12.349     14.528
REMARK  8 active torsions:
REMARK  status: ('A' for Active; 'I' for Inactive)
REMARK    1  A    between atoms: N_2  and  C_18 
REMARK       I    between atoms: N_2  and  C_3 
REMARK    2  A    between atoms: C_3  and  C_4 
REMARK    3  A    between atoms: C_4  and  C_5 
REMARK    4  A    between atoms: C_4  and  N_14 
REMARK    5  A    between atoms: C_5  and  C_9 
REMARK    6  A    between atoms: C_17  and  C_18 
REMARK    7  A    between atoms: C_18  and  C_20 
REMARK    8  A    between atoms: O_19  and  C_20 
ROOT
HETATM    1  N           1     -35.039  -1.261 -13.930  0.00  0.00    -0.343 N 
HETATM    2  C           1     -35.350  -1.766 -12.696  0.00  0.00     0.249 C 
HETATM    3  H           1     -34.111  -1.395 -14.312  0.00  0.00     0.163 HD
HETATM    4  O           1     -36.457  -1.607 -12.241  0.00  0.00    -0.271 OA
ENDROOT
BRANCH   2   5
HETATM    5  C           1     -34.310  -2.522 -11.907  0.00  0.00     0.284 C 
BRANCH   5   6
HETATM    6  C           1     -34.954  -3.735 -11.248  0.00  0.00     0.155 C 
BRANCH   6   7
HETATM    7  C           1     -33.903  -4.786 -10.989  0.00  0.00     0.175 C 
HETATM    8  O           1     -32.769  -4.676 -11.504  0.00  0.00    -0.648 OA
HETATM    9  O           1     -34.165  -5.766 -10.258  0.00  0.00    -0.648 OA
ENDBRANCH   6   7
ENDBRANCH   5   6
BRANCH   5  10
HETATM   10  N           1     -33.737  -1.626 -10.850  0.00  0.00    -0.066 N 
HETATM   11  H           1     -32.788  -1.970 -10.578  0.00  0.00     0.275 HD
HETATM   12  H           1     -33.661  -0.653 -11.223  0.00  0.00     0.275 HD
HETATM   13  H           1     -34.362  -1.632 -10.012  0.00  0.00     0.275 HD
ENDBRANCH   5  10
ENDBRANCH   2   5
BRANCH   1  14
HETATM   14  C           1     -36.038  -0.535 -14.689  0.00  0.00     0.214 C 
BRANCH  14  15
HETATM   15  C           1     -35.911  -0.884 -16.152  0.00  0.00     0.199 C 
HETATM   16  O           1     -34.827  -1.316 -16.599  0.00  0.00    -0.646 OA
HETATM   17  O           1     -36.890  -0.742 -16.916  0.00  0.00    -0.646 OA
ENDBRANCH  14  15
BRANCH  14  18
HETATM   18  C           1     -35.826   0.962 -14.504  0.00  0.00     0.147 C 
HETATM   19  C           1     -34.458   1.206 -13.879  0.00  0.00     0.042 C 
BRANCH  18  20
HETATM   20  O           1     -35.893   1.601 -15.749  0.00  0.00    -0.393 OA
HETATM   21  H           1     -36.721   2.050 -15.783  0.00  0.00     0.210 HD
ENDBRANCH  18  20
ENDBRANCH  14  18
ENDBRANCH   1  14
TORSDOF 8
ENDMDL
MODEL 4
REMARK VINA RESULT:      -6.1     13.366     15.218
REMARK  8 active torsions:
REMARK  status: ('A' for Active; 'I' for Inactive)
REMARK    1  A    between atoms: N_2  and  C_18 
REMARK       I    between atoms: N_2  and  C_3 
REMARK    2  A    between atoms: C_3  and  C_4 
REMARK    3  A    between atoms: C_4  and  C_5 
REMARK    4  A    between atoms: C_4  and  N_14 
REMARK    5  A    between atoms: C_5  and  C_9 
REMARK    6  A    between atoms: C_17  and  C_18 
REMARK    7  A    between atoms: C_18  and  C_20 
REMARK    8  A    between atoms: O_19  and  C_20 
ROOT
HETATM    1  N           1     -35.409  -1.010 -14.213  0.00  0.00    -0.343 N 
HETATM    2  C           1     -34.971  -0.461 -13.038  0.00  0.00     0.249 C 
HETATM    3  H           1     -35.410  -2.016 -14.331  0.00  0.00     0.163 HD
HETATM    4  O           1     -34.970   0.739 -12.896  0.00  0.00    -0.271 OA
ENDROOT
BRANCH   2   5
HETATM    5  C           1     -34.491  -1.354 -11.920  0.00  0.00     0.284 C 
BRANCH   5   6
HETATM    6  C           1     -34.668  -2.812 -12.322  0.00  0.00     0.155 C 
BRANCH   6   7
HETATM    7  C           1     -34.930  -3.645 -11.091  0.00  0.00     0.175 C 
HETATM    8  O           1     -36.103  -3.928 -10.765  0.00  0.00    -0.648 OA
HETATM    9  O           1     -33.973  -4.053 -10.397  0.00  0.00    -0.648 OA
ENDBRANCH   6   7
ENDBRANCH   5   6
BRANCH   5  10
HETATM   10  N           1     -35.290  -1.076 -10.682  0.00  0.00    -0.066 N 
HETATM   11  H           1     -35.178  -1.868 -10.010  0.00  0.00     0.275 HD
HETATM   12  H           1     -34.950  -0.193 -10.239  0.00  0.00     0.275 HD
HETATM   13  H           1     -36.300  -0.974 -10.935  0.00  0.00     0.275 HD
ENDBRANCH   5  10
ENDBRANCH   2   5
BRANCH   1  14
HETATM   14  C           1     -35.870  -0.153 -15.287  0.00  0.00     0.214 C 
BRANCH  14  15
HETATM   15  C           1     -37.373  -0.029 -15.221  0.00  0.00     0.199 C 
HETATM   16  O           1     -38.040  -0.859 -14.567  0.00  0.00    -0.646 OA
HETATM   17  O           1     -37.950   0.905 -15.820  0.00  0.00    -0.646 OA
ENDBRANCH  14  15
BRANCH  14  18
HETATM   18  C           1     -35.468  -0.757 -16.626  0.00  0.00     0.147 C 
HETATM   19  C           1     -34.933  -2.166 -16.405  0.00  0.00     0.042 C 
BRANCH  18  20
HETATM   20  O           1     -36.586  -0.808 -17.470  0.00  0.00    -0.393 OA
HETATM   21  H           1     -37.329  -0.536 -16.959  0.00  0.00     0.210 HD
ENDBRANCH  18  20
ENDBRANCH  14  18
ENDBRANCH   1  14
TORSDOF 8
ENDMDL
MODEL 5
REMARK VINA RESULT:      -5.9     12.580     14.174
REMARK  8 active torsions:
REMARK  status: ('A' for Active; 'I' for Inactive)
REMARK    1  A    between atoms: N_2  and  C_18 
REMARK       I    between atoms: N_2  and  C_3 
REMARK    2  A    between atoms: C_3  and  C_4 
REMARK    3  A    between atoms: C_4  and  C_5 
REMARK    4  A    between atoms: C_4  and  N_14 
REMARK    5  A    between atoms: C_5  and  C_9 
REMARK    6  A    between atoms: C_17  and  C_18 
REMARK    7  A    between atoms: C_18  and  C_20 
REMARK    8  A    between atoms: O_19  and  C_20 
ROOT
HETATM    1  N           1     -35.516  -1.931 -12.227  0.00  0.00    -0.343 N 
HETATM    2  C           1     -34.436  -2.538 -11.645  0.00  0.00     0.249 C 
HETATM    3  H           1     -36.154  -2.473 -12.796  0.00  0.00     0.163 HD
HETATM    4  O           1     -33.674  -1.891 -10.965  0.00  0.00    -0.271 OA
ENDROOT
BRANCH   2   5
HETATM    5  C           1     -34.198  -4.014 -11.849  0.00  0.00     0.284 C 
BRANCH   5   6
HETATM    6  C           1     -34.060  -4.699 -10.496  0.00  0.00     0.155 C 
BRANCH   6   7
HETATM    7  C           1     -34.569  -6.116 -10.595  0.00  0.00     0.175 C 
HETATM    8  O           1     -34.747  -6.790  -9.557  0.00  0.00    -0.648 OA
HETATM    9  O           1     -34.811  -6.616 -11.715  0.00  0.00    -0.648 OA
ENDBRANCH   6   7
ENDBRANCH   5   6
BRANCH   5  10
HETATM   10  N           1     -32.939  -4.211 -12.638  0.00  0.00    -0.066 N 
HETATM   11  H           1     -33.013  -3.701 -13.548  0.00  0.00     0.275 HD
HETATM   12  H           1     -32.126  -3.839 -12.097  0.00  0.00     0.275 HD
HETATM   13  H           1     -32.799  -5.231 -12.822  0.00  0.00     0.275 HD
ENDBRANCH   5  10
ENDBRANCH   2   5
BRANCH   1  14
HETATM   14  C           1     -35.745  -0.513 -12.031  0.00  0.00     0.214 C 
BRANCH  14  15
HETATM   15  C           1     -36.776  -0.316 -10.947  0.00  0.00     0.199 C 
HETATM   16  O           1     -36.522   0.420  -9.969  0.00  0.00    -0.646 OA
HETATM   17  O           1     -37.885  -0.888 -11.028  0.00  0.00    -0.646 OA
ENDBRANCH  14  15
BRANCH  14  18
HETATM   18  C           1     -36.248   0.104 -13.330  0.00  0.00     0.147 C 
HETATM   19  C           1     -35.062   0.434 -14.227  0.00  0.00     0.042 C 
BRANCH  18  20
HETATM   20  O           1     -37.090  -0.806 -13.983  0.00  0.00    -0.393 OA
HETATM   21  H           1     -37.764  -0.302 -14.405  0.00  0.00     0.210 HD
ENDBRANCH  18  20
ENDBRANCH  14  18
ENDBRANCH   1  14
TORSDOF 8
ENDMDL
MODEL 6
REMARK VINA RESULT:      -5.5      1.706      2.473
REMARK  8 active torsions:
REMARK  status: ('A' for Active; 'I' for Inactive)
REMARK    1  A    between atoms: N_2  and  C_18 
REMARK       I    between atoms: N_2  and  C_3 
REMARK    2  A    between atoms: C_3  and  C_4 
REMARK    3  A    between atoms: C_4  and  C_5 
REMARK    4  A    between atoms: C_4  and  N_14 
REMARK    5  A    between atoms: C_5  and  C_9 
REMARK    6  A    between atoms: C_17  and  C_18 
REMARK    7  A    between atoms: C_18  and  C_20 
REMARK    8  A    between atoms: O_19  and  C_20 
ROOT
HETATM    1  N           1     -22.198  -4.333  -9.180  0.00  0.00    -0.343 N 
HETATM    2  C           1     -21.192  -4.641  -8.305  0.00  0.00     0.249 C 
HETATM    3  H           1     -23.035  -3.870  -8.847  0.00  0.00     0.163 HD
HETATM    4  O           1     -20.193  -5.192  -8.703  0.00  0.00    -0.271 OA
ENDROOT
BRANCH   2   5
HETATM    5  C           1     -21.329  -4.290  -6.844  0.00  0.00     0.284 C 
BRANCH   5   6
HETATM    6  C           1     -20.188  -4.926  -6.059  0.00  0.00     0.155 C 
BRANCH   6   7
HETATM    7  C           1     -20.680  -6.183  -5.384  0.00  0.00     0.175 C 
HETATM    8  O           1     -21.072  -6.143  -4.198  0.00  0.00    -0.648 OA
HETATM    9  O           1     -20.695  -7.264  -6.011  0.00  0.00    -0.648 OA
ENDBRANCH   6   7
ENDBRANCH   5   6
BRANCH   5  10
HETATM   10  N           1     -22.638  -4.807  -6.327  0.00  0.00    -0.066 N 
HETATM   11  H           1     -23.413  -4.193  -6.666  0.00  0.00     0.275 HD
HETATM   12  H           1     -22.789  -5.781  -6.673  0.00  0.00     0.275 HD
HETATM   13  H           1     -22.625  -4.805  -5.282  0.00  0.00     0.275 HD
ENDBRANCH   5  10
ENDBRANCH   2   5
BRANCH   1  14
HETATM   14  C           1     -22.066  -4.669 -10.584  0.00  0.00     0.214 C 
BRANCH  14  15
HETATM   15  C           1     -21.385  -3.536 -11.311  0.00  0.00     0.199 C 
HETATM   16  O           1     -22.018  -2.491 -11.573  0.00  0.00    -0.646 OA
HETATM   17  O           1     -20.187  -3.643 -11.651  0.00  0.00    -0.646 OA
ENDBRANCH  14  15
BRANCH  14  18
HETATM   18  C           1     -23.449  -4.899 -11.182  0.00  0.00     0.147 C 
HETATM   19  C           1     -24.455  -3.982 -10.498  0.00  0.00     0.042 C 
BRANCH  18  20
HETATM   20  O           1     -23.417  -4.618 -12.554  0.00  0.00    -0.393 OA
HETATM   21  H           1     -24.297  -4.713 -12.875  0.00  0.00     0.210 HD
ENDBRANCH  18  20
ENDBRANCH  14  18
ENDBRANCH   1  14
TORSDOF 8
ENDMDL
MODEL 7
REMARK VINA RESULT:      -5.2     14.846     15.785
REMARK  8 active torsions:
REMARK  status: ('A' for Active; 'I' for Inactive)
REMARK    1  A    between atoms: N_2  and  C_18 
REMARK       I    between atoms: N_2  and  C_3 
REMARK    2  A    between atoms: C_3  and  C_4 
REMARK    3  A    between atoms: C_4  and  C_5 
REMARK    4  A    between atoms: C_4  and  N_14 
REMARK    5  A    between atoms: C_5  and  C_9 
REMARK    6  A    between atoms: C_17  and  C_18 
REMARK    7  A    between atoms: C_18  and  C_20 
REMARK    8  A    between atoms: O_19  and  C_20 
ROOT
HETATM    1  N           1     -35.865  -0.851 -14.217  0.00  0.00    -0.343 N 
HETATM    2  C           1     -35.458  -0.473 -12.966  0.00  0.00     0.249 C 
HETATM    3  H           1     -36.429  -1.683 -14.335  0.00  0.00     0.163 HD
HETATM    4  O           1     -34.785   0.520 -12.825  0.00  0.00    -0.271 OA
ENDROOT
BRANCH   2   5
HETATM    5  C           1     -35.852  -1.294 -11.763  0.00  0.00     0.284 C 
BRANCH   5   6
HETATM    6  C           1     -37.139  -0.739 -11.168  0.00  0.00     0.155 C 
BRANCH   6   7
HETATM    7  C           1     -36.839  -0.077  -9.846  0.00  0.00     0.175 C 
HETATM    8  O           1     -37.094  -0.671  -8.776  0.00  0.00    -0.648 OA
HETATM    9  O           1     -36.334   1.067  -9.820  0.00  0.00    -0.648 OA
ENDBRANCH   6   7
ENDBRANCH   5   6
BRANCH   5  10
HETATM   10  N           1     -34.760  -1.232 -10.737  0.00  0.00    -0.066 N 
HETATM   11  H           1     -34.876  -0.370 -10.157  0.00  0.00     0.275 HD
HETATM   12  H           1     -34.813  -2.075 -10.121  0.00  0.00     0.275 HD
HETATM   13  H           1     -33.832  -1.207 -11.217  0.00  0.00     0.275 HD
ENDBRANCH   5  10
ENDBRANCH   2   5
BRANCH   1  14
HETATM   14  C           1     -35.486  -0.062 -15.373  0.00  0.00     0.214 C 
BRANCH  14  15
HETATM   15  C           1     -36.579   0.930 -15.683  0.00  0.00     0.199 C 
HETATM   16  O           1     -36.303   2.005 -16.257  0.00  0.00    -0.646 OA
HETATM   17  O           1     -37.762   0.676 -15.367  0.00  0.00    -0.646 OA
ENDBRANCH  14  15
BRANCH  14  18
HETATM   18  C           1     -35.279  -0.982 -16.569  0.00  0.00     0.147 C 
HETATM   19  C           1     -35.153  -2.421 -16.085  0.00  0.00     0.042 C 
BRANCH  18  20
HETATM   20  O           1     -36.375  -0.874 -17.436  0.00  0.00    -0.393 OA
HETATM   21  H           1     -37.128  -1.195 -16.969  0.00  0.00     0.210 HD
ENDBRANCH  18  20
ENDBRANCH  14  18
ENDBRANCH   1  14
TORSDOF 8
ENDMDL
MODEL 8
REMARK VINA RESULT:      -5.1      2.647      4.190
REMARK  8 active torsions:
REMARK  status: ('A' for Active; 'I' for Inactive)
REMARK    1  A    between atoms: N_2  and  C_18 
REMARK       I    between atoms: N_2  and  C_3 
REMARK    2  A    between atoms: C_3  and  C_4 
REMARK    3  A    between atoms: C_4  and  C_5 
REMARK    4  A    between atoms: C_4  and  N_14 
REMARK    5  A    between atoms: C_5  and  C_9 
REMARK    6  A    between atoms: C_17  and  C_18 
REMARK    7  A    between atoms: C_18  and  C_20 
REMARK    8  A    between atoms: O_19  and  C_20 
ROOT
HETATM    1  N           1     -21.861  -5.682  -5.829  0.00  0.00    -0.343 N 
HETATM    2  C           1     -21.616  -6.985  -5.487  0.00  0.00     0.249 C 
HETATM    3  H           1     -22.268  -5.050  -5.152  0.00  0.00     0.163 HD
HETATM    4  O           1     -21.128  -7.740  -6.294  0.00  0.00    -0.271 OA
ENDROOT
BRANCH   2   5
HETATM    5  C           1     -21.952  -7.478  -4.101  0.00  0.00     0.284 C 
BRANCH   5   6
HETATM    6  C           1     -21.390  -6.511  -3.067  0.00  0.00     0.155 C 
BRANCH   6   7
HETATM    7  C           1     -21.675  -7.034  -1.680  0.00  0.00     0.175 C 
HETATM    8  O           1     -20.892  -7.849  -1.147  0.00  0.00    -0.648 OA
HETATM    9  O           1     -22.694  -6.652  -1.066  0.00  0.00    -0.648 OA
ENDBRANCH   6   7
ENDBRANCH   5   6
BRANCH   5  10
HETATM   10  N           1     -21.350  -8.835  -3.894  0.00  0.00    -0.066 N 
HETATM   11  H           1     -20.318  -8.786  -4.049  0.00  0.00     0.275 HD
HETATM   12  H           1     -21.540  -9.155  -2.917  0.00  0.00     0.275 HD
HETATM   13  H           1     -21.773  -9.511  -4.571  0.00  0.00     0.275 HD
ENDBRANCH   5  10
ENDBRANCH   2   5
BRANCH   1  14
HETATM   14  C           1     -21.537  -5.209  -7.161  0.00  0.00     0.214 C 
BRANCH  14  15
HETATM   15  C           1     -20.183  -4.544  -7.142  0.00  0.00     0.199 C 
HETATM   16  O           1     -19.524  -4.496  -6.082  0.00  0.00    -0.646 OA
HETATM   17  O           1     -19.719  -4.040  -8.189  0.00  0.00    -0.646 OA
ENDBRANCH  14  15
BRANCH  14  18
HETATM   18  C           1     -22.591  -4.206  -7.612  0.00  0.00     0.147 C 
HETATM   19  C           1     -22.920  -4.442  -9.080  0.00  0.00     0.042 C 
BRANCH  18  20
HETATM   20  O           1     -23.750  -4.368  -6.841  0.00  0.00    -0.393 OA
HETATM   21  H           1     -23.517  -4.168  -5.950  0.00  0.00     0.210 HD
ENDBRANCH  18  20
ENDBRANCH  14  18
ENDBRANCH   1  14
TORSDOF 8
ENDMDL
MODEL 9
REMARK VINA RESULT:      -5.0      2.221      6.496
REMARK  8 active torsions:
REMARK  status: ('A' for Active; 'I' for Inactive)
REMARK    1  A    between atoms: N_2  and  C_18 
REMARK       I    between atoms: N_2  and  C_3 
REMARK    2  A    between atoms: C_3  and  C_4 
REMARK    3  A    between atoms: C_4  and  C_5 
REMARK    4  A    between atoms: C_4  and  N_14 
REMARK    5  A    between atoms: C_5  and  C_9 
REMARK    6  A    between atoms: C_17  and  C_18 
REMARK    7  A    between atoms: C_18  and  C_20 
REMARK    8  A    between atoms: O_19  and  C_20 
ROOT
HETATM    1  N           1     -20.740  -6.551  -4.756  0.00  0.00    -0.343 N 
HETATM    2  C           1     -21.340  -5.667  -5.612  0.00  0.00     0.249 C 
HETATM    3  H           1     -19.730  -6.586  -4.691  0.00  0.00     0.163 HD
HETATM    4  O           1     -22.544  -5.624  -5.689  0.00  0.00    -0.271 OA
ENDROOT
BRANCH   2   5
HETATM    5  C           1     -20.496  -4.744  -6.457  0.00  0.00     0.284 C 
BRANCH   5   6
HETATM    6  C           1     -21.402  -3.802  -7.240  0.00  0.00     0.155 C 
BRANCH   6   7
HETATM    7  C           1     -21.418  -4.210  -8.692  0.00  0.00     0.175 C 
HETATM    8  O           1     -22.330  -4.947  -9.125  0.00  0.00    -0.648 OA
HETATM    9  O           1     -20.518  -3.810  -9.464  0.00  0.00    -0.648 OA
ENDBRANCH   6   7
ENDBRANCH   5   6
BRANCH   5  10
HETATM   10  N           1     -19.674  -5.555  -7.413  0.00  0.00    -0.066 N 
HETATM   11  H           1     -19.703  -5.113  -8.359  0.00  0.00     0.275 HD
HETATM   12  H           1     -18.685  -5.593  -7.077  0.00  0.00     0.275 HD
HETATM   13  H           1     -20.061  -6.525  -7.470  0.00  0.00     0.275 HD
ENDBRANCH   5  10
ENDBRANCH   2   5
BRANCH   1  14
HETATM   14  C           1     -21.550  -7.438  -3.944  0.00  0.00     0.214 C 
BRANCH  14  15
HETATM   15  C           1     -21.654  -6.883  -2.545  0.00  0.00     0.199 C 
HETATM   16  O           1     -22.434  -5.937  -2.303  0.00  0.00    -0.646 OA
HETATM   17  O           1     -20.959  -7.370  -1.626  0.00  0.00    -0.646 OA
ENDBRANCH  14  15
BRANCH  14  18
HETATM   18  C           1     -20.903  -8.816  -3.898  0.00  0.00     0.147 C 
HETATM   19  C           1     -21.170  -9.545  -5.208  0.00  0.00     0.042 C 
BRANCH  18  20
HETATM   20  O           1     -19.521  -8.676  -3.713  0.00  0.00    -0.393 OA
HETATM   21  H           1     -19.148  -9.539  -3.769  0.00  0.00     0.210 HD
ENDBRANCH  18  20
ENDBRANCH  14  18
ENDBRANCH   1  14
TORSDOF 8
ENDMDL
