MODEL 1
REMARK VINA RESULT:      -4.9      0.000      0.000
REMARK  6 active torsions:
REMARK  status: ('A' for Active; 'I' for Inactive)
REMARK    1  A    between atoms: C_1  and  C_10 
REMARK    2  A    between atoms: C_1  and  N_2 
REMARK    3  A    between atoms: C_6  and  C_7 
REMARK    4  A    between atoms: C_6  and  C_14 
REMARK    5  A    between atoms: C_6  and  N_11 
REMARK    6  A    between atoms: C_7  and  S_8 
REMARK       I    between atoms: C_10  and  N_11 
ROOT
HETATM    1  H           1     -27.427  -6.820 -18.736  0.00  0.00     0.163 HD
HETATM    2  C           1     -25.367  -6.803 -18.935  0.00  0.00     0.243 C 
HETATM    3  N           1     -26.553  -6.565 -18.294  0.00  0.00    -0.344 N 
HETATM    4  O           1     -24.324  -6.498 -18.408  0.00  0.00    -0.272 OA
ENDROOT
BRANCH   3   5
HETATM    5  C           1     -26.557  -5.948 -16.982  0.00  0.00     0.194 C 
BRANCH   5   6
HETATM    6  C           1     -27.760  -5.021 -16.863  0.00  0.00     0.106 C 
BRANCH   6   7
HETATM    7  S           1     -28.816  -5.207 -18.327  0.00  0.00    -0.180 SA
HETATM    8  H           1     -28.165  -4.309 -19.086  0.00  0.00     0.101 HD
ENDBRANCH   6   7
ENDBRANCH   5   6
BRANCH   5   9
HETATM    9  C           1     -26.639  -7.019 -15.923  0.00  0.00     0.197 C 
HETATM   10  O           1     -27.753  -7.438 -15.543  0.00  0.00    -0.646 OA
HETATM   11  O           1     -25.592  -7.487 -15.425  0.00  0.00    -0.646 OA
ENDBRANCH   5   9
ENDBRANCH   3   5
BRANCH   2  12
HETATM   12  C           1     -25.362  -7.445 -20.301  0.00  0.00     0.332 C 
BRANCH  12  13
HETATM   13  N           1     -26.743  -7.929 -20.632  0.00  0.00    -0.071 N 
HETATM   14  H           1     -27.155  -8.405 -19.797  0.00  0.00     0.274 HD
HETATM   15  H           1     -27.342  -7.116 -20.900  0.00  0.00     0.274 HD
HETATM   16  H           1     -26.693  -8.604 -21.428  0.00  0.00     0.274 HD
ENDBRANCH  12  13
ENDBRANCH   2  12
TORSDOF 6
ENDMDL
MODEL 2
REMARK VINA RESULT:      -4.8      2.117      2.448
REMARK  6 active torsions:
REMARK  status: ('A' for Active; 'I' for Inactive)
REMARK    1  A    between atoms: C_1  and  C_10 
REMARK    2  A    between atoms: C_1  and  N_2 
REMARK    3  A    between atoms: C_6  and  C_7 
REMARK    4  A    between atoms: C_6  and  C_14 
REMARK    5  A    between atoms: C_6  and  N_11 
REMARK    6  A    between atoms: C_7  and  S_8 
REMARK       I    between atoms: C_10  and  N_11 
ROOT
HETATM    1  H           1     -26.842  -7.310 -17.705  0.00  0.00     0.163 HD
HETATM    2  C           1     -25.324  -6.529 -16.534  0.00  0.00     0.243 C 
HETATM    3  N           1     -26.605  -6.614 -17.009  0.00  0.00    -0.344 N 
HETATM    4  O           1     -25.041  -5.697 -15.705  0.00  0.00    -0.272 OA
ENDROOT
BRANCH   3   5
HETATM    5  C           1     -27.622  -5.705 -16.517  0.00  0.00     0.194 C 
BRANCH   5   6
HETATM    6  C           1     -28.585  -5.363 -17.647  0.00  0.00     0.106 C 
BRANCH   6   7
HETATM    7  S           1     -29.383  -6.881 -18.243  0.00  0.00    -0.180 SA
HETATM    8  H           1     -30.114  -7.100 -17.136  0.00  0.00     0.101 HD
ENDBRANCH   6   7
ENDBRANCH   5   6
BRANCH   5   9
HETATM    9  C           1     -28.381  -6.364 -15.391  0.00  0.00     0.197 C 
HETATM   10  O           1     -28.042  -7.497 -14.987  0.00  0.00    -0.646 OA
HETATM   11  O           1     -29.350  -5.776 -14.862  0.00  0.00    -0.646 OA
ENDBRANCH   5   9
ENDBRANCH   3   5
BRANCH   2  12
HETATM   12  C           1     -24.264  -7.473 -17.046  0.00  0.00     0.332 C 
BRANCH  12  13
HETATM   13  N           1     -24.269  -7.466 -18.545  0.00  0.00    -0.071 N 
HETATM   14  H           1     -23.621  -8.206 -18.900  0.00  0.00     0.274 HD
HETATM   15  H           1     -25.236  -7.656 -18.892  0.00  0.00     0.274 HD
HETATM   16  H           1     -23.952  -6.532 -18.890  0.00  0.00     0.274 HD
ENDBRANCH  12  13
ENDBRANCH   2  12
TORSDOF 6
ENDMDL
MODEL 3
REMARK VINA RESULT:      -4.6      1.931      2.624
REMARK  6 active torsions:
REMARK  status: ('A' for Active; 'I' for Inactive)
REMARK    1  A    between atoms: C_1  and  C_10 
REMARK    2  A    between atoms: C_1  and  N_2 
REMARK    3  A    between atoms: C_6  and  C_7 
REMARK    4  A    between atoms: C_6  and  C_14 
REMARK    5  A    between atoms: C_6  and  N_11 
REMARK    6  A    between atoms: C_7  and  S_8 
REMARK       I    between atoms: C_10  and  N_11 
ROOT
HETATM    1  H           1     -26.853  -6.844 -18.727  0.00  0.00     0.163 HD
HETATM    2  C           1     -25.580  -6.438 -17.146  0.00  0.00     0.243 C 
HETATM    3  N           1     -26.766  -6.386 -17.829  0.00  0.00    -0.344 N 
HETATM    4  O           1     -25.475  -5.890 -16.075  0.00  0.00    -0.272 OA
ENDROOT
BRANCH   3   5
HETATM    5  C           1     -27.895  -5.672 -17.266  0.00  0.00     0.194 C 
BRANCH   5   6
HETATM    6  C           1     -28.744  -5.097 -18.393  0.00  0.00     0.106 C 
BRANCH   6   7
HETATM    7  S           1     -30.024  -4.016 -17.696  0.00  0.00    -0.180 SA
HETATM    8  H           1     -30.463  -4.892 -16.775  0.00  0.00     0.101 HD
ENDBRANCH   6   7
ENDBRANCH   5   6
BRANCH   5   9
HETATM    9  C           1     -28.729  -6.622 -16.441  0.00  0.00     0.197 C 
HETATM   10  O           1     -28.811  -6.469 -15.204  0.00  0.00    -0.646 OA
HETATM   11  O           1     -29.337  -7.562 -16.996  0.00  0.00    -0.646 OA
ENDBRANCH   5   9
ENDBRANCH   3   5
BRANCH   2  12
HETATM   12  C           1     -24.404  -7.181 -17.732  0.00  0.00     0.332 C 
BRANCH  12  13
HETATM   13  N           1     -23.675  -7.906 -16.640  0.00  0.00    -0.071 N 
HETATM   14  H           1     -22.649  -7.732 -16.730  0.00  0.00     0.274 HD
HETATM   15  H           1     -24.006  -7.559 -15.711  0.00  0.00     0.274 HD
HETATM   16  H           1     -23.863  -8.931 -16.717  0.00  0.00     0.274 HD
ENDBRANCH  12  13
ENDBRANCH   2  12
TORSDOF 6
ENDMDL
MODEL 4
REMARK VINA RESULT:      -4.5      2.575      3.004
REMARK  6 active torsions:
REMARK  status: ('A' for Active; 'I' for Inactive)
REMARK    1  A    between atoms: C_1  and  C_10 
REMARK    2  A    between atoms: C_1  and  N_2 
REMARK    3  A    between atoms: C_6  and  C_7 
REMARK    4  A    between atoms: C_6  and  C_14 
REMARK    5  A    between atoms: C_6  and  N_11 
REMARK    6  A    between atoms: C_7  and  S_8 
REMARK       I    between atoms: C_10  and  N_11 
ROOT
HETATM    1  H           1     -27.929  -7.136 -20.140  0.00  0.00     0.163 HD
HETATM    2  C           1     -26.362  -6.638 -18.882  0.00  0.00     0.243 C 
HETATM    3  N           1     -27.680  -6.795 -19.220  0.00  0.00    -0.344 N 
HETATM    4  O           1     -26.065  -6.231 -17.784  0.00  0.00    -0.272 OA
ENDROOT
BRANCH   3   5
HETATM    5  C           1     -28.718  -6.473 -18.261  0.00  0.00     0.194 C 
BRANCH   5   6
HETATM    6  C           1     -29.246  -5.071 -18.538  0.00  0.00     0.106 C 
BRANCH   6   7
HETATM    7  S           1     -28.779  -3.969 -17.174  0.00  0.00    -0.180 SA
HETATM    8  H           1     -29.037  -2.821 -17.826  0.00  0.00     0.101 HD
ENDBRANCH   6   7
ENDBRANCH   5   6
BRANCH   5   9
HETATM    9  C           1     -29.844  -7.469 -18.386  0.00  0.00     0.197 C 
HETATM   10  O           1     -29.721  -8.462 -19.135  0.00  0.00    -0.646 OA
HETATM   11  O           1     -30.902  -7.301 -17.741  0.00  0.00    -0.646 OA
ENDBRANCH   5   9
ENDBRANCH   3   5
BRANCH   2  12
HETATM   12  C           1     -25.281  -6.973 -19.880  0.00  0.00     0.332 C 
BRANCH  12  13
HETATM   13  N           1     -24.044  -7.405 -19.151  0.00  0.00    -0.071 N 
HETATM   14  H           1     -24.202  -8.344 -18.721  0.00  0.00     0.274 HD
HETATM   15  H           1     -23.245  -7.461 -19.824  0.00  0.00     0.274 HD
HETATM   16  H           1     -23.821  -6.712 -18.402  0.00  0.00     0.274 HD
ENDBRANCH  12  13
ENDBRANCH   2  12
TORSDOF 6
ENDMDL
MODEL 5
REMARK VINA RESULT:      -4.5      4.697      6.159
REMARK  6 active torsions:
REMARK  status: ('A' for Active; 'I' for Inactive)
REMARK    1  A    between atoms: C_1  and  C_10 
REMARK    2  A    between atoms: C_1  and  N_2 
REMARK    3  A    between atoms: C_6  and  C_7 
REMARK    4  A    between atoms: C_6  and  C_14 
REMARK    5  A    between atoms: C_6  and  N_11 
REMARK    6  A    between atoms: C_7  and  S_8 
REMARK       I    between atoms: C_10  and  N_11 
ROOT
HETATM    1  H           1     -32.270  -6.543 -16.501  0.00  0.00     0.163 HD
HETATM    2  C           1     -32.163  -4.502 -16.826  0.00  0.00     0.243 C 
HETATM    3  N           1     -31.690  -5.787 -16.841  0.00  0.00    -0.344 N 
HETATM    4  O           1     -31.470  -3.598 -17.231  0.00  0.00    -0.272 OA
ENDROOT
BRANCH   3   5
HETATM    5  C           1     -30.358  -6.063 -17.343  0.00  0.00     0.194 C 
BRANCH   5   6
HETATM    6  C           1     -29.345  -5.871 -16.222  0.00  0.00     0.106 C 
BRANCH   6   7
HETATM    7  S           1     -27.983  -4.825 -16.809  0.00  0.00    -0.180 SA
HETATM    8  H           1     -27.631  -5.616 -17.838  0.00  0.00     0.101 HD
ENDBRANCH   6   7
ENDBRANCH   5   6
BRANCH   5   9
HETATM    9  C           1     -30.294  -7.486 -17.840  0.00  0.00     0.197 C 
HETATM   10  O           1     -29.578  -8.323 -17.251  0.00  0.00    -0.646 OA
HETATM   11  O           1     -30.958  -7.827 -18.844  0.00  0.00    -0.646 OA
ENDBRANCH   5   9
ENDBRANCH   3   5
BRANCH   2  12
HETATM   12  C           1     -33.549  -4.213 -16.304  0.00  0.00     0.332 C 
BRANCH  12  13
HETATM   13  N           1     -34.099  -2.997 -16.988  0.00  0.00    -0.071 N 
HETATM   14  H           1     -35.095  -2.858 -16.706  0.00  0.00     0.274 HD
HETATM   15  H           1     -33.539  -2.159 -16.712  0.00  0.00     0.274 HD
HETATM   16  H           1     -34.045  -3.126 -18.024  0.00  0.00     0.274 HD
ENDBRANCH  12  13
ENDBRANCH   2  12
TORSDOF 6
ENDMDL
MODEL 6
REMARK VINA RESULT:      -4.5      2.485      2.974
REMARK  6 active torsions:
REMARK  status: ('A' for Active; 'I' for Inactive)
REMARK    1  A    between atoms: C_1  and  C_10 
REMARK    2  A    between atoms: C_1  and  N_2 
REMARK    3  A    between atoms: C_6  and  C_7 
REMARK    4  A    between atoms: C_6  and  C_14 
REMARK    5  A    between atoms: C_6  and  N_11 
REMARK    6  A    between atoms: C_7  and  S_8 
REMARK       I    between atoms: C_10  and  N_11 
ROOT
HETATM    1  H           1     -26.258  -6.321 -17.210  0.00  0.00     0.163 HD
HETATM    2  C           1     -26.202  -6.543 -19.268  0.00  0.00     0.243 C 
HETATM    3  N           1     -26.793  -6.254 -18.067  0.00  0.00    -0.344 N 
HETATM    4  O           1     -26.841  -6.465 -20.290  0.00  0.00    -0.272 OA
ENDROOT
BRANCH   3   5
HETATM    5  C           1     -28.186  -5.854 -18.023  0.00  0.00     0.194 C 
BRANCH   5   6
HETATM    6  C           1     -28.984  -6.884 -17.233  0.00  0.00     0.106 C 
BRANCH   6   7
HETATM    7  S           1     -30.295  -7.570 -18.283  0.00  0.00    -0.180 SA
HETATM    8  H           1     -30.371  -6.519 -19.118  0.00  0.00     0.101 HD
ENDBRANCH   6   7
ENDBRANCH   5   6
BRANCH   5   9
HETATM    9  C           1     -28.301  -4.506 -17.353  0.00  0.00     0.197 C 
HETATM   10  O           1     -27.525  -4.203 -16.422  0.00  0.00    -0.646 OA
HETATM   11  O           1     -29.173  -3.693 -17.731  0.00  0.00    -0.646 OA
ENDBRANCH   5   9
ENDBRANCH   3   5
BRANCH   2  12
HETATM   12  C           1     -24.753  -6.959 -19.315  0.00  0.00     0.332 C 
BRANCH  12  13
HETATM   13  N           1     -24.327  -7.447 -17.962  0.00  0.00    -0.071 N 
HETATM   14  H           1     -23.297  -7.622 -17.962  0.00  0.00     0.274 HD
HETATM   15  H           1     -24.557  -6.725 -17.243  0.00  0.00     0.274 HD
HETATM   16  H           1     -24.831  -8.335 -17.738  0.00  0.00     0.274 HD
ENDBRANCH  12  13
ENDBRANCH   2  12
TORSDOF 6
ENDMDL
MODEL 7
REMARK VINA RESULT:      -4.2      4.123      4.942
REMARK  6 active torsions:
REMARK  status: ('A' for Active; 'I' for Inactive)
REMARK    1  A    between atoms: C_1  and  C_10 
REMARK    2  A    between atoms: C_1  and  N_2 
REMARK    3  A    between atoms: C_6  and  C_7 
REMARK    4  A    between atoms: C_6  and  C_14 
REMARK    5  A    between atoms: C_6  and  N_11 
REMARK    6  A    between atoms: C_7  and  S_8 
REMARK       I    between atoms: C_10  and  N_11 
ROOT
HETATM    1  H           1     -30.492  -5.696 -16.412  0.00  0.00     0.163 HD
HETATM    2  C           1     -29.750  -4.537 -17.959  0.00  0.00     0.243 C 
HETATM    3  N           1     -29.908  -5.691 -17.238  0.00  0.00    -0.344 N 
HETATM    4  O           1     -29.052  -4.532 -18.945  0.00  0.00    -0.272 OA
ENDROOT
BRANCH   3   5
HETATM    5  C           1     -29.238  -6.906 -17.660  0.00  0.00     0.194 C 
BRANCH   5   6
HETATM    6  C           1     -28.727  -7.653 -16.434  0.00  0.00     0.106 C 
BRANCH   6   7
HETATM    7  S           1     -27.210  -6.860 -15.831  0.00  0.00    -0.180 SA
HETATM    8  H           1     -26.512  -7.005 -16.971  0.00  0.00     0.101 HD
ENDBRANCH   6   7
ENDBRANCH   5   6
BRANCH   5   9
HETATM    9  C           1     -30.210  -7.780 -18.413  0.00  0.00     0.197 C 
HETATM   10  O           1     -31.441  -7.619 -18.265  0.00  0.00    -0.646 OA
HETATM   11  O           1     -29.784  -8.666 -19.186  0.00  0.00    -0.646 OA
ENDBRANCH   5   9
ENDBRANCH   3   5
BRANCH   2  12
HETATM   12  C           1     -30.447  -3.272 -17.521  0.00  0.00     0.332 C 
BRANCH  12  13
HETATM   13  N           1     -29.448  -2.158 -17.424  0.00  0.00    -0.071 N 
HETATM   14  H           1     -29.294  -1.744 -18.372  0.00  0.00     0.274 HD
HETATM   15  H           1     -29.810  -1.421 -16.778  0.00  0.00     0.274 HD
HETATM   16  H           1     -28.544  -2.531 -17.057  0.00  0.00     0.274 HD
ENDBRANCH  12  13
ENDBRANCH   2  12
TORSDOF 6
ENDMDL
MODEL 8
REMARK VINA RESULT:      -4.2      3.037      4.395
REMARK  6 active torsions:
REMARK  status: ('A' for Active; 'I' for Inactive)
REMARK    1  A    between atoms: C_1  and  C_10 
REMARK    2  A    between atoms: C_1  and  N_2 
REMARK    3  A    between atoms: C_6  and  C_7 
REMARK    4  A    between atoms: C_6  and  C_14 
REMARK    5  A    between atoms: C_6  and  N_11 
REMARK    6  A    between atoms: C_7  and  S_8 
REMARK       I    between atoms: C_10  and  N_11 
ROOT
HETATM    1  H           1     -29.080  -6.449 -17.374  0.00  0.00     0.163 HD
HETATM    2  C           1     -29.230  -4.385 -17.303  0.00  0.00     0.243 C 
HETATM    3  N           1     -28.562  -5.580 -17.329  0.00  0.00    -0.344 N 
HETATM    4  O           1     -28.612  -3.349 -17.249  0.00  0.00    -0.272 OA
ENDROOT
BRANCH   3   5
HETATM    5  C           1     -27.112  -5.601 -17.293  0.00  0.00     0.194 C 
BRANCH   5   6
HETATM    6  C           1     -26.648  -6.408 -16.087  0.00  0.00     0.106 C 
BRANCH   6   7
HETATM    7  S           1     -28.022  -7.421 -15.471  0.00  0.00    -0.180 SA
HETATM    8  H           1     -27.333  -8.574 -15.416  0.00  0.00     0.101 HD
ENDBRANCH   6   7
ENDBRANCH   5   6
BRANCH   5   9
HETATM    9  C           1     -26.587  -6.237 -18.556  0.00  0.00     0.197 C 
HETATM   10  O           1     -27.358  -6.446 -19.518  0.00  0.00    -0.646 OA
HETATM   11  O           1     -25.381  -6.555 -18.641  0.00  0.00    -0.646 OA
ENDBRANCH   5   9
ENDBRANCH   3   5
BRANCH   2  12
HETATM   12  C           1     -30.738  -4.362 -17.341  0.00  0.00     0.332 C 
BRANCH  12  13
HETATM   13  N           1     -31.209  -2.997 -17.744  0.00  0.00    -0.071 N 
HETATM   14  H           1     -32.101  -3.080 -18.282  0.00  0.00     0.274 HD
HETATM   15  H           1     -31.371  -2.418 -16.889  0.00  0.00     0.274 HD
HETATM   16  H           1     -30.483  -2.541 -18.342  0.00  0.00     0.274 HD
ENDBRANCH  12  13
ENDBRANCH   2  12
TORSDOF 6
ENDMDL
MODEL 9
REMARK VINA RESULT:      -4.1     10.578     11.710
REMARK  6 active torsions:
REMARK  status: ('A' for Active; 'I' for Inactive)
REMARK    1  A    between atoms: C_1  and  C_10 
REMARK    2  A    between atoms: C_1  and  N_2 
REMARK    3  A    between atoms: C_6  and  C_7 
REMARK    4  A    between atoms: C_6  and  C_14 
REMARK    5  A    between atoms: C_6  and  N_11 
REMARK    6  A    between atoms: C_7  and  S_8 
REMARK       I    between atoms: C_10  and  N_11 
ROOT
HETATM    1  H           1     -23.460  -3.859  -6.680  0.00  0.00     0.163 HD
HETATM    2  C           1     -23.041  -4.229  -8.673  0.00  0.00     0.243 C 
HETATM    3  N           1     -22.850  -4.348  -7.322  0.00  0.00    -0.344 N 
HETATM    4  O           1     -22.311  -4.812  -9.440  0.00  0.00    -0.272 OA
ENDROOT
BRANCH   3   5
HETATM    5  C           1     -21.772  -5.173  -6.813  0.00  0.00     0.194 C 
BRANCH   5   6
HETATM    6  C           1     -20.605  -4.284  -6.402  0.00  0.00     0.106 C 
BRANCH   6   7
HETATM    7  S           1     -19.212  -4.553  -7.534  0.00  0.00    -0.180 SA
HETATM    8  H           1     -19.096  -5.873  -7.304  0.00  0.00     0.101 HD
ENDBRANCH   6   7
ENDBRANCH   5   6
BRANCH   5   9
HETATM    9  C           1     -22.258  -5.952  -5.615  0.00  0.00     0.197 C 
HETATM   10  O           1     -21.452  -6.623  -4.937  0.00  0.00    -0.646 OA
HETATM   11  O           1     -23.468  -5.925  -5.302  0.00  0.00    -0.646 OA
ENDBRANCH   5   9
ENDBRANCH   3   5
BRANCH   2  12
HETATM   12  C           1     -24.162  -3.371  -9.204  0.00  0.00     0.332 C 
BRANCH  12  13
HETATM   13  N           1     -25.318  -4.242  -9.596  0.00  0.00    -0.071 N 
HETATM   14  H           1     -26.192  -3.886  -9.147  0.00  0.00     0.274 HD
HETATM   15  H           1     -25.430  -4.226 -10.635  0.00  0.00     0.274 HD
HETATM   16  H           1     -25.138  -5.222  -9.280  0.00  0.00     0.274 HD
ENDBRANCH  12  13
ENDBRANCH   2  12
TORSDOF 6
ENDMDL
