MODEL 1
REMARK VINA RESULT:      -6.7      0.000      0.000
REMARK  8 active torsions:
REMARK  status: ('A' for Active; 'I' for Inactive)
REMARK    1  A    between atoms: C_2  and  C_14 
REMARK    2  A    between atoms: N_10  and  C_16 
REMARK    3  A    between atoms: C_11  and  C_19 
REMARK       I    between atoms: C_14  and  N_18 
REMARK    4  A    between atoms: C_15  and  C_16 
REMARK    5  A    between atoms: C_15  and  C_20 
REMARK    6  A    between atoms: N_18  and  C_19 
REMARK    7  A    between atoms: C_19  and  C_21 
REMARK    8  A    between atoms: C_20  and  C_21 
ROOT
HETATM    1  C           1     -34.915  -2.443 -12.064  0.00  0.00     0.185 C 
ENDROOT
BRANCH   1   2
HETATM    2  C           1     -34.449  -1.791 -10.785  0.00  0.00     0.196 C 
HETATM    3  O           1     -33.233  -1.773 -10.500  0.00  0.00    -0.646 OA
HETATM    4  O           1     -35.280  -1.268 -10.012  0.00  0.00    -0.646 OA
ENDBRANCH   1   2
BRANCH   1   5
HETATM    5  N           1     -34.818  -1.490 -13.153  0.00  0.00    -0.345 N 
HETATM    6  H           1     -33.931  -1.335 -13.613  0.00  0.00     0.163 HD
HETATM    7  C           1     -35.930  -0.800 -13.559  0.00  0.00     0.251 C 
HETATM    8  O           1     -36.989  -0.985 -13.010  0.00  0.00    -0.271 OA
BRANCH   7   9
HETATM    9  C           1     -35.830   0.191 -14.692  0.00  0.00     0.311 C 
HETATM   10  N           1     -34.862  -0.257 -15.690  0.00  0.00     0.097 N 
HETATM   11  C           1     -35.565  -1.271 -16.469  0.00  0.00     0.271 C 
HETATM   12  H           1     -34.590   0.513 -16.301  0.00  0.00     0.317 HD
HETATM   13  C           1     -36.965  -0.701 -16.630  0.00  0.00     0.033 C 
HETATM   14  C           1     -37.136   0.265 -15.463  0.00  0.00     0.047 C 
ENDBRANCH   7   9
ENDBRANCH   1   5
BRANCH   1  15
HETATM   15  C           1     -34.039  -3.651 -12.366  0.00  0.00     0.036 C 
BRANCH  15  16
HETATM   16  C           1     -34.744  -4.919 -11.904  0.00  0.00     0.004 C 
BRANCH  16  17
HETATM   17  C           1     -33.828  -5.697 -10.968  0.00  0.00     0.027 C 
BRANCH  17  18
HETATM   18  C           1     -34.654  -6.690 -10.159  0.00  0.00     0.229 C 
BRANCH  18  19
HETATM   19  N           1     -34.763  -7.982 -10.914  0.00  0.00    -0.079 N 
HETATM   20  H           1     -35.725  -8.072 -11.312  0.00  0.00     0.274 HD
HETATM   21  H           1     -34.062  -7.992 -11.689  0.00  0.00     0.274 HD
HETATM   22  H           1     -34.579  -8.780 -10.265  0.00  0.00     0.274 HD
ENDBRANCH  18  19
ENDBRANCH  17  18
ENDBRANCH  16  17
ENDBRANCH  15  16
ENDBRANCH   1  15
TORSDOF 8
ENDMDL
MODEL 2
REMARK VINA RESULT:      -6.3      1.572      2.088
REMARK  8 active torsions:
REMARK  status: ('A' for Active; 'I' for Inactive)
REMARK    1  A    between atoms: C_2  and  C_14 
REMARK    2  A    between atoms: N_10  and  C_16 
REMARK    3  A    between atoms: C_11  and  C_19 
REMARK       I    between atoms: C_14  and  N_18 
REMARK    4  A    between atoms: C_15  and  C_16 
REMARK    5  A    between atoms: C_15  and  C_20 
REMARK    6  A    between atoms: N_18  and  C_19 
REMARK    7  A    between atoms: C_19  and  C_21 
REMARK    8  A    between atoms: C_20  and  C_21 
ROOT
HETATM    1  C           1     -36.354  -1.282 -11.146  0.00  0.00     0.185 C 
ENDROOT
BRANCH   1   2
HETATM    2  C           1     -36.658  -0.329 -10.016  0.00  0.00     0.196 C 
HETATM    3  O           1     -35.986  -0.371  -8.964  0.00  0.00    -0.646 OA
HETATM    4  O           1     -37.583   0.505 -10.134  0.00  0.00    -0.646 OA
ENDBRANCH   1   2
BRANCH   1   5
HETATM    5  N           1     -35.831  -0.538 -12.275  0.00  0.00    -0.345 N 
HETATM    6  H           1     -34.881  -0.190 -12.256  0.00  0.00     0.163 HD
HETATM    7  C           1     -36.622  -0.308 -13.369  0.00  0.00     0.251 C 
HETATM    8  O           1     -37.756  -0.724 -13.392  0.00  0.00    -0.271 OA
BRANCH   7   9
HETATM    9  C           1     -36.078   0.465 -14.545  0.00  0.00     0.311 C 
HETATM   10  N           1     -34.870  -0.167 -15.068  0.00  0.00     0.097 N 
HETATM   11  C           1     -35.349  -1.292 -15.866  0.00  0.00     0.271 C 
HETATM   12  H           1     -34.355   0.479 -15.666  0.00  0.00     0.317 HD
HETATM   13  C           1     -36.569  -0.737 -16.582  0.00  0.00     0.033 C 
HETATM   14  C           1     -37.046   0.423 -15.714  0.00  0.00     0.047 C 
ENDBRANCH   7   9
ENDBRANCH   1   5
BRANCH   1  15
HETATM   15  C           1     -35.321  -2.301 -10.685  0.00  0.00     0.036 C 
BRANCH  15  16
HETATM   16  C           1     -33.967  -1.965 -11.296  0.00  0.00     0.004 C 
BRANCH  16  17
HETATM   17  C           1     -33.111  -3.224 -11.358  0.00  0.00     0.027 C 
BRANCH  17  18
HETATM   18  C           1     -33.859  -4.380 -10.707  0.00  0.00     0.229 C 
BRANCH  18  19
HETATM   19  N           1     -33.404  -5.675 -11.313  0.00  0.00    -0.079 N 
HETATM   20  H           1     -32.902  -6.240 -10.592  0.00  0.00     0.274 HD
HETATM   21  H           1     -34.235  -6.208 -11.658  0.00  0.00     0.274 HD
HETATM   22  H           1     -32.760  -5.477 -12.112  0.00  0.00     0.274 HD
ENDBRANCH  18  19
ENDBRANCH  17  18
ENDBRANCH  16  17
ENDBRANCH  15  16
ENDBRANCH   1  15
TORSDOF 8
ENDMDL
MODEL 3
REMARK VINA RESULT:      -6.2      1.630      5.656
REMARK  8 active torsions:
REMARK  status: ('A' for Active; 'I' for Inactive)
REMARK    1  A    between atoms: C_2  and  C_14 
REMARK    2  A    between atoms: N_10  and  C_16 
REMARK    3  A    between atoms: C_11  and  C_19 
REMARK       I    between atoms: C_14  and  N_18 
REMARK    4  A    between atoms: C_15  and  C_16 
REMARK    5  A    between atoms: C_15  and  C_20 
REMARK    6  A    between atoms: N_18  and  C_19 
REMARK    7  A    between atoms: C_19  and  C_21 
REMARK    8  A    between atoms: C_20  and  C_21 
ROOT
HETATM    1  C           1     -35.655  -0.545 -11.638  0.00  0.00     0.185 C 
ENDROOT
BRANCH   1   2
HETATM    2  C           1     -36.813  -0.854 -10.720  0.00  0.00     0.196 C 
HETATM    3  O           1     -36.646  -0.859  -9.482  0.00  0.00    -0.646 OA
HETATM    4  O           1     -37.940  -1.105 -11.200  0.00  0.00    -0.646 OA
ENDBRANCH   1   2
BRANCH   1   5
HETATM    5  N           1     -34.988  -1.779 -12.004  0.00  0.00    -0.345 N 
HETATM    6  H           1     -35.321  -2.320 -12.792  0.00  0.00     0.163 HD
HETATM    7  C           1     -33.907  -2.214 -11.284  0.00  0.00     0.251 C 
HETATM    8  O           1     -33.510  -1.569 -10.344  0.00  0.00    -0.271 OA
BRANCH   7   9
HETATM    9  C           1     -33.213  -3.498 -11.666  0.00  0.00     0.311 C 
HETATM   10  N           1     -33.416  -4.521 -10.644  0.00  0.00     0.097 N 
HETATM   11  C           1     -34.764  -5.029 -10.880  0.00  0.00     0.271 C 
HETATM   12  H           1     -32.743  -5.280 -10.753  0.00  0.00     0.317 HD
HETATM   13  C           1     -34.864  -5.105 -12.394  0.00  0.00     0.033 C 
HETATM   14  C           1     -33.839  -4.101 -12.911  0.00  0.00     0.047 C 
ENDBRANCH   7   9
ENDBRANCH   1   5
BRANCH   1  15
HETATM   15  C           1     -36.172   0.146 -12.892  0.00  0.00     0.036 C 
BRANCH  15  16
HETATM   16  C           1     -34.997   0.683 -13.698  0.00  0.00     0.004 C 
BRANCH  16  17
HETATM   17  C           1     -35.379   0.748 -15.171  0.00  0.00     0.027 C 
BRANCH  17  18
HETATM   18  C           1     -35.908  -0.609 -15.619  0.00  0.00     0.229 C 
BRANCH  18  19
HETATM   19  N           1     -36.223  -0.565 -17.085  0.00  0.00    -0.079 N 
HETATM   20  H           1     -35.569  -1.195 -17.601  0.00  0.00     0.274 HD
HETATM   21  H           1     -37.207  -0.882 -17.239  0.00  0.00     0.274 HD
HETATM   22  H           1     -36.112   0.415 -17.434  0.00  0.00     0.274 HD
ENDBRANCH  18  19
ENDBRANCH  17  18
ENDBRANCH  16  17
ENDBRANCH  15  16
ENDBRANCH   1  15
TORSDOF 8
ENDMDL
MODEL 4
REMARK VINA RESULT:      -5.7     10.527     11.623
REMARK  8 active torsions:
REMARK  status: ('A' for Active; 'I' for Inactive)
REMARK    1  A    between atoms: C_2  and  C_14 
REMARK    2  A    between atoms: N_10  and  C_16 
REMARK    3  A    between atoms: C_11  and  C_19 
REMARK       I    between atoms: C_14  and  N_18 
REMARK    4  A    between atoms: C_15  and  C_16 
REMARK    5  A    between atoms: C_15  and  C_20 
REMARK    6  A    between atoms: N_18  and  C_19 
REMARK    7  A    between atoms: C_19  and  C_21 
REMARK    8  A    between atoms: C_20  and  C_21 
ROOT
HETATM    1  C           1     -26.328  -5.967 -16.781  0.00  0.00     0.185 C 
ENDROOT
BRANCH   1   2
HETATM    2  C           1     -26.285  -6.964 -15.649  0.00  0.00     0.196 C 
HETATM    3  O           1     -25.199  -7.234 -15.094  0.00  0.00    -0.646 OA
HETATM    4  O           1     -27.338  -7.520 -15.267  0.00  0.00    -0.646 OA
ENDBRANCH   1   2
BRANCH   1   5
HETATM    5  N           1     -26.277  -6.672 -18.047  0.00  0.00    -0.345 N 
HETATM    6  H           1     -27.133  -6.973 -18.494  0.00  0.00     0.163 HD
HETATM    7  C           1     -25.069  -6.931 -18.638  0.00  0.00     0.251 C 
HETATM    8  O           1     -24.046  -6.572 -18.105  0.00  0.00    -0.271 OA
BRANCH   7   9
HETATM    9  C           1     -25.015  -7.665 -19.955  0.00  0.00     0.311 C 
HETATM   10  N           1     -26.325  -7.671 -20.600  0.00  0.00     0.097 N 
HETATM   11  C           1     -26.458  -6.345 -21.197  0.00  0.00     0.271 C 
HETATM   12  H           1     -26.364  -8.379 -21.333  0.00  0.00     0.317 HD
HETATM   13  C           1     -25.076  -6.061 -21.761  0.00  0.00     0.033 C 
HETATM   14  C           1     -24.127  -6.933 -20.946  0.00  0.00     0.047 C 
ENDBRANCH   7   9
ENDBRANCH   1   5
BRANCH   1  15
HETATM   15  C           1     -27.617  -5.162 -16.699  0.00  0.00     0.036 C 
BRANCH  15  16
HETATM   16  C           1     -28.418  -5.352 -17.980  0.00  0.00     0.004 C 
BRANCH  16  17
HETATM   17  C           1     -29.780  -5.949 -17.644  0.00  0.00     0.027 C 
BRANCH  17  18
HETATM   18  C           1     -29.883  -7.347 -18.240  0.00  0.00     0.229 C 
BRANCH  18  19
HETATM   19  N           1     -29.325  -8.347 -17.270  0.00  0.00    -0.079 N 
HETATM   20  H           1     -29.904  -8.350 -16.401  0.00  0.00     0.274 HD
HETATM   21  H           1     -29.341  -9.298 -17.703  0.00  0.00     0.274 HD
HETATM   22  H           1     -28.340  -8.087 -17.031  0.00  0.00     0.274 HD
ENDBRANCH  18  19
ENDBRANCH  17  18
ENDBRANCH  16  17
ENDBRANCH  15  16
ENDBRANCH   1  15
TORSDOF 8
ENDMDL
MODEL 5
REMARK VINA RESULT:      -5.6     15.007     16.600
REMARK  8 active torsions:
REMARK  status: ('A' for Active; 'I' for Inactive)
REMARK    1  A    between atoms: C_2  and  C_14 
REMARK    2  A    between atoms: N_10  and  C_16 
REMARK    3  A    between atoms: C_11  and  C_19 
REMARK       I    between atoms: C_14  and  N_18 
REMARK    4  A    between atoms: C_15  and  C_16 
REMARK    5  A    between atoms: C_15  and  C_20 
REMARK    6  A    between atoms: N_18  and  C_19 
REMARK    7  A    between atoms: C_19  and  C_21 
REMARK    8  A    between atoms: C_20  and  C_21 
ROOT
HETATM    1  C           1     -20.942  -6.485  -4.675  0.00  0.00     0.185 C 
ENDROOT
BRANCH   1   2
HETATM    2  C           1     -20.618  -7.794  -5.353  0.00  0.00     0.196 C 
HETATM    3  O           1     -21.537  -8.508  -5.806  0.00  0.00    -0.646 OA
HETATM    4  O           1     -19.428  -8.162  -5.463  0.00  0.00    -0.646 OA
ENDBRANCH   1   2
BRANCH   1   5
HETATM    5  N           1     -21.430  -5.540  -5.661  0.00  0.00    -0.345 N 
HETATM    6  H           1     -22.399  -5.566  -5.951  0.00  0.00     0.163 HD
HETATM    7  C           1     -20.579  -4.611  -6.198  0.00  0.00     0.251 C 
HETATM    8  O           1     -19.423  -4.579  -5.851  0.00  0.00    -0.271 OA
BRANCH   7   9
HETATM    9  C           1     -21.087  -3.627  -7.223  0.00  0.00     0.311 C 
HETATM   10  N           1     -20.180  -3.553  -8.365  0.00  0.00     0.097 N 
HETATM   11  C           1     -20.480  -4.737  -9.164  0.00  0.00     0.271 C 
HETATM   12  H           1     -20.362  -2.715  -8.917  0.00  0.00     0.317 HD
HETATM   13  C           1     -21.996  -4.840  -9.105  0.00  0.00     0.033 C 
HETATM   14  C           1     -22.394  -4.105  -7.830  0.00  0.00     0.047 C 
ENDBRANCH   7   9
ENDBRANCH   1   5
BRANCH   1  15
HETATM   15  C           1     -22.013  -6.714  -3.617  0.00  0.00     0.036 C 
BRANCH  15  16
HETATM   16  C           1     -21.351  -7.068  -2.292  0.00  0.00     0.004 C 
BRANCH  16  17
HETATM   17  C           1     -22.298  -6.735  -1.146  0.00  0.00     0.027 C 
BRANCH  17  18
HETATM   18  C           1     -22.167  -7.791  -0.056  0.00  0.00     0.229 C 
BRANCH  18  19
HETATM   19  N           1     -23.502  -8.008   0.594  0.00  0.00    -0.079 N 
HETATM   20  H           1     -24.161  -7.254   0.297  0.00  0.00     0.274 HD
HETATM   21  H           1     -23.883  -8.937   0.306  0.00  0.00     0.274 HD
HETATM   22  H           1     -23.390  -7.983   1.634  0.00  0.00     0.274 HD
ENDBRANCH  18  19
ENDBRANCH  17  18
ENDBRANCH  16  17
ENDBRANCH  15  16
ENDBRANCH   1  15
TORSDOF 8
ENDMDL
MODEL 6
REMARK VINA RESULT:      -5.4     14.820     18.026
REMARK  8 active torsions:
REMARK  status: ('A' for Active; 'I' for Inactive)
REMARK    1  A    between atoms: C_2  and  C_14 
REMARK    2  A    between atoms: N_10  and  C_16 
REMARK    3  A    between atoms: C_11  and  C_19 
REMARK       I    between atoms: C_14  and  N_18 
REMARK    4  A    between atoms: C_15  and  C_16 
REMARK    5  A    between atoms: C_15  and  C_20 
REMARK    6  A    between atoms: N_18  and  C_19 
REMARK    7  A    between atoms: C_19  and  C_21 
REMARK    8  A    between atoms: C_20  and  C_21 
ROOT
HETATM    1  C           1     -20.726  -6.755  -5.412  0.00  0.00     0.185 C 
ENDROOT
BRANCH   1   2
HETATM    2  C           1     -21.914  -6.280  -4.612  0.00  0.00     0.196 C 
HETATM    3  O           1     -21.783  -6.008  -3.400  0.00  0.00    -0.646 OA
HETATM    4  O           1     -23.030  -6.158  -5.163  0.00  0.00    -0.646 OA
ENDBRANCH   1   2
BRANCH   1   5
HETATM    5  N           1     -20.828  -8.187  -5.622  0.00  0.00    -0.345 N 
HETATM    6  H           1     -21.372  -8.548  -6.394  0.00  0.00     0.163 HD
HETATM    7  C           1     -20.187  -9.050  -4.773  0.00  0.00     0.251 C 
HETATM    8  O           1     -19.538  -8.619  -3.851  0.00  0.00    -0.271 OA
BRANCH   7   9
HETATM    9  C           1     -20.293 -10.539  -4.991  0.00  0.00     0.311 C 
HETATM   10  N           1     -19.808 -10.906  -6.319  0.00  0.00     0.097 N 
HETATM   11  C           1     -18.353 -10.896  -6.205  0.00  0.00     0.271 C 
HETATM   12  H           1     -20.123 -11.842  -6.574  0.00  0.00     0.317 HD
HETATM   13  C           1     -18.090 -11.522  -4.845  0.00  0.00     0.033 C 
HETATM   14  C           1     -19.370 -11.291  -4.049  0.00  0.00     0.047 C 
ENDBRANCH   7   9
ENDBRANCH   1   5
BRANCH   1  15
HETATM   15  C           1     -20.704  -6.045  -6.758  0.00  0.00     0.036 C 
BRANCH  15  16
HETATM   16  C           1     -20.225  -4.612  -6.569  0.00  0.00     0.004 C 
BRANCH  16  17
HETATM   17  C           1     -21.237  -3.652  -7.183  0.00  0.00     0.027 C 
BRANCH  17  18
HETATM   18  C           1     -22.208  -4.431  -8.061  0.00  0.00     0.229 C 
BRANCH  18  19
HETATM   19  N           1     -23.610  -4.206  -7.579  0.00  0.00    -0.079 N 
HETATM   20  H           1     -23.911  -5.017  -6.993  0.00  0.00     0.274 HD
HETATM   21  H           1     -23.646  -3.332  -7.008  0.00  0.00     0.274 HD
HETATM   22  H           1     -24.250  -4.114  -8.400  0.00  0.00     0.274 HD
ENDBRANCH  18  19
ENDBRANCH  17  18
ENDBRANCH  16  17
ENDBRANCH  15  16
ENDBRANCH   1  15
TORSDOF 8
ENDMDL
MODEL 7
REMARK VINA RESULT:      -5.3     15.042     17.266
REMARK  8 active torsions:
REMARK  status: ('A' for Active; 'I' for Inactive)
REMARK    1  A    between atoms: C_2  and  C_14 
REMARK    2  A    between atoms: N_10  and  C_16 
REMARK    3  A    between atoms: C_11  and  C_19 
REMARK       I    between atoms: C_14  and  N_18 
REMARK    4  A    between atoms: C_15  and  C_16 
REMARK    5  A    between atoms: C_15  and  C_20 
REMARK    6  A    between atoms: N_18  and  C_19 
REMARK    7  A    between atoms: C_19  and  C_21 
REMARK    8  A    between atoms: C_20  and  C_21 
ROOT
HETATM    1  C           1     -20.131  -7.975  -4.819  0.00  0.00     0.185 C 
ENDROOT
BRANCH   1   2
HETATM    2  C           1     -19.245  -9.193  -4.914  0.00  0.00     0.196 C 
HETATM    3  O           1     -18.242  -9.296  -4.176  0.00  0.00    -0.646 OA
HETATM    4  O           1     -19.515 -10.099  -5.732  0.00  0.00    -0.646 OA
ENDBRANCH   1   2
BRANCH   1   5
HETATM    5  N           1     -20.279  -7.383  -6.134  0.00  0.00    -0.345 N 
HETATM    6  H           1     -20.432  -7.973  -6.941  0.00  0.00     0.163 HD
HETATM    7  C           1     -20.212  -6.023  -6.284  0.00  0.00     0.251 C 
HETATM    8  O           1     -20.029  -5.318  -5.320  0.00  0.00    -0.271 OA
BRANCH   7   9
HETATM    9  C           1     -20.366  -5.406  -7.652  0.00  0.00     0.311 C 
HETATM   10  N           1     -21.751  -5.490  -8.107  0.00  0.00     0.097 N 
HETATM   11  C           1     -22.445  -4.415  -7.403  0.00  0.00     0.271 C 
HETATM   12  H           1     -21.811  -5.332  -9.113  0.00  0.00     0.317 HD
HETATM   13  C           1     -21.456  -3.261  -7.438  0.00  0.00     0.033 C 
HETATM   14  C           1     -20.089  -3.914  -7.607  0.00  0.00     0.047 C 
ENDBRANCH   7   9
ENDBRANCH   1   5
BRANCH   1  15
HETATM   15  C           1     -21.498  -8.383  -4.288  0.00  0.00     0.036 C 
BRANCH  15  16
HETATM   16  C           1     -21.360  -8.891  -2.860  0.00  0.00     0.004 C 
BRANCH  16  17
HETATM   17  C           1     -20.881  -7.757  -1.961  0.00  0.00     0.027 C 
BRANCH  17  18
HETATM   18  C           1     -22.084  -7.048  -1.353  0.00  0.00     0.229 C 
BRANCH  18  19
HETATM   19  N           1     -22.303  -5.741  -2.058  0.00  0.00    -0.079 N 
HETATM   20  H           1     -23.267  -5.719  -2.460  0.00  0.00     0.274 HD
HETATM   21  H           1     -22.192  -4.956  -1.377  0.00  0.00     0.274 HD
HETATM   22  H           1     -21.602  -5.639  -2.827  0.00  0.00     0.274 HD
ENDBRANCH  18  19
ENDBRANCH  17  18
ENDBRANCH  16  17
ENDBRANCH  15  16
ENDBRANCH   1  15
TORSDOF 8
ENDMDL
MODEL 8
REMARK VINA RESULT:      -5.2      9.772     11.088
REMARK  8 active torsions:
REMARK  status: ('A' for Active; 'I' for Inactive)
REMARK    1  A    between atoms: C_2  and  C_14 
REMARK    2  A    between atoms: N_10  and  C_16 
REMARK    3  A    between atoms: C_11  and  C_19 
REMARK       I    between atoms: C_14  and  N_18 
REMARK    4  A    between atoms: C_15  and  C_16 
REMARK    5  A    between atoms: C_15  and  C_20 
REMARK    6  A    between atoms: N_18  and  C_19 
REMARK    7  A    between atoms: C_19  and  C_21 
REMARK    8  A    between atoms: C_20  and  C_21 
ROOT
HETATM    1  C           1     -28.795  -6.851 -17.779  0.00  0.00     0.185 C 
ENDROOT
BRANCH   1   2
HETATM    2  C           1     -30.002  -7.652 -18.202  0.00  0.00     0.196 C 
HETATM    3  O           1     -29.901  -8.505 -19.109  0.00  0.00    -0.646 OA
HETATM    4  O           1     -31.104  -7.462 -17.642  0.00  0.00    -0.646 OA
ENDBRANCH   1   2
BRANCH   1   5
HETATM    5  N           1     -27.970  -6.575 -18.940  0.00  0.00    -0.345 N 
HETATM    6  H           1     -28.383  -6.566 -19.864  0.00  0.00     0.163 HD
HETATM    7  C           1     -26.633  -6.325 -18.785  0.00  0.00     0.251 C 
HETATM    8  O           1     -26.140  -6.335 -17.683  0.00  0.00    -0.271 OA
BRANCH   7   9
HETATM    9  C           1     -25.775  -6.037 -19.993  0.00  0.00     0.311 C 
HETATM   10  N           1     -24.408  -6.505 -19.782  0.00  0.00     0.097 N 
HETATM   11  C           1     -24.464  -7.947 -20.006  0.00  0.00     0.271 C 
HETATM   12  H           1     -23.772  -6.081 -20.458  0.00  0.00     0.317 HD
HETATM   13  C           1     -25.391  -8.093 -21.202  0.00  0.00     0.033 C 
HETATM   14  C           1     -26.249  -6.833 -21.195  0.00  0.00     0.047 C 
ENDBRANCH   7   9
ENDBRANCH   1   5
BRANCH   1  15
HETATM   15  C           1     -29.249  -5.539 -17.155  0.00  0.00     0.036 C 
BRANCH  15  16
HETATM   16  C           1     -29.593  -4.544 -18.254  0.00  0.00     0.004 C 
BRANCH  16  17
HETATM   17  C           1     -30.577  -3.513 -17.717  0.00  0.00     0.027 C 
BRANCH  17  18
HETATM   18  C           1     -31.737  -4.224 -17.032  0.00  0.00     0.229 C 
BRANCH  18  19
HETATM   19  N           1     -33.013  -3.489 -17.315  0.00  0.00    -0.079 N 
HETATM   20  H           1     -32.857  -2.803 -18.087  0.00  0.00     0.274 HD
HETATM   21  H           1     -33.752  -4.172 -17.599  0.00  0.00     0.274 HD
HETATM   22  H           1     -33.320  -2.981 -16.454  0.00  0.00     0.274 HD
ENDBRANCH  18  19
ENDBRANCH  17  18
ENDBRANCH  16  17
ENDBRANCH  15  16
ENDBRANCH   1  15
TORSDOF 8
ENDMDL
MODEL 9
REMARK VINA RESULT:      -5.2     15.393     17.079
REMARK  8 active torsions:
REMARK  status: ('A' for Active; 'I' for Inactive)
REMARK    1  A    between atoms: C_2  and  C_14 
REMARK    2  A    between atoms: N_10  and  C_16 
REMARK    3  A    between atoms: C_11  and  C_19 
REMARK       I    between atoms: C_14  and  N_18 
REMARK    4  A    between atoms: C_15  and  C_16 
REMARK    5  A    between atoms: C_15  and  C_20 
REMARK    6  A    between atoms: N_18  and  C_19 
REMARK    7  A    between atoms: C_19  and  C_21 
REMARK    8  A    between atoms: C_20  and  C_21 
ROOT
HETATM    1  C           1     -21.600  -7.246  -4.124  0.00  0.00     0.185 C 
ENDROOT
BRANCH   1   2
HETATM    2  C           1     -21.657  -6.912  -2.653  0.00  0.00     0.196 C 
HETATM    3  O           1     -22.383  -5.979  -2.251  0.00  0.00    -0.646 OA
HETATM    4  O           1     -20.976  -7.570  -1.836  0.00  0.00    -0.646 OA
ENDBRANCH   1   2
BRANCH   1   5
HETATM    5  N           1     -20.820  -6.239  -4.816  0.00  0.00    -0.345 N 
HETATM    6  H           1     -19.821  -6.183  -4.669  0.00  0.00     0.163 HD
HETATM    7  C           1     -21.436  -5.364  -5.671  0.00  0.00     0.251 C 
HETATM    8  O           1     -22.629  -5.431  -5.847  0.00  0.00    -0.271 OA
BRANCH   7   9
HETATM    9  C           1     -20.625  -4.316  -6.393  0.00  0.00     0.311 C 
HETATM   10  N           1     -19.543  -4.932  -7.157  0.00  0.00     0.097 N 
HETATM   11  C           1     -20.182  -5.452  -8.362  0.00  0.00     0.271 C 
HETATM   12  H           1     -18.843  -4.237  -7.415  0.00  0.00     0.317 HD
HETATM   13  C           1     -21.174  -4.367  -8.745  0.00  0.00     0.033 C 
HETATM   14  C           1     -21.462  -3.616  -7.449  0.00  0.00     0.047 C 
ENDBRANCH   7   9
ENDBRANCH   1   5
BRANCH   1  15
HETATM   15  C           1     -20.950  -8.610  -4.309  0.00  0.00     0.036 C 
BRANCH  15  16
HETATM   16  C           1     -19.626  -8.447  -5.044  0.00  0.00     0.004 C 
BRANCH  16  17
HETATM   17  C           1     -18.570  -9.329  -4.391  0.00  0.00     0.027 C 
BRANCH  17  18
HETATM   18  C           1     -17.693  -9.954  -5.468  0.00  0.00     0.229 C 
BRANCH  18  19
HETATM   19  N           1     -18.561 -10.574  -6.523  0.00  0.00    -0.079 N 
HETATM   20  H           1     -19.112  -9.829  -7.004  0.00  0.00     0.274 HD
HETATM   21  H           1     -17.960 -11.070  -7.220  0.00  0.00     0.274 HD
HETATM   22  H           1     -19.215 -11.258  -6.077  0.00  0.00     0.274 HD
ENDBRANCH  18  19
ENDBRANCH  17  18
ENDBRANCH  16  17
ENDBRANCH  15  16
ENDBRANCH   1  15
TORSDOF 8
ENDMDL
