MODEL 1
REMARK VINA RESULT:      -5.7      0.000      0.000
REMARK  7 active torsions:
REMARK  status: ('A' for Active; 'I' for Inactive)
REMARK    1  A    between atoms: N_5  and  C_8 
REMARK    2  A    between atoms: Se_6  and  C_7 
REMARK    3  A    between atoms: C_7  and  C_8 
REMARK    4  A    between atoms: C_8  and  C_9 
REMARK       I    between atoms: C_9  and  N_10 
REMARK    5  A    between atoms: N_10  and  C_14 
REMARK    6  A    between atoms: C_13  and  C_14 
REMARK    7  A    between atoms: C_14  and  C_16 
ROOT
HETATM    1  O           1     -21.624  -3.451  -7.273  0.00  0.00    -0.271 OA
HETATM    2  C           1     -21.692  -4.564  -7.737  0.00  0.00     0.249 C 
HETATM    3  N           1     -22.217  -4.753  -8.986  0.00  0.00    -0.344 N 
HETATM    4  H           1     -22.274  -5.686  -9.376  0.00  0.00     0.163 HD
ENDROOT
BRANCH   2   5
HETATM    5  C           1     -21.197  -5.746  -6.939  0.00  0.00     0.274 C 
BRANCH   5   6
HETATM    6  N           1     -19.906  -6.238  -7.525  0.00  0.00    -0.067 N 
HETATM    7  H           1     -20.105  -6.988  -8.225  0.00  0.00     0.275 HD
HETATM    8  H           1     -19.412  -5.446  -7.993  0.00  0.00     0.275 HD
HETATM    9  H           1     -19.303  -6.623  -6.764  0.00  0.00     0.275 HD
ENDBRANCH   5   6
BRANCH   5  10
HETATM   10  C           1     -20.970  -5.324  -5.494  0.00  0.00     0.045 C 
BRANCH  10  11
HETATM   11 Se           1     -21.784  -6.630  -4.299  0.00  0.00     0.000 Se
HETATM   12  H           1     -21.851  -7.692  -5.316  0.00  0.00     0.000 HD
ENDBRANCH  10  11
ENDBRANCH   5  10
ENDBRANCH   2   5
BRANCH   3  13
HETATM   13  C           1     -22.693  -3.618  -9.754  0.00  0.00     0.189 C 
BRANCH  13  14
HETATM   14  C           1     -24.154  -3.809 -10.078  0.00  0.00     0.197 C 
HETATM   15  O           1     -24.788  -2.903 -10.664  0.00  0.00    -0.646 OA
HETATM   16  O           1     -24.732  -4.870  -9.760  0.00  0.00    -0.646 OA
ENDBRANCH  13  14
BRANCH  13  17
HETATM   17  C           1     -21.896  -3.509 -11.046  0.00  0.00     0.010 C 
HETATM   18  C           1     -20.407  -3.511 -10.724  0.00  0.00     0.012 C 
HETATM   19  C           1     -22.222  -4.695 -11.945  0.00  0.00     0.012 C 
ENDBRANCH  13  17
ENDBRANCH   3  13
TORSDOF 7
ENDMDL
MODEL 2
REMARK VINA RESULT:      -5.5     10.133     11.629
REMARK  7 active torsions:
REMARK  status: ('A' for Active; 'I' for Inactive)
REMARK    1  A    between atoms: N_5  and  C_8 
REMARK    2  A    between atoms: Se_6  and  C_7 
REMARK    3  A    between atoms: C_7  and  C_8 
REMARK    4  A    between atoms: C_8  and  C_9 
REMARK       I    between atoms: C_9  and  N_10 
REMARK    5  A    between atoms: N_10  and  C_14 
REMARK    6  A    between atoms: C_13  and  C_14 
REMARK    7  A    between atoms: C_14  and  C_16 
ROOT
HETATM    1  O           1     -24.705  -6.394 -18.331  0.00  0.00    -0.271 OA
HETATM    2  C           1     -25.717  -6.814 -18.838  0.00  0.00     0.249 C 
HETATM    3  N           1     -26.919  -6.650 -18.204  0.00  0.00    -0.344 N 
HETATM    4  H           1     -27.768  -7.001 -18.630  0.00  0.00     0.163 HD
ENDROOT
BRANCH   2   5
HETATM    5  C           1     -25.657  -7.517 -20.172  0.00  0.00     0.274 C 
BRANCH   5   6
HETATM    6  N           1     -27.050  -7.833 -20.633  0.00  0.00    -0.067 N 
HETATM    7  H           1     -27.667  -7.005 -20.469  0.00  0.00     0.275 HD
HETATM    8  H           1     -27.035  -8.061 -21.652  0.00  0.00     0.275 HD
HETATM    9  H           1     -27.417  -8.652 -20.098  0.00  0.00     0.275 HD
ENDBRANCH   5   6
BRANCH   5  10
HETATM   10  C           1     -24.977  -6.615 -21.192  0.00  0.00     0.045 C 
BRANCH  10  11
HETATM   11 Se           1     -23.950  -7.702 -22.441  0.00  0.00     0.000 Se
HETATM   12  H           1     -22.849  -7.955 -21.496  0.00  0.00     0.000 HD
ENDBRANCH  10  11
ENDBRANCH   5  10
ENDBRANCH   2   5
BRANCH   3  13
HETATM   13  C           1     -26.977  -5.974 -16.922  0.00  0.00     0.189 C 
BRANCH  13  14
HETATM   14  C           1     -26.801  -6.983 -15.814  0.00  0.00     0.197 C 
HETATM   15  O           1     -25.654  -7.354 -15.483  0.00  0.00    -0.646 OA
HETATM   16  O           1     -27.802  -7.450 -15.229  0.00  0.00    -0.646 OA
ENDBRANCH  13  14
BRANCH  13  17
HETATM   17  C           1     -28.327  -5.285 -16.773  0.00  0.00     0.010 C 
HETATM   18  C           1     -28.132  -3.775 -16.816  0.00  0.00     0.012 C 
HETATM   19  C           1     -29.243  -5.712 -17.912  0.00  0.00     0.012 C 
ENDBRANCH  13  17
ENDBRANCH   3  13
TORSDOF 7
ENDMDL
MODEL 3
REMARK VINA RESULT:      -5.3     11.076     12.066
REMARK  7 active torsions:
REMARK  status: ('A' for Active; 'I' for Inactive)
REMARK    1  A    between atoms: N_5  and  C_8 
REMARK    2  A    between atoms: Se_6  and  C_7 
REMARK    3  A    between atoms: C_7  and  C_8 
REMARK    4  A    between atoms: C_8  and  C_9 
REMARK       I    between atoms: C_9  and  N_10 
REMARK    5  A    between atoms: N_10  and  C_14 
REMARK    6  A    between atoms: C_13  and  C_14 
REMARK    7  A    between atoms: C_14  and  C_16 
ROOT
HETATM    1  O           1     -26.072  -6.281 -17.162  0.00  0.00    -0.271 OA
HETATM    2  C           1     -26.361  -6.473 -18.318  0.00  0.00     0.249 C 
HETATM    3  N           1     -27.674  -6.584 -18.687  0.00  0.00    -0.344 N 
HETATM    4  H           1     -27.916  -6.744 -19.657  0.00  0.00     0.163 HD
ENDROOT
BRANCH   2   5
HETATM    5  C           1     -25.272  -6.590 -19.358  0.00  0.00     0.274 C 
BRANCH   5   6
HETATM    6  N           1     -24.186  -7.487 -18.843  0.00  0.00    -0.067 N 
HETATM    7  H           1     -23.371  -7.457 -19.497  0.00  0.00     0.275 HD
HETATM    8  H           1     -23.886  -7.163 -17.896  0.00  0.00     0.275 HD
HETATM    9  H           1     -24.544  -8.467 -18.779  0.00  0.00     0.275 HD
ENDBRANCH   5   6
BRANCH   5  10
HETATM   10  C           1     -25.852  -7.177 -20.637  0.00  0.00     0.045 C 
BRANCH  10  11
HETATM   11 Se           1     -24.405  -7.839 -21.762  0.00  0.00     0.000 Se
HETATM   12  H           1     -23.618  -6.598 -21.682  0.00  0.00     0.000 HD
ENDBRANCH  10  11
ENDBRANCH   5  10
ENDBRANCH   2   5
BRANCH   3  13
HETATM   13  C           1     -28.721  -6.471 -17.689  0.00  0.00     0.189 C 
BRANCH  13  14
HETATM   14  C           1     -29.522  -7.749 -17.657  0.00  0.00     0.197 C 
HETATM   15  O           1     -30.190  -8.093 -18.657  0.00  0.00    -0.646 OA
HETATM   16  O           1     -29.520  -8.464 -16.633  0.00  0.00    -0.646 OA
ENDBRANCH  13  14
BRANCH  13  17
HETATM   17  C           1     -29.635  -5.306 -18.041  0.00  0.00     0.010 C 
HETATM   18  C           1     -30.886  -5.365 -17.175  0.00  0.00     0.012 C 
HETATM   19  C           1     -28.904  -3.994 -17.790  0.00  0.00     0.012 C 
ENDBRANCH  13  17
ENDBRANCH   3  13
TORSDOF 7
ENDMDL
MODEL 4
REMARK VINA RESULT:      -4.7     18.380     19.103
REMARK  7 active torsions:
REMARK  status: ('A' for Active; 'I' for Inactive)
REMARK    1  A    between atoms: N_5  and  C_8 
REMARK    2  A    between atoms: Se_6  and  C_7 
REMARK    3  A    between atoms: C_7  and  C_8 
REMARK    4  A    between atoms: C_8  and  C_9 
REMARK       I    between atoms: C_9  and  N_10 
REMARK    5  A    between atoms: N_10  and  C_14 
REMARK    6  A    between atoms: C_13  and  C_14 
REMARK    7  A    between atoms: C_14  and  C_16 
ROOT
HETATM    1  O           1     -12.055   5.002 -18.934  0.00  0.00    -0.271 OA
HETATM    2  C           1     -11.461   5.584 -19.810  0.00  0.00     0.249 C 
HETATM    3  N           1     -11.922   5.539 -21.097  0.00  0.00    -0.344 N 
HETATM    4  H           1     -11.425   6.029 -21.831  0.00  0.00     0.163 HD
ENDROOT
BRANCH   2   5
HETATM    5  C           1     -10.210   6.364 -19.483  0.00  0.00     0.274 C 
BRANCH   5   6
HETATM    6  N           1      -9.316   5.530 -18.613  0.00  0.00    -0.067 N 
HETATM    7  H           1      -8.360   5.490 -19.033  0.00  0.00     0.275 HD
HETATM    8  H           1      -9.262   5.956 -17.661  0.00  0.00     0.275 HD
HETATM    9  H           1      -9.704   4.563 -18.540  0.00  0.00     0.275 HD
ENDBRANCH   5   6
BRANCH   5  10
HETATM   10  C           1      -9.479   6.716 -20.771  0.00  0.00     0.045 C 
BRANCH  10  11
HETATM   11 Se           1      -9.425   8.652 -20.980  0.00  0.00     0.000 Se
HETATM   12  H           1      -7.957   8.718 -21.071  0.00  0.00     0.000 HD
ENDBRANCH  10  11
ENDBRANCH   5  10
ENDBRANCH   2   5
BRANCH   3  13
HETATM   13  C           1     -13.124   4.791 -21.412  0.00  0.00     0.189 C 
BRANCH  13  14
HETATM   14  C           1     -12.755   3.365 -21.740  0.00  0.00     0.197 C 
HETATM   15  O           1     -13.550   2.436 -21.474  0.00  0.00    -0.646 OA
HETATM   16  O           1     -11.656   3.111 -22.276  0.00  0.00    -0.646 OA
ENDBRANCH  13  14
BRANCH  13  17
HETATM   17  C           1     -13.818   5.425 -22.609  0.00  0.00     0.010 C 
HETATM   18  C           1     -15.327   5.289 -22.451  0.00  0.00     0.012 C 
HETATM   19  C           1     -13.446   6.900 -22.689  0.00  0.00     0.012 C 
ENDBRANCH  13  17
ENDBRANCH   3  13
TORSDOF 7
ENDMDL
MODEL 5
REMARK VINA RESULT:      -4.7     17.609     19.073
REMARK  7 active torsions:
REMARK  status: ('A' for Active; 'I' for Inactive)
REMARK    1  A    between atoms: N_5  and  C_8 
REMARK    2  A    between atoms: Se_6  and  C_7 
REMARK    3  A    between atoms: C_7  and  C_8 
REMARK    4  A    between atoms: C_8  and  C_9 
REMARK       I    between atoms: C_9  and  N_10 
REMARK    5  A    between atoms: N_10  and  C_14 
REMARK    6  A    between atoms: C_13  and  C_14 
REMARK    7  A    between atoms: C_14  and  C_16 
ROOT
HETATM    1  O           1     -11.551   7.043 -22.057  0.00  0.00    -0.271 OA
HETATM    2  C           1     -11.382   6.873 -20.874  0.00  0.00     0.249 C 
HETATM    3  N           1     -12.002   5.833 -20.236  0.00  0.00    -0.344 N 
HETATM    4  H           1     -11.860   5.689 -19.244  0.00  0.00     0.163 HD
ENDROOT
BRANCH   2   5
HETATM    5  C           1     -10.487   7.808 -20.098  0.00  0.00     0.274 C 
BRANCH   5   6
HETATM    6  N           1      -9.094   7.740 -20.652  0.00  0.00    -0.067 N 
HETATM    7  H           1      -8.783   8.697 -20.932  0.00  0.00     0.275 HD
HETATM    8  H           1      -8.448   7.362 -19.924  0.00  0.00     0.275 HD
HETATM    9  H           1      -9.082   7.112 -21.487  0.00  0.00     0.275 HD
ENDBRANCH   5   6
BRANCH   5  10
HETATM   10  C           1     -11.012   9.232 -20.220  0.00  0.00     0.045 C 
BRANCH  10  11
HETATM   11 Se           1     -12.618   9.429 -19.134  0.00  0.00     0.000 Se
HETATM   12  H           1     -12.388   8.196 -18.362  0.00  0.00     0.000 HD
ENDBRANCH  10  11
ENDBRANCH   5  10
ENDBRANCH   2   5
BRANCH   3  13
HETATM   13  C           1     -12.862   4.933 -20.982  0.00  0.00     0.189 C 
BRANCH  13  14
HETATM   14  C           1     -14.304   5.318 -20.757  0.00  0.00     0.197 C 
HETATM   15  O           1     -15.029   5.621 -21.729  0.00  0.00    -0.646 OA
HETATM   16  O           1     -14.774   5.334 -19.599  0.00  0.00    -0.646 OA
ENDBRANCH  13  14
BRANCH  13  17
HETATM   17  C           1     -12.637   3.505 -20.506  0.00  0.00     0.010 C 
HETATM   18  C           1     -13.377   2.542 -21.426  0.00  0.00     0.012 C 
HETATM   19  C           1     -11.147   3.190 -20.535  0.00  0.00     0.012 C 
ENDBRANCH  13  17
ENDBRANCH   3  13
TORSDOF 7
ENDMDL
MODEL 6
REMARK VINA RESULT:      -4.7     17.772     18.997
REMARK  7 active torsions:
REMARK  status: ('A' for Active; 'I' for Inactive)
REMARK    1  A    between atoms: N_5  and  C_8 
REMARK    2  A    between atoms: Se_6  and  C_7 
REMARK    3  A    between atoms: C_7  and  C_8 
REMARK    4  A    between atoms: C_8  and  C_9 
REMARK       I    between atoms: C_9  and  N_10 
REMARK    5  A    between atoms: N_10  and  C_14 
REMARK    6  A    between atoms: C_13  and  C_14 
REMARK    7  A    between atoms: C_14  and  C_16 
ROOT
HETATM    1  O           1     -14.493   5.426 -19.680  0.00  0.00    -0.271 OA
HETATM    2  C           1     -14.078   5.489 -20.812  0.00  0.00     0.249 C 
HETATM    3  N           1     -12.870   6.079 -21.067  0.00  0.00    -0.344 N 
HETATM    4  H           1     -12.521   6.130 -22.016  0.00  0.00     0.163 HD
ENDROOT
BRANCH   2   5
HETATM    5  C           1     -14.891   4.914 -21.947  0.00  0.00     0.274 C 
BRANCH   5   6
HETATM    6  N           1     -15.284   6.015 -22.887  0.00  0.00    -0.067 N 
HETATM    7  H           1     -15.151   6.939 -22.417  0.00  0.00     0.275 HD
HETATM    8  H           1     -14.688   5.970 -23.744  0.00  0.00     0.275 HD
HETATM    9  H           1     -16.288   5.903 -23.155  0.00  0.00     0.275 HD
ENDBRANCH   5   6
BRANCH   5  10
HETATM   10  C           1     -14.061   3.880 -22.695  0.00  0.00     0.045 C 
BRANCH  10  11
HETATM   11 Se           1     -13.317   2.602 -21.427  0.00  0.00     0.000 Se
HETATM   12  H           1     -13.118   3.598 -20.361  0.00  0.00     0.000 HD
ENDBRANCH  10  11
ENDBRANCH   5  10
ENDBRANCH   2   5
BRANCH   3  13
HETATM   13  C           1     -12.088   6.631 -19.977  0.00  0.00     0.189 C 
BRANCH  13  14
HETATM   14  C           1     -12.306   8.123 -19.909  0.00  0.00     0.197 C 
HETATM   15  O           1     -11.932   8.764 -18.903  0.00  0.00    -0.646 OA
HETATM   16  O           1     -12.862   8.717 -20.857  0.00  0.00    -0.646 OA
ENDBRANCH  13  14
BRANCH  13  17
HETATM   17  C           1     -10.612   6.344 -20.215  0.00  0.00     0.010 C 
HETATM   18  C           1     -10.091   5.425 -19.117  0.00  0.00     0.012 C 
HETATM   19  C           1     -10.439   5.666 -21.568  0.00  0.00     0.012 C 
ENDBRANCH  13  17
ENDBRANCH   3  13
TORSDOF 7
ENDMDL
MODEL 7
REMARK VINA RESULT:      -4.6     18.413     19.866
REMARK  7 active torsions:
REMARK  status: ('A' for Active; 'I' for Inactive)
REMARK    1  A    between atoms: N_5  and  C_8 
REMARK    2  A    between atoms: Se_6  and  C_7 
REMARK    3  A    between atoms: C_7  and  C_8 
REMARK    4  A    between atoms: C_8  and  C_9 
REMARK       I    between atoms: C_9  and  N_10 
REMARK    5  A    between atoms: N_10  and  C_14 
REMARK    6  A    between atoms: C_13  and  C_14 
REMARK    7  A    between atoms: C_14  and  C_16 
ROOT
HETATM    1  O           1     -11.734   5.713 -19.323  0.00  0.00    -0.271 OA
HETATM    2  C           1     -12.440   6.263 -20.134  0.00  0.00     0.249 C 
HETATM    3  N           1     -12.071   7.473 -20.655  0.00  0.00    -0.344 N 
HETATM    4  H           1     -12.662   7.933 -21.336  0.00  0.00     0.163 HD
ENDROOT
BRANCH   2   5
HETATM    5  C           1     -13.729   5.613 -20.574  0.00  0.00     0.274 C 
BRANCH   5   6
HETATM    6  N           1     -13.825   5.658 -22.071  0.00  0.00    -0.067 N 
HETATM    7  H           1     -12.974   5.217 -22.488  0.00  0.00     0.275 HD
HETATM    8  H           1     -14.675   5.136 -22.381  0.00  0.00     0.275 HD
HETATM    9  H           1     -13.892   6.652 -22.387  0.00  0.00     0.275 HD
ENDBRANCH   5   6
BRANCH   5  10
HETATM   10  C           1     -13.753   4.164 -20.108  0.00  0.00     0.045 C 
BRANCH  10  11
HETATM   11 Se           1     -13.198   3.000 -21.569  0.00  0.00     0.000 Se
HETATM   12  H           1     -13.339   4.039 -22.604  0.00  0.00     0.000 HD
ENDBRANCH  10  11
ENDBRANCH   5  10
ENDBRANCH   2   5
BRANCH   3  13
HETATM   13  C           1     -10.831   8.098 -20.232  0.00  0.00     0.189 C 
BRANCH  13  14
HETATM   14  C           1     -11.068   8.867 -18.955  0.00  0.00     0.197 C 
HETATM   15  O           1     -10.125   9.054 -18.155  0.00  0.00    -0.646 OA
HETATM   16  O           1     -12.205   9.315 -18.697  0.00  0.00    -0.646 OA
ENDBRANCH  13  14
BRANCH  13  17
HETATM   17  C           1     -10.348   9.050 -21.317  0.00  0.00     0.010 C 
HETATM   18  C           1      -8.825   9.059 -21.341  0.00  0.00     0.012 C 
HETATM   19  C           1     -10.874   8.588 -22.670  0.00  0.00     0.012 C 
ENDBRANCH  13  17
ENDBRANCH   3  13
TORSDOF 7
ENDMDL
MODEL 8
REMARK VINA RESULT:      -4.6      3.880      6.790
REMARK  7 active torsions:
REMARK  status: ('A' for Active; 'I' for Inactive)
REMARK    1  A    between atoms: N_5  and  C_8 
REMARK    2  A    between atoms: Se_6  and  C_7 
REMARK    3  A    between atoms: C_7  and  C_8 
REMARK    4  A    between atoms: C_8  and  C_9 
REMARK       I    between atoms: C_9  and  N_10 
REMARK    5  A    between atoms: N_10  and  C_14 
REMARK    6  A    between atoms: C_13  and  C_14 
REMARK    7  A    between atoms: C_14  and  C_16 
ROOT
HETATM    1  O           1     -22.681  -5.876  -5.507  0.00  0.00    -0.271 OA
HETATM    2  C           1     -21.474  -5.922  -5.507  0.00  0.00     0.249 C 
HETATM    3  N           1     -20.821  -6.746  -4.631  0.00  0.00    -0.344 N 
HETATM    4  H           1     -19.810  -6.786  -4.632  0.00  0.00     0.163 HD
ENDROOT
BRANCH   2   5
HETATM    5  C           1     -20.687  -5.071  -6.473  0.00  0.00     0.274 C 
BRANCH   5   6
HETATM    6  N           1     -20.069  -5.949  -7.522  0.00  0.00    -0.067 N 
HETATM    7  H           1     -19.932  -6.910  -7.135  0.00  0.00     0.275 HD
HETATM    8  H           1     -20.700  -5.994  -8.353  0.00  0.00     0.275 HD
HETATM    9  H           1     -19.145  -5.553  -7.807  0.00  0.00     0.275 HD
ENDBRANCH   5   6
BRANCH   5  10
HETATM   10  C           1     -21.616  -4.065  -7.138  0.00  0.00     0.045 C 
BRANCH  10  11
HETATM   11 Se           1     -21.702  -4.422  -9.051  0.00  0.00     0.000 Se
HETATM   12  H           1     -20.658  -3.444  -9.399  0.00  0.00     0.000 HD
ENDBRANCH  10  11
ENDBRANCH   5  10
ENDBRANCH   2   5
BRANCH   3  13
HETATM   13  C           1     -21.578  -7.565  -3.702  0.00  0.00     0.189 C 
BRANCH  13  14
HETATM   14  C           1     -21.606  -6.893  -2.352  0.00  0.00     0.197 C 
HETATM   15  O           1     -20.952  -7.374  -1.401  0.00  0.00    -0.646 OA
HETATM   16  O           1     -22.284  -5.857  -2.182  0.00  0.00    -0.646 OA
ENDBRANCH  13  14
BRANCH  13  17
HETATM   17  C           1     -20.918  -8.931  -3.577  0.00  0.00     0.010 C 
HETATM   18  C           1     -21.889 -10.007  -4.046  0.00  0.00     0.012 C 
HETATM   19  C           1     -19.662  -8.969  -4.438  0.00  0.00     0.012 C 
ENDBRANCH  13  17
ENDBRANCH   3  13
TORSDOF 7
ENDMDL
MODEL 9
REMARK VINA RESULT:      -4.5      6.483      8.919
REMARK  7 active torsions:
REMARK  status: ('A' for Active; 'I' for Inactive)
REMARK    1  A    between atoms: N_5  and  C_8 
REMARK    2  A    between atoms: Se_6  and  C_7 
REMARK    3  A    between atoms: C_7  and  C_8 
REMARK    4  A    between atoms: C_8  and  C_9 
REMARK       I    between atoms: C_9  and  N_10 
REMARK    5  A    between atoms: N_10  and  C_14 
REMARK    6  A    between atoms: C_13  and  C_14 
REMARK    7  A    between atoms: C_14  and  C_16 
ROOT
HETATM    1  O           1     -19.340  -8.983  -2.875  0.00  0.00    -0.271 OA
HETATM    2  C           1     -20.383  -8.720  -3.424  0.00  0.00     0.249 C 
HETATM    3  N           1     -21.551  -8.717  -2.712  0.00  0.00    -0.344 N 
HETATM    4  H           1     -22.424  -8.495  -3.173  0.00  0.00     0.163 HD
ENDROOT
BRANCH   2   5
HETATM    5  C           1     -20.396  -8.393  -4.898  0.00  0.00     0.274 C 
BRANCH   5   6
HETATM    6  N           1     -20.585  -9.654  -5.688  0.00  0.00    -0.067 N 
HETATM    7  H           1     -20.576  -9.431  -6.709  0.00  0.00     0.275 HD
HETATM    8  H           1     -19.811 -10.321  -5.469  0.00  0.00     0.275 HD
HETATM    9  H           1     -21.501 -10.090  -5.435  0.00  0.00     0.275 HD
ENDBRANCH   5   6
BRANCH   5  10
HETATM   10  C           1     -21.539  -7.432  -5.195  0.00  0.00     0.045 C 
BRANCH  10  11
HETATM   11 Se           1     -20.849  -5.614  -5.310  0.00  0.00     0.000 Se
HETATM   12  H           1     -21.501  -5.163  -4.069  0.00  0.00     0.000 HD
ENDBRANCH  10  11
ENDBRANCH   5  10
ENDBRANCH   2   5
BRANCH   3  13
HETATM   13  C           1     -21.538  -9.030  -1.296  0.00  0.00     0.189 C 
BRANCH  13  14
HETATM   14  C           1     -22.062 -10.430  -1.088  0.00  0.00     0.197 C 
HETATM   15  O           1     -21.273 -11.357  -0.803  0.00  0.00    -0.646 OA
HETATM   16  O           1     -23.284 -10.664  -1.202  0.00  0.00    -0.646 OA
ENDBRANCH  13  14
BRANCH  13  17
HETATM   17  C           1     -22.421  -8.041  -0.549  0.00  0.00     0.010 C 
HETATM   18  C           1     -22.002  -7.992   0.915  0.00  0.00     0.012 C 
HETATM   19  C           1     -22.268  -6.657  -1.167  0.00  0.00     0.012 C 
ENDBRANCH  13  17
ENDBRANCH   3  13
TORSDOF 7
ENDMDL
