MODEL 1
REMARK VINA RESULT:      -5.8      0.000      0.000
REMARK  9 active torsions:
REMARK  status: ('A' for Active; 'I' for Inactive)
REMARK    1  A    between atoms: N_1  and  C_19 
REMARK       I    between atoms: N_1  and  C_2 
REMARK    2  A    between atoms: C_2  and  C_3 
REMARK    3  A    between atoms: C_3  and  C_4 
REMARK    4  A    between atoms: C_3  and  N_13 
REMARK    5  A    between atoms: C_4  and  C_5 
REMARK    6  A    between atoms: C_5  and  C_8 
REMARK    7  A    between atoms: C_18  and  C_19 
REMARK    8  A    between atoms: C_19  and  C_20 
REMARK    9  A    between atoms: C_20  and  Se_21 
ROOT
HETATM    1  N           1     -35.326  -0.823 -12.648  0.00  0.00    -0.345 N 
HETATM    2  C           1     -34.585  -1.973 -12.585  0.00  0.00     0.249 C 
HETATM    3  O           1     -34.670  -2.795 -13.467  0.00  0.00    -0.271 OA
HETATM    4  H           1     -35.254  -0.134 -11.910  0.00  0.00     0.163 HD
ENDROOT
BRANCH   2   5
HETATM    5  C           1     -33.663  -2.213 -11.416  0.00  0.00     0.275 C 
BRANCH   5   6
HETATM    6  C           1     -33.175  -3.656 -11.441  0.00  0.00     0.053 C 
BRANCH   6   7
HETATM    7  C           1     -33.985  -4.483 -10.451  0.00  0.00     0.115 C 
BRANCH   7   8
HETATM    8  C           1     -34.405  -5.777 -11.104  0.00  0.00     0.172 C 
HETATM    9  O           1     -34.833  -5.775 -12.279  0.00  0.00    -0.648 OA
HETATM   10  O           1     -34.327  -6.852 -10.470  0.00  0.00    -0.648 OA
ENDBRANCH   7   8
ENDBRANCH   6   7
ENDBRANCH   5   6
BRANCH   5  11
HETATM   11  N           1     -34.402  -1.958 -10.136  0.00  0.00    -0.066 N 
HETATM   12  H           1     -35.033  -1.134 -10.258  0.00  0.00     0.275 HD
HETATM   13  H           1     -34.969  -2.800  -9.887  0.00  0.00     0.275 HD
HETATM   14  H           1     -33.717  -1.762  -9.371  0.00  0.00     0.275 HD
ENDBRANCH   5  11
ENDBRANCH   2   5
BRANCH   1  15
HETATM   15  C           1     -36.213  -0.591 -13.771  0.00  0.00     0.185 C 
BRANCH  15  16
HETATM   16  C           1     -35.583   0.408 -14.710  0.00  0.00     0.196 C 
HETATM   17  O           1     -34.377   0.713 -14.580  0.00  0.00    -0.646 OA
HETATM   18  O           1     -36.264   0.931 -15.618  0.00  0.00    -0.646 OA
ENDBRANCH  15  16
BRANCH  15  19
HETATM   19  C           1     -37.541  -0.047 -13.265  0.00  0.00     0.039 C 
BRANCH  19  20
HETATM   20 Se           1     -37.592  -0.161 -11.320  0.00  0.00     0.000 Se
HETATM   21  H           1     -36.206   0.302 -11.140  0.00  0.00     0.000 HD
ENDBRANCH  19  20
ENDBRANCH  15  19
ENDBRANCH   1  15
TORSDOF 9
ENDMDL
MODEL 2
REMARK VINA RESULT:      -5.7     13.015     14.465
REMARK  9 active torsions:
REMARK  status: ('A' for Active; 'I' for Inactive)
REMARK    1  A    between atoms: N_1  and  C_19 
REMARK       I    between atoms: N_1  and  C_2 
REMARK    2  A    between atoms: C_2  and  C_3 
REMARK    3  A    between atoms: C_3  and  C_4 
REMARK    4  A    between atoms: C_3  and  N_13 
REMARK    5  A    between atoms: C_4  and  C_5 
REMARK    6  A    between atoms: C_5  and  C_8 
REMARK    7  A    between atoms: C_18  and  C_19 
REMARK    8  A    between atoms: C_19  and  C_20 
REMARK    9  A    between atoms: C_20  and  Se_21 
ROOT
HETATM    1  N           1     -22.317  -4.791  -9.003  0.00  0.00    -0.345 N 
HETATM    2  C           1     -21.830  -4.662  -7.730  0.00  0.00     0.249 C 
HETATM    3  O           1     -21.849  -3.585  -7.182  0.00  0.00    -0.271 OA
HETATM    4  H           1     -22.301  -5.693  -9.461  0.00  0.00     0.163 HD
ENDROOT
BRANCH   2   5
HETATM    5  C           1     -21.269  -5.864  -7.011  0.00  0.00     0.275 C 
BRANCH   5   6
HETATM    6  C           1     -21.238  -5.592  -5.513  0.00  0.00     0.053 C 
BRANCH   6   7
HETATM    7  C           1     -22.141  -6.587  -4.796  0.00  0.00     0.115 C 
BRANCH   7   8
HETATM    8  C           1     -21.787  -6.622  -3.330  0.00  0.00     0.172 C 
HETATM    9  O           1     -22.415  -5.906  -2.518  0.00  0.00    -0.648 OA
HETATM   10  O           1     -20.868  -7.365  -2.925  0.00  0.00    -0.648 OA
ENDBRANCH   7   8
ENDBRANCH   6   7
ENDBRANCH   5   6
BRANCH   5  11
HETATM   11  N           1     -19.876  -6.132  -7.499  0.00  0.00    -0.066 N 
HETATM   12  H           1     -19.375  -5.226  -7.635  0.00  0.00     0.275 HD
HETATM   13  H           1     -19.366  -6.712  -6.794  0.00  0.00     0.275 HD
HETATM   14  H           1     -19.918  -6.647  -8.407  0.00  0.00     0.275 HD
ENDBRANCH   5  11
ENDBRANCH   2   5
BRANCH   1  15
HETATM   15  C           1     -22.856  -3.636  -9.694  0.00  0.00     0.185 C 
BRANCH  15  16
HETATM   16  C           1     -24.270  -3.929 -10.134  0.00  0.00     0.196 C 
HETATM   17  O           1     -24.905  -3.082 -10.799  0.00  0.00    -0.646 OA
HETATM   18  O           1     -24.806  -5.017  -9.833  0.00  0.00    -0.646 OA
ENDBRANCH  15  16
BRANCH  15  19
HETATM   19  C           1     -21.998  -3.328 -10.913  0.00  0.00     0.039 C 
BRANCH  19  20
HETATM   20 Se           1     -20.349  -4.365 -10.826  0.00  0.00     0.000 Se
HETATM   21  H           1     -20.108  -4.079  -9.401  0.00  0.00     0.000 HD
ENDBRANCH  19  20
ENDBRANCH  15  19
ENDBRANCH   1  15
TORSDOF 9
ENDMDL
MODEL 3
REMARK VINA RESULT:      -5.6     11.076     11.959
REMARK  9 active torsions:
REMARK  status: ('A' for Active; 'I' for Inactive)
REMARK    1  A    between atoms: N_1  and  C_19 
REMARK       I    between atoms: N_1  and  C_2 
REMARK    2  A    between atoms: C_2  and  C_3 
REMARK    3  A    between atoms: C_3  and  C_4 
REMARK    4  A    between atoms: C_3  and  N_13 
REMARK    5  A    between atoms: C_4  and  C_5 
REMARK    6  A    between atoms: C_5  and  C_8 
REMARK    7  A    between atoms: C_18  and  C_19 
REMARK    8  A    between atoms: C_19  and  C_20 
REMARK    9  A    between atoms: C_20  and  Se_21 
ROOT
HETATM    1  N           1     -27.323  -7.028 -19.230  0.00  0.00    -0.345 N 
HETATM    2  C           1     -28.221  -6.141 -18.698  0.00  0.00     0.249 C 
HETATM    3  O           1     -28.587  -5.190 -19.346  0.00  0.00    -0.271 OA
HETATM    4  H           1     -27.018  -7.826 -18.688  0.00  0.00     0.163 HD
ENDROOT
BRANCH   2   5
HETATM    5  C           1     -28.753  -6.354 -17.302  0.00  0.00     0.275 C 
BRANCH   5   6
HETATM    6  C           1     -27.738  -5.843 -16.288  0.00  0.00     0.053 C 
BRANCH   6   7
HETATM    7  C           1     -27.023  -7.023 -15.643  0.00  0.00     0.115 C 
BRANCH   7   8
HETATM    8  C           1     -25.531  -6.823 -15.744  0.00  0.00     0.172 C 
HETATM    9  O           1     -25.058  -5.667 -15.815  0.00  0.00    -0.648 OA
HETATM   10  O           1     -24.766  -7.811 -15.756  0.00  0.00    -0.648 OA
ENDBRANCH   7   8
ENDBRANCH   6   7
ENDBRANCH   5   6
BRANCH   5  11
HETATM   11  N           1     -28.990  -7.818 -17.075  0.00  0.00    -0.066 N 
HETATM   12  H           1     -28.647  -8.357 -17.902  0.00  0.00     0.275 HD
HETATM   13  H           1     -28.478  -8.125 -16.218  0.00  0.00     0.275 HD
HETATM   14  H           1     -30.013  -7.989 -16.949  0.00  0.00     0.275 HD
ENDBRANCH   5  11
ENDBRANCH   2   5
BRANCH   1  15
HETATM   15  C           1     -26.812  -6.825 -20.572  0.00  0.00     0.185 C 
BRANCH  15  16
HETATM   16  C           1     -26.700  -8.156 -21.274  0.00  0.00     0.196 C 
HETATM   17  O           1     -27.698  -8.906 -21.352  0.00  0.00    -0.646 OA
HETATM   18  O           1     -25.612  -8.510 -21.777  0.00  0.00    -0.646 OA
ENDBRANCH  15  16
BRANCH  15  19
HETATM   19  C           1     -25.438  -6.172 -20.497  0.00  0.00     0.039 C 
BRANCH  19  20
HETATM   20 Se           1     -24.359  -7.081 -19.152  0.00  0.00     0.000 Se
HETATM   21  H           1     -25.231  -6.701 -18.027  0.00  0.00     0.000 HD
ENDBRANCH  19  20
ENDBRANCH  15  19
ENDBRANCH   1  15
TORSDOF 9
ENDMDL
MODEL 4
REMARK VINA RESULT:      -5.6     10.662     11.711
REMARK  9 active torsions:
REMARK  status: ('A' for Active; 'I' for Inactive)
REMARK    1  A    between atoms: N_1  and  C_19 
REMARK       I    between atoms: N_1  and  C_2 
REMARK    2  A    between atoms: C_2  and  C_3 
REMARK    3  A    between atoms: C_3  and  C_4 
REMARK    4  A    between atoms: C_3  and  N_13 
REMARK    5  A    between atoms: C_4  and  C_5 
REMARK    6  A    between atoms: C_5  and  C_8 
REMARK    7  A    between atoms: C_18  and  C_19 
REMARK    8  A    between atoms: C_19  and  C_20 
REMARK    9  A    between atoms: C_20  and  Se_21 
ROOT
HETATM    1  N           1     -27.443  -6.587 -17.084  0.00  0.00    -0.345 N 
HETATM    2  C           1     -26.232  -6.901 -16.529  0.00  0.00     0.249 C 
HETATM    3  O           1     -26.176  -7.317 -15.396  0.00  0.00    -0.271 OA
HETATM    4  H           1     -27.490  -6.240 -18.033  0.00  0.00     0.163 HD
ENDROOT
BRANCH   2   5
HETATM    5  C           1     -24.966  -6.729 -17.332  0.00  0.00     0.275 C 
BRANCH   5   6
HETATM    6  C           1     -25.298  -6.771 -18.818  0.00  0.00     0.053 C 
BRANCH   6   7
HETATM    7  C           1     -24.170  -7.464 -19.572  0.00  0.00     0.115 C 
BRANCH   7   8
HETATM    8  C           1     -24.668  -7.905 -20.926  0.00  0.00     0.172 C 
HETATM    9  O           1     -23.879  -7.957 -21.895  0.00  0.00    -0.648 OA
HETATM   10  O           1     -25.868  -8.219 -21.080  0.00  0.00    -0.648 OA
ENDBRANCH   7   8
ENDBRANCH   6   7
ENDBRANCH   5   6
BRANCH   5  11
HETATM   11  N           1     -24.011  -7.837 -17.002  0.00  0.00    -0.066 N 
HETATM   12  H           1     -24.316  -8.307 -16.121  0.00  0.00     0.275 HD
HETATM   13  H           1     -23.998  -8.530 -17.784  0.00  0.00     0.275 HD
HETATM   14  H           1     -23.052  -7.442 -16.872  0.00  0.00     0.275 HD
ENDBRANCH   5  11
ENDBRANCH   2   5
BRANCH   1  15
HETATM   15  C           1     -28.660  -6.752 -16.312  0.00  0.00     0.185 C 
BRANCH  15  16
HETATM   16  C           1     -29.762  -7.252 -17.215  0.00  0.00     0.196 C 
HETATM   17  O           1     -29.553  -8.219 -17.979  0.00  0.00    -0.646 OA
HETATM   18  O           1     -30.883  -6.699 -17.198  0.00  0.00    -0.646 OA
ENDBRANCH  15  16
BRANCH  15  19
HETATM   19  C           1     -29.063  -5.414 -15.709  0.00  0.00     0.039 C 
BRANCH  19  20
HETATM   20 Se           1     -28.522  -3.972 -16.903  0.00  0.00     0.000 Se
HETATM   21  H           1     -27.495  -3.445 -15.989  0.00  0.00     0.000 HD
ENDBRANCH  19  20
ENDBRANCH  15  19
ENDBRANCH   1  15
TORSDOF 9
ENDMDL
MODEL 5
REMARK VINA RESULT:      -5.3     10.861     12.034
REMARK  9 active torsions:
REMARK  status: ('A' for Active; 'I' for Inactive)
REMARK    1  A    between atoms: N_1  and  C_19 
REMARK       I    between atoms: N_1  and  C_2 
REMARK    2  A    between atoms: C_2  and  C_3 
REMARK    3  A    between atoms: C_3  and  C_4 
REMARK    4  A    between atoms: C_3  and  N_13 
REMARK    5  A    between atoms: C_4  and  C_5 
REMARK    6  A    between atoms: C_5  and  C_8 
REMARK    7  A    between atoms: C_18  and  C_19 
REMARK    8  A    between atoms: C_19  and  C_20 
REMARK    9  A    between atoms: C_20  and  Se_21 
ROOT
HETATM    1  N           1     -26.156  -6.960 -19.058  0.00  0.00    -0.345 N 
HETATM    2  C           1     -27.252  -6.238 -19.449  0.00  0.00     0.249 C 
HETATM    3  O           1     -27.188  -5.523 -20.421  0.00  0.00    -0.271 OA
HETATM    4  H           1     -26.210  -7.560 -18.245  0.00  0.00     0.163 HD
ENDROOT
BRANCH   2   5
HETATM    5  C           1     -28.539  -6.336 -18.667  0.00  0.00     0.275 C 
BRANCH   5   6
HETATM    6  C           1     -29.205  -4.968 -18.612  0.00  0.00     0.053 C 
BRANCH   6   7
HETATM    7  C           1     -29.650  -4.676 -17.185  0.00  0.00     0.115 C 
BRANCH   7   8
HETATM    8  C           1     -31.078  -4.189 -17.193  0.00  0.00     0.172 C 
HETATM    9  O           1     -32.011  -4.986 -16.950  0.00  0.00    -0.648 OA
HETATM   10  O           1     -31.330  -2.991 -17.442  0.00  0.00    -0.648 OA
ENDBRANCH   7   8
ENDBRANCH   6   7
ENDBRANCH   5   6
BRANCH   5  11
HETATM   11  N           1     -28.241  -6.803 -17.273  0.00  0.00    -0.066 N 
HETATM   12  H           1     -28.749  -7.697 -17.090  0.00  0.00     0.275 HD
HETATM   13  H           1     -27.213  -6.956 -17.169  0.00  0.00     0.275 HD
HETATM   14  H           1     -28.555  -6.078 -16.589  0.00  0.00     0.275 HD
ENDBRANCH   5  11
ENDBRANCH   2   5
BRANCH   1  15
HETATM   15  C           1     -24.920  -6.867 -19.809  0.00  0.00     0.185 C 
BRANCH  15  16
HETATM   16  C           1     -24.876  -7.966 -20.843  0.00  0.00     0.196 C 
HETATM   17  O           1     -25.941  -8.425 -21.311  0.00  0.00    -0.646 OA
HETATM   18  O           1     -23.777  -8.415 -21.233  0.00  0.00    -0.646 OA
ENDBRANCH  15  16
BRANCH  15  19
HETATM   19  C           1     -23.738  -7.014 -18.861  0.00  0.00     0.039 C 
BRANCH  19  20
HETATM   20 Se           1     -24.392  -7.285 -17.045  0.00  0.00     0.000 Se
HETATM   21  H           1     -25.792  -7.486 -17.454  0.00  0.00     0.000 HD
ENDBRANCH  19  20
ENDBRANCH  15  19
ENDBRANCH   1  15
TORSDOF 9
ENDMDL
MODEL 6
REMARK VINA RESULT:      -5.2     14.149     16.485
REMARK  9 active torsions:
REMARK  status: ('A' for Active; 'I' for Inactive)
REMARK    1  A    between atoms: N_1  and  C_19 
REMARK       I    between atoms: N_1  and  C_2 
REMARK    2  A    between atoms: C_2  and  C_3 
REMARK    3  A    between atoms: C_3  and  C_4 
REMARK    4  A    between atoms: C_3  and  N_13 
REMARK    5  A    between atoms: C_4  and  C_5 
REMARK    6  A    between atoms: C_5  and  C_8 
REMARK    7  A    between atoms: C_18  and  C_19 
REMARK    8  A    between atoms: C_19  and  C_20 
REMARK    9  A    between atoms: C_20  and  Se_21 
ROOT
HETATM    1  N           1     -20.905  -6.631  -4.927  0.00  0.00    -0.345 N 
HETATM    2  C           1     -21.502  -5.721  -5.758  0.00  0.00     0.249 C 
HETATM    3  O           1     -22.702  -5.584  -5.741  0.00  0.00    -0.271 OA
HETATM    4  H           1     -19.900  -6.746  -4.940  0.00  0.00     0.163 HD
ENDROOT
BRANCH   2   5
HETATM    5  C           1     -20.660  -4.891  -6.695  0.00  0.00     0.275 C 
BRANCH   5   6
HETATM    6  C           1     -21.539  -3.856  -7.386  0.00  0.00     0.053 C 
BRANCH   6   7
HETATM    7  C           1     -21.452  -4.041  -8.895  0.00  0.00     0.115 C 
BRANCH   7   8
HETATM    8  C           1     -22.798  -3.753  -9.515  0.00  0.00     0.172 C 
HETATM    9  O           1     -22.869  -3.364 -10.702  0.00  0.00    -0.648 OA
HETATM   10  O           1     -23.841  -3.902  -8.843  0.00  0.00    -0.648 OA
ENDBRANCH   7   8
ENDBRANCH   6   7
ENDBRANCH   5   6
BRANCH   5  11
HETATM   11  N           1     -20.034  -5.782  -7.726  0.00  0.00    -0.066 N 
HETATM   12  H           1     -19.344  -5.233  -8.287  0.00  0.00     0.275 HD
HETATM   13  H           1     -19.547  -6.575  -7.252  0.00  0.00     0.275 HD
HETATM   14  H           1     -20.776  -6.158  -8.359  0.00  0.00     0.275 HD
ENDBRANCH   5  11
ENDBRANCH   2   5
BRANCH   1  15
HETATM   15  C           1     -21.713  -7.430  -4.026  0.00  0.00     0.185 C 
BRANCH  15  16
HETATM   16  C           1     -21.612  -6.867  -2.629  0.00  0.00     0.196 C 
HETATM   17  O           1     -20.821  -7.377  -1.807  0.00  0.00    -0.646 OA
HETATM   18  O           1     -22.319  -5.893  -2.294  0.00  0.00    -0.646 OA
ENDBRANCH  15  16
BRANCH  15  19
HETATM   19  C           1     -21.211  -8.867  -4.033  0.00  0.00     0.039 C 
BRANCH  19  20
HETATM   20 Se           1     -19.475  -8.944  -4.916  0.00  0.00     0.000 Se
HETATM   21  H           1     -20.007  -8.610  -6.248  0.00  0.00     0.000 HD
ENDBRANCH  19  20
ENDBRANCH  15  19
ENDBRANCH   1  15
TORSDOF 9
ENDMDL
MODEL 7
REMARK VINA RESULT:      -5.1     25.835     26.775
REMARK  9 active torsions:
REMARK  status: ('A' for Active; 'I' for Inactive)
REMARK    1  A    between atoms: N_1  and  C_19 
REMARK       I    between atoms: N_1  and  C_2 
REMARK    2  A    between atoms: C_2  and  C_3 
REMARK    3  A    between atoms: C_3  and  C_4 
REMARK    4  A    between atoms: C_3  and  N_13 
REMARK    5  A    between atoms: C_4  and  C_5 
REMARK    6  A    between atoms: C_5  and  C_8 
REMARK    7  A    between atoms: C_18  and  C_19 
REMARK    8  A    between atoms: C_19  and  C_20 
REMARK    9  A    between atoms: C_20  and  Se_21 
ROOT
HETATM    1  N           1     -12.295   7.562 -19.824  0.00  0.00    -0.345 N 
HETATM    2  C           1     -12.368   6.857 -20.996  0.00  0.00     0.249 C 
HETATM    3  O           1     -12.188   7.419 -22.051  0.00  0.00    -0.271 OA
HETATM    4  H           1     -12.445   7.092 -18.941  0.00  0.00     0.163 HD
ENDROOT
BRANCH   2   5
HETATM    5  C           1     -12.674   5.380 -20.970  0.00  0.00     0.275 C 
BRANCH   5   6
HETATM    6  C           1     -12.067   4.757 -19.720  0.00  0.00     0.053 C 
BRANCH   6   7
HETATM    7  C           1     -10.611   4.398 -19.987  0.00  0.00     0.115 C 
BRANCH   7   8
HETATM    8  C           1      -9.713   5.435 -19.358  0.00  0.00     0.172 C 
HETATM    9  O           1      -9.777   5.655 -18.129  0.00  0.00    -0.648 OA
HETATM   10  O           1      -8.906   6.075 -20.066  0.00  0.00    -0.648 OA
ENDBRANCH   7   8
ENDBRANCH   6   7
ENDBRANCH   5   6
BRANCH   5  11
HETATM   11  N           1     -12.089   4.728 -22.187  0.00  0.00    -0.066 N 
HETATM   12  H           1     -12.856   4.304 -22.757  0.00  0.00     0.275 HD
HETATM   13  H           1     -11.583   5.443 -22.757  0.00  0.00     0.275 HD
HETATM   14  H           1     -11.420   3.981 -21.894  0.00  0.00     0.275 HD
ENDBRANCH   5  11
ENDBRANCH   2   5
BRANCH   1  15
HETATM   15  C           1     -12.001   8.982 -19.848  0.00  0.00     0.185 C 
BRANCH  15  16
HETATM   16  C           1     -10.563   9.203 -19.447  0.00  0.00     0.196 C 
HETATM   17  O           1      -9.741   9.637 -20.284  0.00  0.00    -0.646 OA
HETATM   18  O           1     -10.193   8.954 -18.280  0.00  0.00    -0.646 OA
ENDBRANCH  15  16
BRANCH  15  19
HETATM   19  C           1     -12.919   9.706 -18.873  0.00  0.00     0.039 C 
BRANCH  19  20
HETATM   20 Se           1     -13.763  11.214 -19.773  0.00  0.00     0.000 Se
HETATM   21  H           1     -14.605  11.580 -18.621  0.00  0.00     0.000 HD
ENDBRANCH  19  20
ENDBRANCH  15  19
ENDBRANCH   1  15
TORSDOF 9
ENDMDL
MODEL 8
REMARK VINA RESULT:      -5.1     25.492     26.583
REMARK  9 active torsions:
REMARK  status: ('A' for Active; 'I' for Inactive)
REMARK    1  A    between atoms: N_1  and  C_19 
REMARK       I    between atoms: N_1  and  C_2 
REMARK    2  A    between atoms: C_2  and  C_3 
REMARK    3  A    between atoms: C_3  and  C_4 
REMARK    4  A    between atoms: C_3  and  N_13 
REMARK    5  A    between atoms: C_4  and  C_5 
REMARK    6  A    between atoms: C_5  and  C_8 
REMARK    7  A    between atoms: C_18  and  C_19 
REMARK    8  A    between atoms: C_19  and  C_20 
REMARK    9  A    between atoms: C_20  and  Se_21 
ROOT
HETATM    1  N           1     -10.963   7.278 -20.837  0.00  0.00    -0.345 N 
HETATM    2  C           1     -10.098   6.219 -20.769  0.00  0.00     0.249 C 
HETATM    3  O           1      -8.955   6.394 -20.419  0.00  0.00    -0.271 OA
HETATM    4  H           1     -11.920   7.130 -21.130  0.00  0.00     0.163 HD
ENDROOT
BRANCH   2   5
HETATM    5  C           1     -10.572   4.832 -21.130  0.00  0.00     0.275 C 
BRANCH   5   6
HETATM    6  C           1     -11.857   4.931 -21.941  0.00  0.00     0.053 C 
BRANCH   6   7
HETATM    7  C           1     -12.985   4.230 -21.194  0.00  0.00     0.115 C 
BRANCH   7   8
HETATM    8  C           1     -13.943   5.261 -20.649  0.00  0.00     0.172 C 
HETATM    9  O           1     -13.547   6.103 -19.813  0.00  0.00    -0.648 OA
HETATM   10  O           1     -15.132   5.274 -21.033  0.00  0.00    -0.648 OA
ENDBRANCH   7   8
ENDBRANCH   6   7
ENDBRANCH   5   6
BRANCH   5  11
HETATM   11  N           1     -10.831   4.051 -19.877  0.00  0.00    -0.066 N 
HETATM   12  H           1      -9.993   3.469 -19.651  0.00  0.00     0.275 HD
HETATM   13  H           1     -11.022   4.710 -19.089  0.00  0.00     0.275 HD
HETATM   14  H           1     -11.659   3.429 -20.019  0.00  0.00     0.275 HD
ENDBRANCH   5  11
ENDBRANCH   2   5
BRANCH   1  15
HETATM   15  C           1     -10.508   8.610 -20.490  0.00  0.00     0.185 C 
BRANCH  15  16
HETATM   16  C           1     -10.911   8.924 -19.070  0.00  0.00     0.196 C 
HETATM   17  O           1     -10.037   9.038 -18.184  0.00  0.00    -0.646 OA
HETATM   18  O           1     -12.118   9.069 -18.780  0.00  0.00    -0.646 OA
ENDBRANCH  15  16
BRANCH  15  19
HETATM   19  C           1     -11.140   9.623 -21.434  0.00  0.00     0.039 C 
BRANCH  19  20
HETATM   20 Se           1     -12.617   8.787 -22.392  0.00  0.00     0.000 Se
HETATM   21  H           1     -11.761   8.208 -23.442  0.00  0.00     0.000 HD
ENDBRANCH  19  20
ENDBRANCH  15  19
ENDBRANCH   1  15
TORSDOF 9
ENDMDL
MODEL 9
REMARK VINA RESULT:      -5.1     13.512     15.816
REMARK  9 active torsions:
REMARK  status: ('A' for Active; 'I' for Inactive)
REMARK    1  A    between atoms: N_1  and  C_19 
REMARK       I    between atoms: N_1  and  C_2 
REMARK    2  A    between atoms: C_2  and  C_3 
REMARK    3  A    between atoms: C_3  and  C_4 
REMARK    4  A    between atoms: C_3  and  N_13 
REMARK    5  A    between atoms: C_4  and  C_5 
REMARK    6  A    between atoms: C_5  and  C_8 
REMARK    7  A    between atoms: C_18  and  C_19 
REMARK    8  A    between atoms: C_19  and  C_20 
REMARK    9  A    between atoms: C_20  and  Se_21 
ROOT
HETATM    1  N           1     -21.155  -6.178  -6.590  0.00  0.00    -0.345 N 
HETATM    2  C           1     -20.836  -4.878  -6.880  0.00  0.00     0.249 C 
HETATM    3  O           1     -20.344  -4.173  -6.031  0.00  0.00    -0.271 OA
HETATM    4  H           1     -21.566  -6.769  -7.301  0.00  0.00     0.163 HD
ENDROOT
BRANCH   2   5
HETATM    5  C           1     -21.096  -4.328  -8.260  0.00  0.00     0.275 C 
BRANCH   5   6
HETATM    6  C           1     -22.416  -4.877  -8.786  0.00  0.00     0.053 C 
BRANCH   6   7
HETATM    7  C           1     -23.366  -3.724  -9.081  0.00  0.00     0.115 C 
BRANCH   7   8
HETATM    8  C           1     -24.102  -3.996 -10.370  0.00  0.00     0.172 C 
HETATM    9  O           1     -25.006  -3.219 -10.750  0.00  0.00    -0.648 OA
HETATM   10  O           1     -23.809  -4.997 -11.058  0.00  0.00    -0.648 OA
ENDBRANCH   7   8
ENDBRANCH   6   7
ENDBRANCH   5   6
BRANCH   5  11
HETATM   11  N           1     -19.984  -4.737  -9.179  0.00  0.00    -0.066 N 
HETATM   12  H           1     -19.338  -5.386  -8.675  0.00  0.00     0.275 HD
HETATM   13  H           1     -20.383  -5.220 -10.016  0.00  0.00     0.275 HD
HETATM   14  H           1     -19.456  -3.889  -9.487  0.00  0.00     0.275 HD
ENDBRANCH   5  11
ENDBRANCH   2   5
BRANCH   1  15
HETATM   15  C           1     -20.905  -6.708  -5.264  0.00  0.00     0.185 C 
BRANCH  15  16
HETATM   16  C           1     -20.385  -8.120  -5.378  0.00  0.00     0.196 C 
HETATM   17  O           1     -19.265  -8.333  -5.889  0.00  0.00    -0.646 OA
HETATM   18  O           1     -21.074  -9.076  -4.961  0.00  0.00    -0.646 OA
ENDBRANCH  15  16
BRANCH  15  19
HETATM   19  C           1     -22.201  -6.706  -4.464  0.00  0.00     0.039 C 
BRANCH  19  20
HETATM   20 Se           1     -21.810  -6.325  -2.593  0.00  0.00     0.000 Se
HETATM   21  H           1     -22.206  -4.910  -2.677  0.00  0.00     0.000 HD
ENDBRANCH  19  20
ENDBRANCH  15  19
ENDBRANCH   1  15
TORSDOF 9
ENDMDL
