MODEL 1
REMARK VINA RESULT:      -7.3      0.000      0.000
REMARK  8 active torsions:
REMARK  status: ('A' for Active; 'I' for Inactive)
REMARK    1  A    between atoms: N_1  and  C_8 
REMARK       I    between atoms: N_1  and  C_21 
REMARK       I    between atoms: N_4  and  C_5 
REMARK    2  A    between atoms: C_5  and  C_19 
REMARK    3  A    between atoms: C_7  and  C_8 
REMARK    4  A    between atoms: C_8  and  C_19 
REMARK    5  A    between atoms: C_13  and  C_20 
REMARK    6  A    between atoms: C_13  and  C_14 
REMARK    7  A    between atoms: N_15  and  C_20 
REMARK    8  A    between atoms: C_20  and  C_21 
ROOT
HETATM    1  N           1     -22.267  -4.853  -8.629  0.00  0.00    -0.344 N 
HETATM    2  H           1     -22.426  -5.843  -8.760  0.00  0.00     0.163 HD
HETATM    3  O           1     -21.411  -3.224  -7.364  0.00  0.00    -0.271 OA
HETATM    4  C           1     -21.601  -4.406  -7.520  0.00  0.00     0.249 C 
ENDROOT
BRANCH   4   5
HETATM    5  C           1     -21.101  -5.392  -6.493  0.00  0.00     0.278 C 
BRANCH   5   6
HETATM    6  C           1     -22.265  -5.862  -5.630  0.00  0.00     0.081 C 
BRANCH   6   7
HETATM    7  C           1     -21.753  -6.752  -4.541  0.00  0.00    -0.056 A 
HETATM    8  C           1     -21.839  -6.345  -3.209  0.00  0.00     0.007 A 
HETATM    9  C           1     -21.362  -7.174  -2.195  0.00  0.00     0.001 A 
HETATM   10  C           1     -20.799  -8.411  -2.512  0.00  0.00     0.000 A 
HETATM   11  C           1     -20.714  -8.819  -3.843  0.00  0.00     0.001 A 
HETATM   12  C           1     -21.191  -7.989  -4.858  0.00  0.00     0.007 A 
ENDBRANCH   6   7
ENDBRANCH   5   6
BRANCH   5  13
HETATM   13  N           1     -20.071  -4.731  -5.625  0.00  0.00    -0.066 N 
HETATM   14  H           1     -20.240  -3.699  -5.609  0.00  0.00     0.275 HD
HETATM   15  H           1     -19.118  -4.921  -6.008  0.00  0.00     0.275 HD
HETATM   16  H           1     -20.139  -5.111  -4.654  0.00  0.00     0.275 HD
ENDBRANCH   5  13
ENDBRANCH   4   5
BRANCH   1  17
HETATM   17  C           1     -22.747  -3.906  -9.617  0.00  0.00     0.194 C 
BRANCH  17  18
HETATM   18  C           1     -24.256  -3.924  -9.640  0.00  0.00     0.197 C 
HETATM   19  O           1     -24.895  -2.861  -9.491  0.00  0.00    -0.646 OA
HETATM   20  O           1     -24.866  -5.002  -9.808  0.00  0.00    -0.646 OA
ENDBRANCH  17  18
BRANCH  17  21
HETATM   21  C           1     -22.215  -4.292 -10.991  0.00  0.00     0.138 C 
BRANCH  21  22
HETATM   22  C           1     -20.735  -4.006 -11.057  0.00  0.00     0.217 C 
HETATM   23  N           1     -20.290  -2.811 -11.554  0.00  0.00    -0.370 N 
HETATM   24  H           1     -20.954  -2.119 -11.878  0.00  0.00     0.159 HD
HETATM   25  H           1     -19.297  -2.619 -11.598  0.00  0.00     0.159 HD
HETATM   26  O           1     -19.942  -4.833 -10.671  0.00  0.00    -0.274 OA
ENDBRANCH  21  22
ENDBRANCH  17  21
ENDBRANCH   1  17
TORSDOF 8
ENDMDL
MODEL 2
REMARK VINA RESULT:      -7.2      3.105      7.394
REMARK  8 active torsions:
REMARK  status: ('A' for Active; 'I' for Inactive)
REMARK    1  A    between atoms: N_1  and  C_8 
REMARK       I    between atoms: N_1  and  C_21 
REMARK       I    between atoms: N_4  and  C_5 
REMARK    2  A    between atoms: C_5  and  C_19 
REMARK    3  A    between atoms: C_7  and  C_8 
REMARK    4  A    between atoms: C_8  and  C_19 
REMARK    5  A    between atoms: C_13  and  C_20 
REMARK    6  A    between atoms: C_13  and  C_14 
REMARK    7  A    between atoms: N_15  and  C_20 
REMARK    8  A    between atoms: C_20  and  C_21 
ROOT
HETATM    1  N           1     -21.578  -6.922  -5.063  0.00  0.00    -0.344 N 
HETATM    2  H           1     -22.307  -7.526  -5.418  0.00  0.00     0.163 HD
HETATM    3  O           1     -20.510  -4.965  -5.197  0.00  0.00    -0.271 OA
HETATM    4  C           1     -21.380  -5.687  -5.620  0.00  0.00     0.249 C 
ENDROOT
BRANCH   4   5
HETATM    5  C           1     -22.251  -5.227  -6.763  0.00  0.00     0.278 C 
BRANCH   5   6
HETATM    6  C           1     -21.669  -3.955  -7.366  0.00  0.00     0.081 C 
BRANCH   6   7
HETATM    7  C           1     -21.641  -4.077  -8.859  0.00  0.00    -0.056 A 
HETATM    8  C           1     -22.835  -4.174  -9.573  0.00  0.00     0.007 A 
HETATM    9  C           1     -22.807  -4.287 -10.963  0.00  0.00     0.001 A 
HETATM   10  C           1     -21.586  -4.303 -11.638  0.00  0.00     0.000 A 
HETATM   11  C           1     -20.393  -4.205 -10.923  0.00  0.00     0.001 A 
HETATM   12  C           1     -20.420  -4.092  -9.533  0.00  0.00     0.007 A 
ENDBRANCH   6   7
ENDBRANCH   5   6
BRANCH   5  13
HETATM   13  N           1     -23.636  -4.952  -6.257  0.00  0.00    -0.066 N 
HETATM   14  H           1     -23.798  -5.488  -5.374  0.00  0.00     0.275 HD
HETATM   15  H           1     -24.335  -5.246  -6.975  0.00  0.00     0.275 HD
HETATM   16  H           1     -23.740  -3.929  -6.068  0.00  0.00     0.275 HD
ENDBRANCH   5  13
ENDBRANCH   4   5
BRANCH   1  17
HETATM   17  C           1     -20.742  -7.364  -3.964  0.00  0.00     0.194 C 
BRANCH  17  18
HETATM   18  C           1     -19.759  -8.394  -4.463  0.00  0.00     0.197 C 
HETATM   19  O           1     -19.727  -8.691  -5.676  0.00  0.00    -0.646 OA
HETATM   20  O           1     -18.975  -8.949  -3.663  0.00  0.00    -0.646 OA
ENDBRANCH  17  18
BRANCH  17  21
HETATM   21  C           1     -21.613  -7.980  -2.878  0.00  0.00     0.138 C 
BRANCH  21  22
HETATM   22  C           1     -22.051  -6.905  -1.913  0.00  0.00     0.217 C 
HETATM   23  N           1     -22.122  -7.177  -0.573  0.00  0.00    -0.370 N 
HETATM   24  H           1     -21.882  -8.097  -0.230  0.00  0.00     0.159 HD
HETATM   25  H           1     -22.415  -6.455   0.075  0.00  0.00     0.159 HD
HETATM   26  O           1     -22.338  -5.806  -2.323  0.00  0.00    -0.274 OA
ENDBRANCH  21  22
ENDBRANCH  17  21
ENDBRANCH   1  17
TORSDOF 8
ENDMDL
MODEL 3
REMARK VINA RESULT:      -6.8      3.107      7.001
REMARK  8 active torsions:
REMARK  status: ('A' for Active; 'I' for Inactive)
REMARK    1  A    between atoms: N_1  and  C_8 
REMARK       I    between atoms: N_1  and  C_21 
REMARK       I    between atoms: N_4  and  C_5 
REMARK    2  A    between atoms: C_5  and  C_19 
REMARK    3  A    between atoms: C_7  and  C_8 
REMARK    4  A    between atoms: C_8  and  C_19 
REMARK    5  A    between atoms: C_13  and  C_20 
REMARK    6  A    between atoms: C_13  and  C_14 
REMARK    7  A    between atoms: N_15  and  C_20 
REMARK    8  A    between atoms: C_20  and  C_21 
ROOT
HETATM    1  N           1     -21.029  -6.748  -4.521  0.00  0.00    -0.344 N 
HETATM    2  H           1     -20.018  -6.708  -4.531  0.00  0.00     0.163 HD
HETATM    3  O           1     -22.962  -5.988  -5.342  0.00  0.00    -0.271 OA
HETATM    4  C           1     -21.755  -5.941  -5.355  0.00  0.00     0.249 C 
ENDROOT
BRANCH   4   5
HETATM    5  C           1     -21.048  -4.994  -6.292  0.00  0.00     0.278 C 
BRANCH   5   6
HETATM    6  C           1     -20.669  -5.730  -7.570  0.00  0.00     0.081 C 
BRANCH   6   7
HETATM    7  C           1     -21.062  -4.906  -8.757  0.00  0.00    -0.056 A 
HETATM    8  C           1     -22.355  -4.391  -8.851  0.00  0.00     0.007 A 
HETATM    9  C           1     -22.721  -3.624  -9.957  0.00  0.00     0.001 A 
HETATM   10  C           1     -21.793  -3.371 -10.968  0.00  0.00     0.000 A 
HETATM   11  C           1     -20.500  -3.885 -10.873  0.00  0.00     0.001 A 
HETATM   12  C           1     -20.135  -4.653  -9.767  0.00  0.00     0.007 A 
ENDBRANCH   6   7
ENDBRANCH   5   6
BRANCH   5  13
HETATM   13  N           1     -19.807  -4.470  -5.631  0.00  0.00    -0.066 N 
HETATM   14  H           1     -20.072  -3.894  -4.800  0.00  0.00     0.275 HD
HETATM   15  H           1     -19.274  -3.880  -6.307  0.00  0.00     0.275 HD
HETATM   16  H           1     -19.212  -5.272  -5.324  0.00  0.00     0.275 HD
ENDBRANCH   5  13
ENDBRANCH   4   5
BRANCH   1  17
HETATM   17  C           1     -21.709  -7.659  -3.620  0.00  0.00     0.194 C 
BRANCH  17  18
HETATM   18  C           1     -21.462  -7.235  -2.194  0.00  0.00     0.197 C 
HETATM   19  O           1     -22.111  -6.286  -1.703  0.00  0.00    -0.646 OA
HETATM   20  O           1     -20.609  -7.833  -1.502  0.00  0.00    -0.646 OA
ENDBRANCH  17  18
BRANCH  17  21
HETATM   21  C           1     -21.175  -9.070  -3.828  0.00  0.00     0.138 C 
BRANCH  21  22
HETATM   22  C           1     -19.810  -9.004  -4.466  0.00  0.00     0.217 C 
HETATM   23  N           1     -18.687  -9.029  -3.684  0.00  0.00    -0.370 N 
HETATM   24  H           1     -18.772  -9.093  -2.678  0.00  0.00     0.159 HD
HETATM   25  H           1     -17.770  -8.985  -4.112  0.00  0.00     0.159 HD
HETATM   26  O           1     -19.707  -8.928  -5.668  0.00  0.00    -0.274 OA
ENDBRANCH  21  22
ENDBRANCH  17  21
ENDBRANCH   1  17
TORSDOF 8
ENDMDL
MODEL 4
REMARK VINA RESULT:      -6.7      4.789      8.216
REMARK  8 active torsions:
REMARK  status: ('A' for Active; 'I' for Inactive)
REMARK    1  A    between atoms: N_1  and  C_8 
REMARK       I    between atoms: N_1  and  C_21 
REMARK       I    between atoms: N_4  and  C_5 
REMARK    2  A    between atoms: C_5  and  C_19 
REMARK    3  A    between atoms: C_7  and  C_8 
REMARK    4  A    between atoms: C_8  and  C_19 
REMARK    5  A    between atoms: C_13  and  C_20 
REMARK    6  A    between atoms: C_13  and  C_14 
REMARK    7  A    between atoms: N_15  and  C_20 
REMARK    8  A    between atoms: C_20  and  C_21 
ROOT
HETATM    1  N           1     -21.272  -8.627  -2.577  0.00  0.00    -0.344 N 
HETATM    2  H           1     -22.180  -8.263  -2.834  0.00  0.00     0.163 HD
HETATM    3  O           1     -19.124  -8.909  -3.118  0.00  0.00    -0.271 OA
HETATM    4  C           1     -20.208  -8.474  -3.424  0.00  0.00     0.249 C 
ENDROOT
BRANCH   4   5
HETATM    5  C           1     -20.389  -7.760  -4.741  0.00  0.00     0.278 C 
BRANCH   5   6
HETATM    6  C           1     -21.185  -6.481  -4.521  0.00  0.00     0.081 C 
BRANCH   6   7
HETATM    7  C           1     -21.078  -5.609  -5.734  0.00  0.00    -0.056 A 
HETATM    8  C           1     -19.825  -5.208  -6.196  0.00  0.00     0.007 A 
HETATM    9  C           1     -19.725  -4.397  -7.326  0.00  0.00     0.001 A 
HETATM   10  C           1     -20.879  -3.987  -7.994  0.00  0.00     0.000 A 
HETATM   11  C           1     -22.133  -4.388  -7.532  0.00  0.00     0.001 A 
HETATM   12  C           1     -22.232  -5.200  -6.402  0.00  0.00     0.007 A 
ENDBRANCH   6   7
ENDBRANCH   5   6
BRANCH   5  13
HETATM   13  N           1     -21.128  -8.650  -5.695  0.00  0.00    -0.066 N 
HETATM   14  H           1     -22.124  -8.339  -5.762  0.00  0.00     0.275 HD
HETATM   15  H           1     -21.095  -9.636  -5.349  0.00  0.00     0.275 HD
HETATM   16  H           1     -20.681  -8.597  -6.638  0.00  0.00     0.275 HD
ENDBRANCH   5  13
ENDBRANCH   4   5
BRANCH   1  17
HETATM   17  C           1     -21.098  -9.313  -1.311  0.00  0.00     0.194 C 
BRANCH  17  18
HETATM   18  C           1     -22.173 -10.361  -1.155  0.00  0.00     0.197 C 
HETATM   19  O           1     -22.353 -10.910  -0.047  0.00  0.00    -0.646 OA
HETATM   20  O           1     -22.883 -10.678  -2.134  0.00  0.00    -0.646 OA
ENDBRANCH  17  18
BRANCH  17  21
HETATM   21  C           1     -21.200  -8.309  -0.171  0.00  0.00     0.138 C 
BRANCH  21  22
HETATM   22  C           1     -22.521  -7.585  -0.254  0.00  0.00     0.217 C 
HETATM   23  N           1     -23.550  -7.942   0.575  0.00  0.00    -0.370 N 
HETATM   24  H           1     -23.425  -8.690   1.244  0.00  0.00     0.159 HD
HETATM   25  H           1     -24.437  -7.455   0.520  0.00  0.00     0.159 HD
HETATM   26  O           1     -22.671  -6.691  -1.053  0.00  0.00    -0.274 OA
ENDBRANCH  21  22
ENDBRANCH  17  21
ENDBRANCH   1  17
TORSDOF 8
ENDMDL
MODEL 5
REMARK VINA RESULT:      -6.6      2.421      4.187
REMARK  8 active torsions:
REMARK  status: ('A' for Active; 'I' for Inactive)
REMARK    1  A    between atoms: N_1  and  C_8 
REMARK       I    between atoms: N_1  and  C_21 
REMARK       I    between atoms: N_4  and  C_5 
REMARK    2  A    between atoms: C_5  and  C_19 
REMARK    3  A    between atoms: C_7  and  C_8 
REMARK    4  A    between atoms: C_8  and  C_19 
REMARK    5  A    between atoms: C_13  and  C_20 
REMARK    6  A    between atoms: C_13  and  C_14 
REMARK    7  A    between atoms: N_15  and  C_20 
REMARK    8  A    between atoms: C_20  and  C_21 
ROOT
HETATM    1  N           1     -21.744  -5.822  -5.658  0.00  0.00    -0.344 N 
HETATM    2  H           1     -22.103  -5.241  -4.913  0.00  0.00     0.163 HD
HETATM    3  O           1     -21.116  -7.854  -6.338  0.00  0.00    -0.271 OA
HETATM    4  C           1     -21.545  -7.160  -5.449  0.00  0.00     0.249 C 
ENDROOT
BRANCH   4   5
HETATM    5  C           1     -21.864  -7.768  -4.105  0.00  0.00     0.278 C 
BRANCH   5   6
HETATM    6  C           1     -20.840  -7.301  -3.079  0.00  0.00     0.081 C 
BRANCH   6   7
HETATM    7  C           1     -21.303  -7.674  -1.705  0.00  0.00    -0.056 A 
HETATM    8  C           1     -20.676  -8.711  -1.015  0.00  0.00     0.007 A 
HETATM    9  C           1     -21.107  -9.058   0.265  0.00  0.00     0.001 A 
HETATM   10  C           1     -22.166  -8.367   0.855  0.00  0.00     0.000 A 
HETATM   11  C           1     -22.793  -7.329   0.166  0.00  0.00     0.001 A 
HETATM   12  C           1     -22.361  -6.983  -1.115  0.00  0.00     0.007 A 
ENDBRANCH   6   7
ENDBRANCH   5   6
BRANCH   5  13
HETATM   13  N           1     -21.820  -9.264  -4.210  0.00  0.00    -0.066 N 
HETATM   14  H           1     -20.836  -9.572  -4.385  0.00  0.00     0.275 HD
HETATM   15  H           1     -22.427  -9.576  -5.001  0.00  0.00     0.275 HD
HETATM   16  H           1     -22.164  -9.685  -3.319  0.00  0.00     0.275 HD
ENDBRANCH   5  13
ENDBRANCH   4   5
BRANCH   1  17
HETATM   17  C           1     -21.438  -5.237  -6.950  0.00  0.00     0.194 C 
BRANCH  17  18
HETATM   18  C           1     -20.008  -4.755  -6.957  0.00  0.00     0.197 C 
HETATM   19  O           1     -19.424  -4.549  -8.043  0.00  0.00    -0.646 OA
HETATM   20  O           1     -19.408  -4.561  -5.878  0.00  0.00    -0.646 OA
ENDBRANCH  17  18
BRANCH  17  21
HETATM   21  C           1     -22.370  -4.061  -7.208  0.00  0.00     0.138 C 
BRANCH  21  22
HETATM   22  C           1     -23.045  -4.238  -8.546  0.00  0.00     0.217 C 
HETATM   23  N           1     -24.261  -3.654  -8.782  0.00  0.00    -0.370 N 
HETATM   24  H           1     -24.707  -3.105  -8.059  0.00  0.00     0.159 HD
HETATM   25  H           1     -24.713  -3.773  -9.680  0.00  0.00     0.159 HD
HETATM   26  O           1     -22.513  -4.895  -9.409  0.00  0.00    -0.274 OA
ENDBRANCH  21  22
ENDBRANCH  17  21
ENDBRANCH   1  17
TORSDOF 8
ENDMDL
MODEL 6
REMARK VINA RESULT:      -6.4      3.691      7.461
REMARK  8 active torsions:
REMARK  status: ('A' for Active; 'I' for Inactive)
REMARK    1  A    between atoms: N_1  and  C_8 
REMARK       I    between atoms: N_1  and  C_21 
REMARK       I    between atoms: N_4  and  C_5 
REMARK    2  A    between atoms: C_5  and  C_19 
REMARK    3  A    between atoms: C_7  and  C_8 
REMARK    4  A    between atoms: C_8  and  C_19 
REMARK    5  A    between atoms: C_13  and  C_20 
REMARK    6  A    between atoms: C_13  and  C_14 
REMARK    7  A    between atoms: N_15  and  C_20 
REMARK    8  A    between atoms: C_20  and  C_21 
ROOT
HETATM    1  N           1     -20.671  -7.987  -4.704  0.00  0.00    -0.344 N 
HETATM    2  H           1     -21.517  -7.951  -4.151  0.00  0.00     0.163 HD
HETATM    3  O           1     -19.501  -7.182  -6.428  0.00  0.00    -0.271 OA
HETATM    4  C           1     -20.511  -7.139  -5.766  0.00  0.00     0.249 C 
ENDROOT
BRANCH   4   5
HETATM    5  C           1     -21.596  -6.149  -6.111  0.00  0.00     0.278 C 
BRANCH   5   6
HETATM    6  C           1     -20.968  -4.804  -6.451  0.00  0.00     0.081 C 
BRANCH   6   7
HETATM    7  C           1     -21.248  -4.469  -7.884  0.00  0.00    -0.056 A 
HETATM    8  C           1     -22.538  -4.110  -8.277  0.00  0.00     0.007 A 
HETATM    9  C           1     -22.798  -3.799  -9.611  0.00  0.00     0.001 A 
HETATM   10  C           1     -21.769  -3.846 -10.552  0.00  0.00     0.000 A 
HETATM   11  C           1     -20.480  -4.204 -10.159  0.00  0.00     0.001 A 
HETATM   12  C           1     -20.220  -4.516  -8.824  0.00  0.00     0.007 A 
ENDBRANCH   6   7
ENDBRANCH   5   6
BRANCH   5  13
HETATM   13  N           1     -22.517  -5.988  -4.938  0.00  0.00    -0.066 N 
HETATM   14  H           1     -22.984  -5.054  -4.987  0.00  0.00     0.275 HD
HETATM   15  H           1     -21.968  -6.056  -4.051  0.00  0.00     0.275 HD
HETATM   16  H           1     -23.241  -6.741  -4.958  0.00  0.00     0.275 HD
ENDBRANCH   5  13
ENDBRANCH   4   5
BRANCH   1  17
HETATM   17  C           1     -19.628  -8.938  -4.372  0.00  0.00     0.194 C 
BRANCH  17  18
HETATM   18  C           1     -20.031 -10.313  -4.845  0.00  0.00     0.197 C 
HETATM   19  O           1     -20.084 -10.561  -6.069  0.00  0.00    -0.646 OA
HETATM   20  O           1     -20.311 -11.203  -4.013  0.00  0.00    -0.646 OA
ENDBRANCH  17  18
BRANCH  17  21
HETATM   21  C           1     -19.423  -8.962  -2.863  0.00  0.00     0.138 C 
BRANCH  21  22
HETATM   22  C           1     -20.676  -8.476  -2.177  0.00  0.00     0.217 C 
HETATM   23  N           1     -21.623  -9.375  -1.764  0.00  0.00    -0.370 N 
HETATM   24  H           1     -21.482 -10.365  -1.918  0.00  0.00     0.159 HD
HETATM   25  H           1     -22.464  -9.049  -1.304  0.00  0.00     0.159 HD
HETATM   26  O           1     -20.845  -7.294  -1.993  0.00  0.00    -0.274 OA
ENDBRANCH  21  22
ENDBRANCH  17  21
ENDBRANCH   1  17
TORSDOF 8
ENDMDL
MODEL 7
REMARK VINA RESULT:      -6.2      4.320      7.406
REMARK  8 active torsions:
REMARK  status: ('A' for Active; 'I' for Inactive)
REMARK    1  A    between atoms: N_1  and  C_8 
REMARK       I    between atoms: N_1  and  C_21 
REMARK       I    between atoms: N_4  and  C_5 
REMARK    2  A    between atoms: C_5  and  C_19 
REMARK    3  A    between atoms: C_7  and  C_8 
REMARK    4  A    between atoms: C_8  and  C_19 
REMARK    5  A    between atoms: C_13  and  C_20 
REMARK    6  A    between atoms: C_13  and  C_14 
REMARK    7  A    between atoms: N_15  and  C_20 
REMARK    8  A    between atoms: C_20  and  C_21 
ROOT
HETATM    1  N           1     -20.340  -8.240  -3.697  0.00  0.00    -0.344 N 
HETATM    2  H           1     -20.283  -7.641  -2.884  0.00  0.00     0.163 HD
HETATM    3  O           1     -21.076  -8.533  -5.785  0.00  0.00    -0.271 OA
HETATM    4  C           1     -21.007  -7.817  -4.814  0.00  0.00     0.249 C 
ENDROOT
BRANCH   4   5
HETATM    5  C           1     -21.657  -6.455  -4.835  0.00  0.00     0.278 C 
BRANCH   5   6
HETATM    6  C           1     -20.625  -5.405  -5.224  0.00  0.00     0.081 C 
BRANCH   6   7
HETATM    7  C           1     -20.850  -4.985  -6.644  0.00  0.00    -0.056 A 
HETATM    8  C           1     -19.791  -4.999  -7.552  0.00  0.00     0.007 A 
HETATM    9  C           1     -20.000  -4.608  -8.874  0.00  0.00     0.001 A 
HETATM   10  C           1     -21.270  -4.203  -9.288  0.00  0.00     0.000 A 
HETATM   11  C           1     -22.329  -4.190  -8.381  0.00  0.00     0.001 A 
HETATM   12  C           1     -22.118  -4.581  -7.058  0.00  0.00     0.007 A 
ENDBRANCH   6   7
ENDBRANCH   5   6
BRANCH   5  13
HETATM   13  N           1     -22.201  -6.140  -3.473  0.00  0.00    -0.066 N 
HETATM   14  H           1     -23.218  -6.378  -3.440  0.00  0.00     0.275 HD
HETATM   15  H           1     -22.075  -5.122  -3.274  0.00  0.00     0.275 HD
HETATM   16  H           1     -21.688  -6.701  -2.756  0.00  0.00     0.275 HD
ENDBRANCH   5  13
ENDBRANCH   4   5
BRANCH   1  17
HETATM   17  C           1     -19.715  -9.549  -3.677  0.00  0.00     0.194 C 
BRANCH  17  18
HETATM   18  C           1     -20.054 -10.248  -2.384  0.00  0.00     0.197 C 
HETATM   19  O           1     -19.527 -11.348  -2.112  0.00  0.00    -0.646 OA
HETATM   20  O           1     -20.862  -9.727  -1.584  0.00  0.00    -0.646 OA
ENDBRANCH  17  18
BRANCH  17  21
HETATM   21  C           1     -18.205  -9.392  -3.787  0.00  0.00     0.138 C 
BRANCH  21  22
HETATM   22  C           1     -17.729  -9.998  -5.085  0.00  0.00     0.217 C 
HETATM   23  N           1     -18.128  -9.460  -6.279  0.00  0.00    -0.370 N 
HETATM   24  H           1     -18.741  -8.655  -6.291  0.00  0.00     0.159 HD
HETATM   25  H           1     -17.808  -9.867  -7.149  0.00  0.00     0.159 HD
HETATM   26  O           1     -16.997 -10.959  -5.070  0.00  0.00    -0.274 OA
ENDBRANCH  21  22
ENDBRANCH  17  21
ENDBRANCH   1  17
TORSDOF 8
ENDMDL
MODEL 8
REMARK VINA RESULT:      -6.1      4.361      8.102
REMARK  8 active torsions:
REMARK  status: ('A' for Active; 'I' for Inactive)
REMARK    1  A    between atoms: N_1  and  C_8 
REMARK       I    between atoms: N_1  and  C_21 
REMARK       I    between atoms: N_4  and  C_5 
REMARK    2  A    between atoms: C_5  and  C_19 
REMARK    3  A    between atoms: C_7  and  C_8 
REMARK    4  A    between atoms: C_8  and  C_19 
REMARK    5  A    between atoms: C_13  and  C_20 
REMARK    6  A    between atoms: C_13  and  C_14 
REMARK    7  A    between atoms: N_15  and  C_20 
REMARK    8  A    between atoms: C_20  and  C_21 
ROOT
HETATM    1  N           1     -20.860  -8.205  -3.662  0.00  0.00    -0.344 N 
HETATM    2  H           1     -20.864  -8.821  -4.464  0.00  0.00     0.163 HD
HETATM    3  O           1     -21.200  -6.153  -2.850  0.00  0.00    -0.271 OA
HETATM    4  C           1     -21.206  -6.889  -3.807  0.00  0.00     0.249 C 
ENDROOT
BRANCH   4   5
HETATM    5  C           1     -21.596  -6.357  -5.164  0.00  0.00     0.278 C 
BRANCH   5   6
HETATM    6  C           1     -20.830  -5.071  -5.446  0.00  0.00     0.081 C 
BRANCH   6   7
HETATM    7  C           1     -20.914  -4.748  -6.906  0.00  0.00    -0.056 A 
HETATM    8  C           1     -22.006  -4.035  -7.401  0.00  0.00     0.007 A 
HETATM    9  C           1     -22.084  -3.734  -8.760  0.00  0.00     0.001 A 
HETATM   10  C           1     -21.070  -4.147  -9.625  0.00  0.00     0.000 A 
HETATM   11  C           1     -19.978  -4.860  -9.130  0.00  0.00     0.001 A 
HETATM   12  C           1     -19.900  -5.160  -7.770  0.00  0.00     0.007 A 
ENDBRANCH   6   7
ENDBRANCH   5   6
BRANCH   5  13
HETATM   13  N           1     -23.069  -6.076  -5.187  0.00  0.00    -0.066 N 
HETATM   14  H           1     -23.481  -6.448  -6.072  0.00  0.00     0.275 HD
HETATM   15  H           1     -23.229  -5.045  -5.135  0.00  0.00     0.275 HD
HETATM   16  H           1     -23.524  -6.540  -4.368  0.00  0.00     0.275 HD
ENDBRANCH   5  13
ENDBRANCH   4   5
BRANCH   1  17
HETATM   17  C           1     -20.485  -8.717  -2.358  0.00  0.00     0.194 C 
BRANCH  17  18
HETATM   18  C           1     -19.425  -9.778  -2.519  0.00  0.00     0.197 C 
HETATM   19  O           1     -18.808  -9.886  -3.601  0.00  0.00    -0.646 OA
HETATM   20  O           1     -19.162 -10.549  -1.570  0.00  0.00    -0.646 OA
ENDBRANCH  17  18
BRANCH  17  21
HETATM   21  C           1     -21.707  -9.320  -1.679  0.00  0.00     0.138 C 
BRANCH  21  22
HETATM   22  C           1     -21.983  -8.583  -0.391  0.00  0.00     0.217 C 
HETATM   23  N           1     -22.599  -7.360  -0.422  0.00  0.00    -0.370 N 
HETATM   24  H           1     -22.868  -6.951  -1.306  0.00  0.00     0.159 HD
HETATM   25  H           1     -22.784  -6.866   0.442  0.00  0.00     0.159 HD
HETATM   26  O           1     -21.661  -9.071   0.666  0.00  0.00    -0.274 OA
ENDBRANCH  21  22
ENDBRANCH  17  21
ENDBRANCH   1  17
TORSDOF 8
ENDMDL
MODEL 9
REMARK VINA RESULT:      -6.0     18.150     19.484
REMARK  8 active torsions:
REMARK  status: ('A' for Active; 'I' for Inactive)
REMARK    1  A    between atoms: N_1  and  C_8 
REMARK       I    between atoms: N_1  and  C_21 
REMARK       I    between atoms: N_4  and  C_5 
REMARK    2  A    between atoms: C_5  and  C_19 
REMARK    3  A    between atoms: C_7  and  C_8 
REMARK    4  A    between atoms: C_8  and  C_19 
REMARK    5  A    between atoms: C_13  and  C_20 
REMARK    6  A    between atoms: C_13  and  C_14 
REMARK    7  A    between atoms: N_15  and  C_20 
REMARK    8  A    between atoms: C_20  and  C_21 
ROOT
HETATM    1  N           1     -17.369   9.028   4.602  0.00  0.00    -0.344 N 
HETATM    2  H           1     -17.200   8.034   4.525  0.00  0.00     0.163 HD
HETATM    3  O           1     -16.608  11.035   5.219  0.00  0.00    -0.271 OA
HETATM    4  C           1     -16.407   9.848   5.126  0.00  0.00     0.249 C 
ENDROOT
BRANCH   4   5
HETATM    5  C           1     -15.092   9.269   5.588  0.00  0.00     0.278 C 
BRANCH   5   6
HETATM    6  C           1     -14.750   8.049   4.744  0.00  0.00     0.081 C 
BRANCH   6   7
HETATM    7  C           1     -14.290   8.490   3.389  0.00  0.00    -0.056 A 
HETATM    8  C           1     -13.315   9.480   3.272  0.00  0.00     0.007 A 
HETATM    9  C           1     -12.887   9.891   2.010  0.00  0.00     0.001 A 
HETATM   10  C           1     -13.436   9.313   0.865  0.00  0.00     0.000 A 
HETATM   11  C           1     -14.411   8.322   0.982  0.00  0.00     0.001 A 
HETATM   12  C           1     -14.838   7.911   2.245  0.00  0.00     0.007 A 
ENDBRANCH   6   7
ENDBRANCH   5   6
BRANCH   5  13
HETATM   13  N           1     -15.203   8.865   7.029  0.00  0.00    -0.066 N 
HETATM   14  H           1     -15.142   9.715   7.634  0.00  0.00     0.275 HD
HETATM   15  H           1     -14.424   8.212   7.269  0.00  0.00     0.275 HD
HETATM   16  H           1     -16.119   8.388   7.187  0.00  0.00     0.275 HD
ENDBRANCH   5  13
ENDBRANCH   4   5
BRANCH   1  17
HETATM   17  C           1     -18.632   9.585   4.157  0.00  0.00     0.194 C 
BRANCH  17  18
HETATM   18  C           1     -19.756   9.003   4.979  0.00  0.00     0.197 C 
HETATM   19  O           1     -20.629   8.297   4.432  0.00  0.00    -0.646 OA
HETATM   20  O           1     -19.811   9.226   6.208  0.00  0.00    -0.646 OA
ENDBRANCH  17  18
BRANCH  17  21
HETATM   21  C           1     -18.849   9.243   2.689  0.00  0.00     0.138 C 
BRANCH  21  22
HETATM   22  C           1     -18.284  10.345   1.827  0.00  0.00     0.217 C 
HETATM   23  N           1     -19.124  11.145   1.100  0.00  0.00    -0.370 N 
HETATM   24  H           1     -20.124  10.998   1.141  0.00  0.00     0.159 HD
HETATM   25  H           1     -18.744  11.884   0.521  0.00  0.00     0.159 HD
HETATM   26  O           1     -17.089  10.521   1.777  0.00  0.00    -0.274 OA
ENDBRANCH  21  22
ENDBRANCH  17  21
ENDBRANCH   1  17
TORSDOF 8
ENDMDL
