MODEL 1
REMARK VINA RESULT:      -5.7      0.000      0.000
REMARK  12 active torsions:
REMARK  status: ('A' for Active; 'I' for Inactive)
REMARK       I    between atoms: C_1  and  N_27 
REMARK    1  A    between atoms: C_1  and  C_3 
REMARK    2  A    between atoms: N_2  and  C_12 
REMARK    3  A    between atoms: C_3  and  C_11 
REMARK    4  A    between atoms: C_3  and  N_4 
REMARK    5  A    between atoms: P_5  and  O_9 
REMARK    6  A    between atoms: P_5  and  O_20 
REMARK    7  A    between atoms: O_9  and  C_14 
REMARK    8  A    between atoms: C_11  and  C_21 
REMARK    9  A    between atoms: C_12  and  C_21 
REMARK   10  A    between atoms: C_14  and  C_25 
REMARK   11  A    between atoms: C_24  and  C_25 
REMARK   12  A    between atoms: C_25  and  N_27 
ROOT
HETATM    1  C           1     -21.126  -6.255  -6.057  0.00  0.00     0.249 C 
HETATM    2  H           1     -21.285  -4.193  -5.977  0.00  0.00     0.163 HD
HETATM    3  O           1     -21.152  -7.223  -6.779  0.00  0.00    -0.271 OA
HETATM    4  N           1     -21.306  -5.004  -6.582  0.00  0.00    -0.343 N 
ENDROOT
BRANCH   1   5
HETATM    5  C           1     -20.896  -6.426  -4.575  0.00  0.00     0.274 C 
BRANCH   5   6
HETATM    6  C           1     -20.398  -7.837  -4.297  0.00  0.00     0.044 C 
BRANCH   6   7
HETATM    7  C           1     -21.561  -8.705  -3.834  0.00  0.00     0.030 C 
BRANCH   7   8
HETATM    8  C           1     -21.382 -10.121  -4.362  0.00  0.00     0.230 C 
BRANCH   8   9
HETATM    9  N           1     -20.973 -10.069  -5.805  0.00  0.00    -0.079 N 
HETATM   10  H           1     -21.751  -9.664  -6.373  0.00  0.00     0.274 HD
HETATM   11  H           1     -20.763 -11.035  -6.142  0.00  0.00     0.274 HD
HETATM   12  H           1     -20.122  -9.471  -5.904  0.00  0.00     0.274 HD
ENDBRANCH   8   9
ENDBRANCH   7   8
ENDBRANCH   6   7
ENDBRANCH   5   6
BRANCH   5  13
HETATM   13  N           1     -22.183  -6.196  -3.841  0.00  0.00    -0.067 N 
HETATM   14  H           1     -22.914  -6.847  -4.206  0.00  0.00     0.275 HD
HETATM   15  H           1     -22.038  -6.372  -2.820  0.00  0.00     0.275 HD
HETATM   16  H           1     -22.493  -5.208  -3.983  0.00  0.00     0.275 HD
ENDBRANCH   5  13
ENDBRANCH   1   5
BRANCH   4  17
HETATM   17  C           1     -21.528  -4.841  -8.006  0.00  0.00     0.210 C 
BRANCH  17  18
HETATM   18  C           1     -22.510  -3.701  -8.240  0.00  0.00     0.217 C 
BRANCH  18  19
HETATM   19  O           1     -23.672  -4.201  -8.846  0.00  0.00    -0.287 OA
BRANCH  19  20
HETATM   20  P           1     -23.798  -3.961 -10.437  0.00  0.00     0.406 P 
HETATM   21  O           1     -25.063  -3.250 -10.732  0.00  0.00    -0.624 OA
HETATM   22  O           1     -23.793  -5.266 -11.135  0.00  0.00    -0.624 OA
BRANCH  20  23
HETATM   23  O           1     -22.550  -3.071 -10.948  0.00  0.00    -0.300 OA
HETATM   24  H           1     -22.078  -3.631 -11.539  0.00  0.00     0.223 HD
ENDBRANCH  20  23
ENDBRANCH  19  20
ENDBRANCH  18  19
ENDBRANCH  17  18
BRANCH  17  25
HETATM   25  C           1     -20.218  -4.524  -8.686  0.00  0.00     0.198 C 
HETATM   26  O           1     -20.115  -4.630  -9.927  0.00  0.00    -0.646 OA
HETATM   27  O           1     -19.234  -4.157  -8.006  0.00  0.00    -0.646 OA
ENDBRANCH  17  25
ENDBRANCH   4  17
TORSDOF 12
ENDMDL
MODEL 2
REMARK VINA RESULT:      -5.7     14.556     16.405
REMARK  12 active torsions:
REMARK  status: ('A' for Active; 'I' for Inactive)
REMARK       I    between atoms: C_1  and  N_27 
REMARK    1  A    between atoms: C_1  and  C_3 
REMARK    2  A    between atoms: N_2  and  C_12 
REMARK    3  A    between atoms: C_3  and  C_11 
REMARK    4  A    between atoms: C_3  and  N_4 
REMARK    5  A    between atoms: P_5  and  O_9 
REMARK    6  A    between atoms: P_5  and  O_20 
REMARK    7  A    between atoms: O_9  and  C_14 
REMARK    8  A    between atoms: C_11  and  C_21 
REMARK    9  A    between atoms: C_12  and  C_21 
REMARK   10  A    between atoms: C_14  and  C_25 
REMARK   11  A    between atoms: C_24  and  C_25 
REMARK   12  A    between atoms: C_25  and  N_27 
ROOT
HETATM    1  C           1     -36.580  -0.702 -10.345  0.00  0.00     0.249 C 
HETATM    2  H           1     -34.696  -0.053 -10.907  0.00  0.00     0.163 HD
HETATM    3  O           1     -37.536  -1.365 -10.668  0.00  0.00    -0.271 OA
HETATM    4  N           1     -35.497  -0.610 -11.177  0.00  0.00    -0.343 N 
ENDROOT
BRANCH   1   5
HETATM    5  C           1     -36.580   0.027  -9.023  0.00  0.00     0.274 C 
BRANCH   5   6
HETATM    6  C           1     -37.847  -0.318  -8.253  0.00  0.00     0.044 C 
BRANCH   6   7
HETATM    7  C           1     -38.053   0.695  -7.133  0.00  0.00     0.030 C 
BRANCH   7   8
HETATM    8  C           1     -38.075  -0.026  -5.793  0.00  0.00     0.230 C 
BRANCH   8   9
HETATM    9  N           1     -36.934   0.456  -4.946  0.00  0.00    -0.079 N 
HETATM   10  H           1     -36.641   1.407  -5.266  0.00  0.00     0.274 HD
HETATM   11  H           1     -36.129  -0.204  -5.038  0.00  0.00     0.274 HD
HETATM   12  H           1     -37.237   0.502  -3.948  0.00  0.00     0.274 HD
ENDBRANCH   8   9
ENDBRANCH   7   8
ENDBRANCH   6   7
ENDBRANCH   5   6
BRANCH   5  13
HETATM   13  N           1     -36.530   1.505  -9.268  0.00  0.00    -0.067 N 
HETATM   14  H           1     -36.780   2.013  -8.389  0.00  0.00     0.275 HD
HETATM   15  H           1     -35.565   1.777  -9.564  0.00  0.00     0.275 HD
HETATM   16  H           1     -37.210   1.757 -10.021  0.00  0.00     0.275 HD
ENDBRANCH   5  13
ENDBRANCH   1   5
BRANCH   4  17
HETATM   17  C           1     -35.498  -1.309 -12.448  0.00  0.00     0.210 C 
BRANCH  17  18
HETATM   18  C           1     -35.113  -0.343 -13.560  0.00  0.00     0.217 C 
BRANCH  18  19
HETATM   19  O           1     -35.553  -0.848 -14.792  0.00  0.00    -0.287 OA
BRANCH  19  20
HETATM   20  P           1     -36.778  -0.056 -15.484  0.00  0.00     0.406 P 
HETATM   21  O           1     -36.298   1.247 -15.998  0.00  0.00    -0.624 OA
HETATM   22  O           1     -37.845   0.173 -14.484  0.00  0.00    -0.624 OA
BRANCH  20  23
HETATM   23  O           1     -37.364  -0.933 -16.707  0.00  0.00    -0.300 OA
HETATM   24  H           1     -37.557  -1.775 -16.333  0.00  0.00     0.223 HD
ENDBRANCH  20  23
ENDBRANCH  19  20
ENDBRANCH  18  19
ENDBRANCH  17  18
BRANCH  17  25
HETATM   25  C           1     -34.502  -2.442 -12.398  0.00  0.00     0.198 C 
HETATM   26  O           1     -33.760  -2.579 -11.401  0.00  0.00    -0.646 OA
HETATM   27  O           1     -34.418  -3.243 -13.354  0.00  0.00    -0.646 OA
ENDBRANCH  17  25
ENDBRANCH   4  17
TORSDOF 12
ENDMDL
MODEL 3
REMARK VINA RESULT:      -5.3      3.737      6.818
REMARK  12 active torsions:
REMARK  status: ('A' for Active; 'I' for Inactive)
REMARK       I    between atoms: C_1  and  N_27 
REMARK    1  A    between atoms: C_1  and  C_3 
REMARK    2  A    between atoms: N_2  and  C_12 
REMARK    3  A    between atoms: C_3  and  C_11 
REMARK    4  A    between atoms: C_3  and  N_4 
REMARK    5  A    between atoms: P_5  and  O_9 
REMARK    6  A    between atoms: P_5  and  O_20 
REMARK    7  A    between atoms: O_9  and  C_14 
REMARK    8  A    between atoms: C_11  and  C_21 
REMARK    9  A    between atoms: C_12  and  C_21 
REMARK   10  A    between atoms: C_14  and  C_25 
REMARK   11  A    between atoms: C_24  and  C_25 
REMARK   12  A    between atoms: C_25  and  N_27 
ROOT
HETATM    1  C           1     -21.579  -5.595  -5.963  0.00  0.00     0.249 C 
HETATM    2  H           1     -20.016  -6.735  -5.226  0.00  0.00     0.163 HD
HETATM    3  O           1     -22.767  -5.388  -5.902  0.00  0.00    -0.271 OA
HETATM    4  N           1     -21.012  -6.561  -5.176  0.00  0.00    -0.343 N 
ENDROOT
BRANCH   1   5
HETATM    5  C           1     -20.719  -4.789  -6.905  0.00  0.00     0.274 C 
BRANCH   5   6
HETATM    6  C           1     -21.578  -3.751  -7.614  0.00  0.00     0.044 C 
BRANCH   6   7
HETATM    7  C           1     -21.711  -4.121  -9.086  0.00  0.00     0.030 C 
BRANCH   7   8
HETATM    8  C           1     -23.184  -4.175  -9.466  0.00  0.00     0.230 C 
BRANCH   8   9
HETATM    9  N           1     -24.024  -3.970  -8.240  0.00  0.00    -0.079 N 
HETATM   10  H           1     -24.474  -3.026  -8.279  0.00  0.00     0.274 HD
HETATM   11  H           1     -23.419  -4.030  -7.389  0.00  0.00     0.274 HD
HETATM   12  H           1     -24.764  -4.706  -8.196  0.00  0.00     0.274 HD
ENDBRANCH   8   9
ENDBRANCH   7   8
ENDBRANCH   6   7
ENDBRANCH   5   6
BRANCH   5  13
HETATM   13  N           1     -20.099  -5.703  -7.920  0.00  0.00    -0.067 N 
HETATM   14  H           1     -20.509  -5.509  -8.862  0.00  0.00     0.275 HD
HETATM   15  H           1     -19.067  -5.541  -7.951  0.00  0.00     0.275 HD
HETATM   16  H           1     -20.289  -6.696  -7.656  0.00  0.00     0.275 HD
ENDBRANCH   5  13
ENDBRANCH   1   5
BRANCH   4  17
HETATM   17  C           1     -21.839  -7.336  -4.270  0.00  0.00     0.210 C 
BRANCH  17  18
HETATM   18  C           1     -21.484  -8.811  -4.396  0.00  0.00     0.217 C 
BRANCH  18  19
HETATM   19  O           1     -20.577  -8.986  -5.451  0.00  0.00    -0.287 OA
BRANCH  19  20
HETATM   20  P           1     -19.174  -9.688  -5.067  0.00  0.00     0.406 P 
HETATM   21  O           1     -18.196  -9.465  -6.156  0.00  0.00    -0.624 OA
HETATM   22  O           1     -19.383 -11.141  -4.883  0.00  0.00    -0.624 OA
BRANCH  20  23
HETATM   23  O           1     -18.608  -9.045  -3.697  0.00  0.00    -0.300 OA
HETATM   24  H           1     -19.171  -8.311  -3.521  0.00  0.00     0.223 HD
ENDBRANCH  20  23
ENDBRANCH  19  20
ENDBRANCH  18  19
ENDBRANCH  17  18
BRANCH  17  25
HETATM   25  C           1     -21.596  -6.878  -2.852  0.00  0.00     0.198 C 
HETATM   26  O           1     -20.707  -7.423  -2.163  0.00  0.00    -0.646 OA
HETATM   27  O           1     -22.284  -5.953  -2.368  0.00  0.00    -0.646 OA
ENDBRANCH  17  25
ENDBRANCH   4  17
TORSDOF 12
ENDMDL
MODEL 4
REMARK VINA RESULT:      -5.2      4.219      7.440
REMARK  12 active torsions:
REMARK  status: ('A' for Active; 'I' for Inactive)
REMARK       I    between atoms: C_1  and  N_27 
REMARK    1  A    between atoms: C_1  and  C_3 
REMARK    2  A    between atoms: N_2  and  C_12 
REMARK    3  A    between atoms: C_3  and  C_11 
REMARK    4  A    between atoms: C_3  and  N_4 
REMARK    5  A    between atoms: P_5  and  O_9 
REMARK    6  A    between atoms: P_5  and  O_20 
REMARK    7  A    between atoms: O_9  and  C_14 
REMARK    8  A    between atoms: C_11  and  C_21 
REMARK    9  A    between atoms: C_12  and  C_21 
REMARK   10  A    between atoms: C_14  and  C_25 
REMARK   11  A    between atoms: C_24  and  C_25 
REMARK   12  A    between atoms: C_25  and  N_27 
ROOT
HETATM    1  C           1     -21.380  -5.833  -5.622  0.00  0.00     0.249 C 
HETATM    2  H           1     -19.794  -6.835  -4.748  0.00  0.00     0.163 HD
HETATM    3  O           1     -22.581  -5.702  -5.637  0.00  0.00    -0.271 OA
HETATM    4  N           1     -20.800  -6.725  -4.761  0.00  0.00    -0.343 N 
ENDROOT
BRANCH   1   5
HETATM    5  C           1     -20.520  -5.012  -6.551  0.00  0.00     0.274 C 
BRANCH   5   6
HETATM    6  C           1     -21.354  -3.894  -7.161  0.00  0.00     0.044 C 
BRANCH   6   7
HETATM    7  C           1     -21.437  -4.088  -8.670  0.00  0.00     0.030 C 
BRANCH   7   8
HETATM    8  C           1     -22.894  -4.045  -9.109  0.00  0.00     0.230 C 
BRANCH   8   9
HETATM    9  N           1     -23.782  -4.102  -7.901  0.00  0.00    -0.079 N 
HETATM   10  H           1     -24.499  -3.344  -7.959  0.00  0.00     0.274 HD
HETATM   11  H           1     -23.206  -3.969  -7.039  0.00  0.00     0.274 HD
HETATM   12  H           1     -24.259  -5.030  -7.863  0.00  0.00     0.274 HD
ENDBRANCH   8   9
ENDBRANCH   7   8
ENDBRANCH   6   7
ENDBRANCH   5   6
BRANCH   5  13
HETATM   13  N           1     -19.985  -5.890  -7.642  0.00  0.00    -0.067 N 
HETATM   14  H           1     -19.194  -6.464  -7.273  0.00  0.00     0.275 HD
HETATM   15  H           1     -20.744  -6.524  -7.983  0.00  0.00     0.275 HD
HETATM   16  H           1     -19.646  -5.296  -8.433  0.00  0.00     0.275 HD
ENDBRANCH   5  13
ENDBRANCH   1   5
BRANCH   4  17
HETATM   17  C           1     -21.628  -7.514  -3.869  0.00  0.00     0.210 C 
BRANCH  17  18
HETATM   18  C           1     -21.085  -8.935  -3.797  0.00  0.00     0.217 C 
BRANCH  18  19
HETATM   19  O           1     -22.153  -9.840  -3.717  0.00  0.00    -0.287 OA
BRANCH  19  20
HETATM   20  P           1     -22.106 -10.882  -2.484  0.00  0.00     0.406 P 
HETATM   21  O           1     -21.463 -12.141  -2.925  0.00  0.00    -0.624 OA
HETATM   22  O           1     -23.484 -11.167  -2.026  0.00  0.00    -0.624 OA
BRANCH  20  23
HETATM   23  O           1     -21.255 -10.241  -1.270  0.00  0.00    -0.300 OA
HETATM   24  H           1     -20.706 -10.940  -0.962  0.00  0.00     0.223 HD
ENDBRANCH  20  23
ENDBRANCH  19  20
ENDBRANCH  18  19
ENDBRANCH  17  18
BRANCH  17  25
HETATM   25  C           1     -21.609  -6.898  -2.491  0.00  0.00     0.198 C 
HETATM   26  O           1     -20.868  -7.372  -1.604  0.00  0.00    -0.646 OA
HETATM   27  O           1     -22.336  -5.912  -2.237  0.00  0.00    -0.646 OA
ENDBRANCH  17  25
ENDBRANCH   4  17
TORSDOF 12
ENDMDL
MODEL 5
REMARK VINA RESULT:      -5.0      4.002      7.029
REMARK  12 active torsions:
REMARK  status: ('A' for Active; 'I' for Inactive)
REMARK       I    between atoms: C_1  and  N_27 
REMARK    1  A    between atoms: C_1  and  C_3 
REMARK    2  A    between atoms: N_2  and  C_12 
REMARK    3  A    between atoms: C_3  and  C_11 
REMARK    4  A    between atoms: C_3  and  N_4 
REMARK    5  A    between atoms: P_5  and  O_9 
REMARK    6  A    between atoms: P_5  and  O_20 
REMARK    7  A    between atoms: O_9  and  C_14 
REMARK    8  A    between atoms: C_11  and  C_21 
REMARK    9  A    between atoms: C_12  and  C_21 
REMARK   10  A    between atoms: C_14  and  C_25 
REMARK   11  A    between atoms: C_24  and  C_25 
REMARK   12  A    between atoms: C_25  and  N_27 
ROOT
HETATM    1  C           1     -20.697  -4.706  -6.769  0.00  0.00     0.249 C 
HETATM    2  H           1     -22.478  -5.581  -6.178  0.00  0.00     0.163 HD
HETATM    3  O           1     -19.508  -4.650  -6.569  0.00  0.00    -0.271 OA
HETATM    4  N           1     -21.481  -5.534  -6.011  0.00  0.00    -0.343 N 
ENDROOT
BRANCH   1   5
HETATM    5  C           1     -21.321  -3.862  -7.854  0.00  0.00     0.274 C 
BRANCH   5   6
HETATM    6  C           1     -22.790  -4.232  -8.004  0.00  0.00     0.044 C 
BRANCH   6   7
HETATM    7  C           1     -23.122  -4.405  -9.481  0.00  0.00     0.030 C 
BRANCH   7   8
HETATM    8  C           1     -24.121  -3.338  -9.907  0.00  0.00     0.230 C 
BRANCH   8   9
HETATM    9  N           1     -25.514  -3.816  -9.622  0.00  0.00    -0.079 N 
HETATM   10  H           1     -25.813  -3.478  -8.678  0.00  0.00     0.274 HD
HETATM   11  H           1     -25.534  -4.861  -9.638  0.00  0.00     0.274 HD
HETATM   12  H           1     -26.166  -3.442 -10.348  0.00  0.00     0.274 HD
ENDBRANCH   8   9
ENDBRANCH   7   8
ENDBRANCH   6   7
ENDBRANCH   5   6
BRANCH   5  13
HETATM   13  N           1     -20.608  -4.110  -9.149  0.00  0.00    -0.067 N 
HETATM   14  H           1     -20.276  -3.201  -9.545  0.00  0.00     0.275 HD
HETATM   15  H           1     -19.787  -4.736  -8.982  0.00  0.00     0.275 HD
HETATM   16  H           1     -21.262  -4.566  -9.826  0.00  0.00     0.275 HD
ENDBRANCH   5  13
ENDBRANCH   1   5
BRANCH   4  17
HETATM   17  C           1     -20.881  -6.345  -4.968  0.00  0.00     0.210 C 
BRANCH  17  18
HETATM   18  C           1     -21.860  -6.488  -3.811  0.00  0.00     0.217 C 
BRANCH  18  19
HETATM   19  O           1     -21.152  -6.523  -2.600  0.00  0.00    -0.287 OA
BRANCH  19  20
HETATM   20  P           1     -21.519  -7.737  -1.601  0.00  0.00     0.406 P 
HETATM   21  O           1     -20.325  -8.098  -0.803  0.00  0.00    -0.624 OA
HETATM   22  O           1     -21.957  -8.910  -2.391  0.00  0.00    -0.624 OA
BRANCH  20  23
HETATM   23  O           1     -22.709  -7.278  -0.611  0.00  0.00    -0.300 OA
HETATM   24  H           1     -23.408  -7.006  -1.179  0.00  0.00     0.223 HD
ENDBRANCH  20  23
ENDBRANCH  19  20
ENDBRANCH  18  19
ENDBRANCH  17  18
BRANCH  17  25
HETATM   25  C           1     -20.550  -7.710  -5.521  0.00  0.00     0.198 C 
HETATM   26  O           1     -19.360  -8.031  -5.724  0.00  0.00    -0.646 OA
HETATM   27  O           1     -21.468  -8.520  -5.775  0.00  0.00    -0.646 OA
ENDBRANCH  17  25
ENDBRANCH   4  17
TORSDOF 12
ENDMDL
MODEL 6
REMARK VINA RESULT:      -4.9     13.705     15.460
REMARK  12 active torsions:
REMARK  status: ('A' for Active; 'I' for Inactive)
REMARK       I    between atoms: C_1  and  N_27 
REMARK    1  A    between atoms: C_1  and  C_3 
REMARK    2  A    between atoms: N_2  and  C_12 
REMARK    3  A    between atoms: C_3  and  C_11 
REMARK    4  A    between atoms: C_3  and  N_4 
REMARK    5  A    between atoms: P_5  and  O_9 
REMARK    6  A    between atoms: P_5  and  O_20 
REMARK    7  A    between atoms: O_9  and  C_14 
REMARK    8  A    between atoms: C_11  and  C_21 
REMARK    9  A    between atoms: C_12  and  C_21 
REMARK   10  A    between atoms: C_14  and  C_25 
REMARK   11  A    between atoms: C_24  and  C_25 
REMARK   12  A    between atoms: C_25  and  N_27 
ROOT
HETATM    1  C           1     -36.246  -1.374 -10.529  0.00  0.00     0.249 C 
HETATM    2  H           1     -34.386  -0.565 -10.942  0.00  0.00     0.163 HD
HETATM    3  O           1     -36.921  -2.374 -10.569  0.00  0.00    -0.271 OA
HETATM    4  N           1     -34.952  -1.403 -10.975  0.00  0.00    -0.343 N 
ENDROOT
BRANCH   1   5
HETATM    5  C           1     -36.829  -0.092  -9.986  0.00  0.00     0.274 C 
BRANCH   5   6
HETATM    6  C           1     -37.166  -0.271  -8.512  0.00  0.00     0.044 C 
BRANCH   6   7
HETATM    7  C           1     -36.451   0.796  -7.693  0.00  0.00     0.030 C 
BRANCH   7   8
HETATM    8  C           1     -37.336   1.221  -6.529  0.00  0.00     0.230 C 
BRANCH   8   9
HETATM    9  N           1     -36.913   0.492  -5.288  0.00  0.00    -0.079 N 
HETATM   10  H           1     -36.847  -0.532  -5.490  0.00  0.00     0.274 HD
HETATM   11  H           1     -37.617   0.653  -4.533  0.00  0.00     0.274 HD
HETATM   12  H           1     -35.980   0.846  -4.977  0.00  0.00     0.274 HD
ENDBRANCH   8   9
ENDBRANCH   7   8
ENDBRANCH   6   7
ENDBRANCH   5   6
BRANCH   5  13
HETATM   13  N           1     -38.075   0.251 -10.746  0.00  0.00    -0.067 N 
HETATM   14  H           1     -38.678   0.876 -10.165  0.00  0.00     0.275 HD
HETATM   15  H           1     -37.819   0.742 -11.633  0.00  0.00     0.275 HD
HETATM   16  H           1     -38.598  -0.626 -10.971  0.00  0.00     0.275 HD
ENDBRANCH   5  13
ENDBRANCH   1   5
BRANCH   4  17
HETATM   17  C           1     -34.393  -2.635 -11.497  0.00  0.00     0.210 C 
BRANCH  17  18
HETATM   18  C           1     -35.150  -3.822 -10.916  0.00  0.00     0.217 C 
BRANCH  18  19
HETATM   19  O           1     -34.243  -4.703 -10.307  0.00  0.00    -0.287 OA
BRANCH  19  20
HETATM   20  P           1     -34.205  -6.202 -10.906  0.00  0.00     0.406 P 
HETATM   21  O           1     -34.992  -7.103 -10.035  0.00  0.00    -0.624 OA
HETATM   22  O           1     -32.803  -6.674 -10.964  0.00  0.00    -0.624 OA
BRANCH  20  23
HETATM   23  O           1     -34.836  -6.203 -12.393  0.00  0.00    -0.300 OA
HETATM   24  H           1     -35.765  -6.128 -12.263  0.00  0.00     0.223 HD
ENDBRANCH  20  23
ENDBRANCH  19  20
ENDBRANCH  18  19
ENDBRANCH  17  18
BRANCH  17  25
HETATM   25  C           1     -34.519  -2.646 -13.001  0.00  0.00     0.198 C 
HETATM   26  O           1     -35.008  -1.661 -13.595  0.00  0.00    -0.646 OA
HETATM   27  O           1     -34.134  -3.641 -13.653  0.00  0.00    -0.646 OA
ENDBRANCH  17  25
ENDBRANCH   4  17
TORSDOF 12
ENDMDL
MODEL 7
REMARK VINA RESULT:      -4.9      4.402      7.363
REMARK  12 active torsions:
REMARK  status: ('A' for Active; 'I' for Inactive)
REMARK       I    between atoms: C_1  and  N_27 
REMARK    1  A    between atoms: C_1  and  C_3 
REMARK    2  A    between atoms: N_2  and  C_12 
REMARK    3  A    between atoms: C_3  and  C_11 
REMARK    4  A    between atoms: C_3  and  N_4 
REMARK    5  A    between atoms: P_5  and  O_9 
REMARK    6  A    between atoms: P_5  and  O_20 
REMARK    7  A    between atoms: O_9  and  C_14 
REMARK    8  A    between atoms: C_11  and  C_21 
REMARK    9  A    between atoms: C_12  and  C_21 
REMARK   10  A    between atoms: C_14  and  C_25 
REMARK   11  A    between atoms: C_24  and  C_25 
REMARK   12  A    between atoms: C_25  and  N_27 
ROOT
HETATM    1  C           1     -20.476  -6.973  -5.645  0.00  0.00     0.249 C 
HETATM    2  H           1     -21.723  -7.344  -4.036  0.00  0.00     0.163 HD
HETATM    3  O           1     -19.562  -7.402  -6.309  0.00  0.00    -0.271 OA
HETATM    4  N           1     -20.958  -7.703  -4.592  0.00  0.00    -0.343 N 
ENDROOT
BRANCH   1   5
HETATM    5  C           1     -21.086  -5.634  -5.978  0.00  0.00     0.274 C 
BRANCH   5   6
HETATM    6  C           1     -21.203  -5.489  -7.489  0.00  0.00     0.044 C 
BRANCH   6   7
HETATM    7  C           1     -21.386  -4.019  -7.846  0.00  0.00     0.030 C 
BRANCH   7   8
HETATM    8  C           1     -22.579  -3.867  -8.780  0.00  0.00     0.230 C 
BRANCH   8   9
HETATM    9  N           1     -23.849  -4.038  -8.000  0.00  0.00    -0.079 N 
HETATM   10  H           1     -24.264  -4.974  -8.210  0.00  0.00     0.274 HD
HETATM   11  H           1     -24.527  -3.290  -8.270  0.00  0.00     0.274 HD
HETATM   12  H           1     -23.642  -3.970  -6.978  0.00  0.00     0.274 HD
ENDBRANCH   8   9
ENDBRANCH   7   8
ENDBRANCH   6   7
ENDBRANCH   5   6
BRANCH   5  13
HETATM   13  N           1     -20.214  -4.540  -5.437  0.00  0.00    -0.067 N 
HETATM   14  H           1     -20.614  -3.611  -5.701  0.00  0.00     0.275 HD
HETATM   15  H           1     -20.167  -4.614  -4.395  0.00  0.00     0.275 HD
HETATM   16  H           1     -19.252  -4.632  -5.836  0.00  0.00     0.275 HD
ENDBRANCH   5  13
ENDBRANCH   1   5
BRANCH   4  17
HETATM   17  C           1     -20.370  -8.990  -4.273  0.00  0.00     0.210 C 
BRANCH  17  18
HETATM   18  C           1     -20.291  -9.151  -2.761  0.00  0.00     0.217 C 
BRANCH  18  19
HETATM   19  O           1     -20.722  -7.968  -2.142  0.00  0.00    -0.287 OA
BRANCH  19  20
HETATM   20  P           1     -21.754  -8.150  -0.913  0.00  0.00     0.406 P 
HETATM   21  O           1     -20.998  -8.286   0.352  0.00  0.00    -0.624 OA
HETATM   22  O           1     -22.572  -9.364  -1.131  0.00  0.00    -0.624 OA
BRANCH  20  23
HETATM   23  O           1     -22.719  -6.858  -0.825  0.00  0.00    -0.300 OA
HETATM   24  H           1     -23.402  -7.021  -1.452  0.00  0.00     0.223 HD
ENDBRANCH  20  23
ENDBRANCH  19  20
ENDBRANCH  18  19
ENDBRANCH  17  18
BRANCH  17  25
HETATM   25  C           1     -21.227 -10.090  -4.852  0.00  0.00     0.198 C 
HETATM   26  O           1     -21.099 -10.416  -6.052  0.00  0.00    -0.646 OA
HETATM   27  O           1     -22.065 -10.675  -4.131  0.00  0.00    -0.646 OA
ENDBRANCH  17  25
ENDBRANCH   4  17
TORSDOF 12
ENDMDL
MODEL 8
REMARK VINA RESULT:      -4.7      1.643      2.708
REMARK  12 active torsions:
REMARK  status: ('A' for Active; 'I' for Inactive)
REMARK       I    between atoms: C_1  and  N_27 
REMARK    1  A    between atoms: C_1  and  C_3 
REMARK    2  A    between atoms: N_2  and  C_12 
REMARK    3  A    between atoms: C_3  and  C_11 
REMARK    4  A    between atoms: C_3  and  N_4 
REMARK    5  A    between atoms: P_5  and  O_9 
REMARK    6  A    between atoms: P_5  and  O_20 
REMARK    7  A    between atoms: O_9  and  C_14 
REMARK    8  A    between atoms: C_11  and  C_21 
REMARK    9  A    between atoms: C_12  and  C_21 
REMARK   10  A    between atoms: C_14  and  C_25 
REMARK   11  A    between atoms: C_24  and  C_25 
REMARK   12  A    between atoms: C_25  and  N_27 
ROOT
HETATM    1  C           1     -20.508  -6.910  -6.502  0.00  0.00     0.249 C 
HETATM    2  H           1     -22.401  -6.086  -6.652  0.00  0.00     0.163 HD
HETATM    3  O           1     -19.386  -6.898  -6.947  0.00  0.00    -0.271 OA
HETATM    4  N           1     -21.460  -6.077  -7.025  0.00  0.00    -0.343 N 
ENDROOT
BRANCH   1   5
HETATM    5  C           1     -20.861  -7.843  -5.370  0.00  0.00     0.274 C 
BRANCH   5   6
HETATM    6  C           1     -21.575  -7.064  -4.273  0.00  0.00     0.044 C 
BRANCH   6   7
HETATM    7  C           1     -21.677  -7.926  -3.021  0.00  0.00     0.030 C 
BRANCH   7   8
HETATM    8  C           1     -21.625  -7.038  -1.786  0.00  0.00     0.230 C 
BRANCH   8   9
HETATM    9  N           1     -22.352  -5.754  -2.063  0.00  0.00    -0.079 N 
HETATM   10  H           1     -22.227  -5.102  -1.255  0.00  0.00     0.274 HD
HETATM   11  H           1     -23.369  -5.952  -2.195  0.00  0.00     0.274 HD
HETATM   12  H           1     -21.965  -5.315  -2.928  0.00  0.00     0.274 HD
ENDBRANCH   8   9
ENDBRANCH   7   8
ENDBRANCH   6   7
ENDBRANCH   5   6
BRANCH   5  13
HETATM   13  N           1     -19.608  -8.451  -4.815  0.00  0.00    -0.067 N 
HETATM   14  H           1     -19.599  -9.477  -5.017  0.00  0.00     0.275 HD
HETATM   15  H           1     -18.776  -8.002  -5.261  0.00  0.00     0.275 HD
HETATM   16  H           1     -19.575  -8.300  -3.782  0.00  0.00     0.275 HD
ENDBRANCH   5  13
ENDBRANCH   1   5
BRANCH   4  17
HETATM   17  C           1     -21.120  -5.180  -8.113  0.00  0.00     0.210 C 
BRANCH  17  18
HETATM   18  C           1     -22.363  -4.901  -8.947  0.00  0.00     0.217 C 
BRANCH  18  19
HETATM   19  O           1     -22.209  -3.681  -9.622  0.00  0.00    -0.287 OA
BRANCH  19  20
HETATM   20  P           1     -21.738  -3.781 -11.164  0.00  0.00     0.406 P 
HETATM   21  O           1     -20.393  -4.393 -11.231  0.00  0.00    -0.624 OA
HETATM   22  O           1     -21.692  -2.424 -11.754  0.00  0.00    -0.624 OA
BRANCH  20  23
HETATM   23  O           1     -22.786  -4.693 -11.988  0.00  0.00    -0.300 OA
HETATM   24  H           1     -22.906  -4.246 -12.808  0.00  0.00     0.223 HD
ENDBRANCH  20  23
ENDBRANCH  19  20
ENDBRANCH  18  19
ENDBRANCH  17  18
BRANCH  17  25
HETATM   25  C           1     -20.590  -3.884  -7.549  0.00  0.00     0.198 C 
HETATM   26  O           1     -19.472  -3.457  -7.909  0.00  0.00    -0.646 OA
HETATM   27  O           1     -21.270  -3.238  -6.722  0.00  0.00    -0.646 OA
ENDBRANCH  17  25
ENDBRANCH   4  17
TORSDOF 12
ENDMDL
MODEL 9
REMARK VINA RESULT:      -4.5      4.123      5.861
REMARK  12 active torsions:
REMARK  status: ('A' for Active; 'I' for Inactive)
REMARK       I    between atoms: C_1  and  N_27 
REMARK    1  A    between atoms: C_1  and  C_3 
REMARK    2  A    between atoms: N_2  and  C_12 
REMARK    3  A    between atoms: C_3  and  C_11 
REMARK    4  A    between atoms: C_3  and  N_4 
REMARK    5  A    between atoms: P_5  and  O_9 
REMARK    6  A    between atoms: P_5  and  O_20 
REMARK    7  A    between atoms: O_9  and  C_14 
REMARK    8  A    between atoms: C_11  and  C_21 
REMARK    9  A    between atoms: C_12  and  C_21 
REMARK   10  A    between atoms: C_14  and  C_25 
REMARK   11  A    between atoms: C_24  and  C_25 
REMARK   12  A    between atoms: C_25  and  N_27 
ROOT
HETATM    1  C           1     -21.359  -9.000  -2.054  0.00  0.00     0.249 C 
HETATM    2  H           1     -19.753  -7.929  -2.803  0.00  0.00     0.163 HD
HETATM    3  O           1     -22.189  -9.841  -2.301  0.00  0.00    -0.271 OA
HETATM    4  N           1     -20.449  -8.634  -3.010  0.00  0.00    -0.343 N 
ENDROOT
BRANCH   1   5
HETATM    5  C           1     -21.324  -8.352  -0.692  0.00  0.00     0.274 C 
BRANCH   5   6
HETATM    6  C           1     -21.890  -9.314   0.344  0.00  0.00     0.044 C 
BRANCH   6   7
HETATM    7  C           1     -20.785 -10.243   0.832  0.00  0.00     0.030 C 
BRANCH   7   8
HETATM    8  C           1     -21.265 -11.686   0.759  0.00  0.00     0.230 C 
BRANCH   8   9
HETATM    9  N           1     -22.586 -11.738   0.050  0.00  0.00    -0.079 N 
HETATM   10  H           1     -23.087 -12.619   0.309  0.00  0.00     0.274 HD
HETATM   11  H           1     -22.428 -11.721  -0.983  0.00  0.00     0.274 HD
HETATM   12  H           1     -23.164 -10.914   0.329  0.00  0.00     0.274 HD
ENDBRANCH   8   9
ENDBRANCH   7   8
ENDBRANCH   6   7
ENDBRANCH   5   6
BRANCH   5  13
HETATM   13  N           1     -22.148  -7.099  -0.714  0.00  0.00    -0.067 N 
HETATM   14  H           1     -21.661  -6.351  -0.170  0.00  0.00     0.275 HD
HETATM   15  H           1     -22.275  -6.783  -1.702  0.00  0.00     0.275 HD
HETATM   16  H           1     -23.082  -7.289  -0.285  0.00  0.00     0.275 HD
ENDBRANCH   5  13
ENDBRANCH   1   5
BRANCH   4  17
HETATM   17  C           1     -20.484  -9.257  -4.319  0.00  0.00     0.210 C 
BRANCH  17  18
HETATM   18  C           1     -21.168  -8.323  -5.308  0.00  0.00     0.217 C 
BRANCH  18  19
HETATM   19  O           1     -20.404  -7.155  -5.452  0.00  0.00    -0.287 OA
BRANCH  19  20
HETATM   20  P           1     -21.137  -5.776  -5.039  0.00  0.00     0.406 P 
HETATM   21  O           1     -22.382  -5.623  -5.825  0.00  0.00    -0.624 OA
HETATM   22  O           1     -20.235  -4.636  -5.317  0.00  0.00    -0.624 OA
BRANCH  20  23
HETATM   23  O           1     -21.496  -5.809  -3.464  0.00  0.00    -0.300 OA
HETATM   24  H           1     -20.723  -6.144  -3.045  0.00  0.00     0.223 HD
ENDBRANCH  20  23
ENDBRANCH  19  20
ENDBRANCH  18  19
ENDBRANCH  17  18
BRANCH  17  25
HETATM   25  C           1     -19.074  -9.535  -4.781  0.00  0.00     0.198 C 
HETATM   26  O           1     -18.107  -9.255  -4.040  0.00  0.00    -0.646 OA
HETATM   27  O           1     -18.873 -10.044  -5.905  0.00  0.00    -0.646 OA
ENDBRANCH  17  25
ENDBRANCH   4  17
TORSDOF 12
ENDMDL
