MODEL 1
REMARK VINA RESULT:      -5.6      0.000      0.000
REMARK  10 active torsions:
REMARK  status: ('A' for Active; 'I' for Inactive)
REMARK    1  A    between atoms: C_2  and  C_18 
REMARK    2  A    between atoms: C_2  and  C_3 
REMARK    3  A    between atoms: C_2  and  N_7 
REMARK    4  A    between atoms: C_4  and  C_13 
REMARK    5  A    between atoms: C_4  and  N_20 
REMARK       I    between atoms: N_7  and  C_8 
REMARK    6  A    between atoms: C_8  and  C_15 
REMARK    7  A    between atoms: C_13  and  C_14 
REMARK    8  A    between atoms: C_14  and  C_15 
REMARK    9  A    between atoms: C_15  and  N_21 
REMARK   10  A    between atoms: C_18  and  S_19 
ROOT
HETATM    1  C           1     -21.164  -5.914  -6.789  0.00  0.00     0.274 C 
ENDROOT
BRANCH   1   2
HETATM    2  C           1     -21.696  -4.693  -7.499  0.00  0.00     0.249 C 
HETATM    3  N           1     -22.216  -4.806  -8.760  0.00  0.00    -0.344 N 
HETATM    4  H           1     -22.244  -5.708  -9.217  0.00  0.00     0.163 HD
HETATM    5  O           1     -21.662  -3.615  -6.954  0.00  0.00    -0.271 OA
BRANCH   3   6
HETATM    6  C           1     -22.727  -3.632  -9.441  0.00  0.00     0.194 C 
BRANCH   6   7
HETATM    7  C           1     -22.047  -3.498 -10.798  0.00  0.00     0.106 C 
BRANCH   7   8
HETATM    8  S           1     -20.434  -4.329 -10.750  0.00  0.00    -0.180 SA
HETATM    9  H           1     -20.647  -5.112 -11.824  0.00  0.00     0.101 HD
ENDBRANCH   7   8
ENDBRANCH   6   7
BRANCH   6  10
HETATM   10  C           1     -24.216  -3.773  -9.636  0.00  0.00     0.197 C 
HETATM   11  O           1     -24.707  -4.887  -9.923  0.00  0.00    -0.646 OA
HETATM   12  O           1     -24.960  -2.776  -9.511  0.00  0.00    -0.646 OA
ENDBRANCH   6  10
ENDBRANCH   3   6
ENDBRANCH   1   2
BRANCH   1  13
HETATM   13  C           1     -21.017  -5.615  -5.303  0.00  0.00     0.044 C 
BRANCH  13  14
HETATM   14  C           1     -21.937  -6.532  -4.507  0.00  0.00     0.030 C 
BRANCH  14  15
HETATM   15  C           1     -21.439  -6.628  -3.070  0.00  0.00     0.230 C 
BRANCH  15  16
HETATM   16  N           1     -22.349  -5.844  -2.172  0.00  0.00    -0.079 N 
HETATM   17  H           1     -23.091  -6.474  -1.791  0.00  0.00     0.274 HD
HETATM   18  H           1     -21.796  -5.440  -1.383  0.00  0.00     0.274 HD
HETATM   19  H           1     -22.794  -5.070  -2.716  0.00  0.00     0.274 HD
ENDBRANCH  15  16
ENDBRANCH  14  15
ENDBRANCH  13  14
ENDBRANCH   1  13
BRANCH   1  20
HETATM   20  N           1     -19.826  -6.280  -7.361  0.00  0.00    -0.067 N 
HETATM   21  H           1     -19.079  -5.744  -6.868  0.00  0.00     0.275 HD
HETATM   22  H           1     -19.663  -7.305  -7.233  0.00  0.00     0.275 HD
HETATM   23  H           1     -19.807  -6.049  -8.380  0.00  0.00     0.275 HD
ENDBRANCH   1  20
TORSDOF 10
ENDMDL
MODEL 2
REMARK VINA RESULT:      -5.3      3.265      6.094
REMARK  10 active torsions:
REMARK  status: ('A' for Active; 'I' for Inactive)
REMARK    1  A    between atoms: C_2  and  C_18 
REMARK    2  A    between atoms: C_2  and  C_3 
REMARK    3  A    between atoms: C_2  and  N_7 
REMARK    4  A    between atoms: C_4  and  C_13 
REMARK    5  A    between atoms: C_4  and  N_20 
REMARK       I    between atoms: N_7  and  C_8 
REMARK    6  A    between atoms: C_8  and  C_15 
REMARK    7  A    between atoms: C_13  and  C_14 
REMARK    8  A    between atoms: C_14  and  C_15 
REMARK    9  A    between atoms: C_15  and  N_21 
REMARK   10  A    between atoms: C_18  and  S_19 
ROOT
HETATM    1  C           1     -20.489  -4.973  -6.598  0.00  0.00     0.274 C 
ENDROOT
BRANCH   1   2
HETATM    2  C           1     -21.376  -5.778  -5.679  0.00  0.00     0.249 C 
HETATM    3  N           1     -20.826  -6.707  -4.837  0.00  0.00    -0.344 N 
HETATM    4  H           1     -19.825  -6.854  -4.830  0.00  0.00     0.163 HD
HETATM    5  O           1     -22.571  -5.603  -5.688  0.00  0.00    -0.271 OA
BRANCH   3   6
HETATM    6  C           1     -21.679  -7.479  -3.955  0.00  0.00     0.194 C 
BRANCH   6   7
HETATM    7  C           1     -21.193  -8.922  -3.917  0.00  0.00     0.106 C 
BRANCH   7   8
HETATM    8  S           1     -19.559  -9.031  -4.699  0.00  0.00    -0.180 SA
HETATM    9  H           1     -18.904  -9.447  -3.600  0.00  0.00     0.101 HD
ENDBRANCH   7   8
ENDBRANCH   6   7
BRANCH   6  10
HETATM   10  C           1     -21.627  -6.893  -2.565  0.00  0.00     0.197 C 
HETATM   11  O           1     -20.851  -7.376  -1.712  0.00  0.00    -0.646 OA
HETATM   12  O           1     -22.359  -5.925  -2.267  0.00  0.00    -0.646 OA
ENDBRANCH   6  10
ENDBRANCH   3   6
ENDBRANCH   1   2
BRANCH   1  13
HETATM   13  C           1     -21.289  -3.828  -7.204  0.00  0.00     0.044 C 
BRANCH  13  14
HETATM   14  C           1     -21.466  -4.066  -8.698  0.00  0.00     0.030 C 
BRANCH  14  15
HETATM   15  C           1     -22.900  -3.745  -9.098  0.00  0.00     0.230 C 
BRANCH  15  16
HETATM   16  N           1     -23.822  -4.077  -7.963  0.00  0.00    -0.079 N 
HETATM   17  H           1     -24.686  -4.532  -8.336  0.00  0.00     0.274 HD
HETATM   18  H           1     -23.342  -4.730  -7.303  0.00  0.00     0.274 HD
HETATM   19  H           1     -24.082  -3.201  -7.457  0.00  0.00     0.274 HD
ENDBRANCH  15  16
ENDBRANCH  14  15
ENDBRANCH  13  14
ENDBRANCH   1  13
BRANCH   1  20
HETATM   20  N           1     -19.973  -5.858  -7.694  0.00  0.00    -0.067 N 
HETATM   21  H           1     -19.420  -6.640  -7.279  0.00  0.00     0.275 HD
HETATM   22  H           1     -20.779  -6.248  -8.234  0.00  0.00     0.275 HD
HETATM   23  H           1     -19.363  -5.301  -8.334  0.00  0.00     0.275 HD
ENDBRANCH   1  20
TORSDOF 10
ENDMDL
MODEL 3
REMARK VINA RESULT:      -5.0     12.955     15.510
REMARK  10 active torsions:
REMARK  status: ('A' for Active; 'I' for Inactive)
REMARK    1  A    between atoms: C_2  and  C_18 
REMARK    2  A    between atoms: C_2  and  C_3 
REMARK    3  A    between atoms: C_2  and  N_7 
REMARK    4  A    between atoms: C_4  and  C_13 
REMARK    5  A    between atoms: C_4  and  N_20 
REMARK       I    between atoms: N_7  and  C_8 
REMARK    6  A    between atoms: C_8  and  C_15 
REMARK    7  A    between atoms: C_13  and  C_14 
REMARK    8  A    between atoms: C_14  and  C_15 
REMARK    9  A    between atoms: C_15  and  N_21 
REMARK   10  A    between atoms: C_18  and  S_19 
ROOT
HETATM    1  C           1     -35.933   0.372 -13.703  0.00  0.00     0.274 C 
ENDROOT
BRANCH   1   2
HETATM    2  C           1     -35.811  -0.839 -12.812  0.00  0.00     0.249 C 
HETATM    3  N           1     -34.764  -1.707 -12.974  0.00  0.00    -0.344 N 
HETATM    4  H           1     -34.072  -1.537 -13.693  0.00  0.00     0.163 HD
HETATM    5  O           1     -36.637  -1.044 -11.954  0.00  0.00    -0.271 OA
BRANCH   3   6
HETATM    6  C           1     -34.648  -2.871 -12.117  0.00  0.00     0.194 C 
BRANCH   6   7
HETATM    7  C           1     -34.365  -4.101 -12.970  0.00  0.00     0.106 C 
BRANCH   7   8
HETATM    8  S           1     -34.828  -5.595 -12.049  0.00  0.00    -0.180 SA
HETATM    9  H           1     -34.705  -6.444 -13.086  0.00  0.00     0.101 HD
ENDBRANCH   7   8
ENDBRANCH   6   7
BRANCH   6  10
HETATM   10  C           1     -33.516  -2.664 -11.141  0.00  0.00     0.197 C 
HETATM   11  O           1     -32.420  -3.237 -11.324  0.00  0.00    -0.646 OA
HETATM   12  O           1     -33.674  -1.920 -10.149  0.00  0.00    -0.646 OA
ENDBRANCH   6  10
ENDBRANCH   3   6
ENDBRANCH   1   2
BRANCH   1  13
HETATM   13  C           1     -36.816   0.038 -14.898  0.00  0.00     0.044 C 
BRANCH  13  14
HETATM   14  C           1     -35.987   0.094 -16.174  0.00  0.00     0.030 C 
BRANCH  14  15
HETATM   15  C           1     -36.016  -1.267 -16.859  0.00  0.00     0.230 C 
BRANCH  15  16
HETATM   16  N           1     -34.747  -2.007 -16.556  0.00  0.00    -0.079 N 
HETATM   17  H           1     -34.964  -3.014 -16.384  0.00  0.00     0.274 HD
HETATM   18  H           1     -34.093  -1.924 -17.366  0.00  0.00     0.274 HD
HETATM   19  H           1     -34.300  -1.597 -15.705  0.00  0.00     0.274 HD
ENDBRANCH  15  16
ENDBRANCH  14  15
ENDBRANCH  13  14
ENDBRANCH   1  13
BRANCH   1  20
HETATM   20  N           1     -34.570   0.775 -14.186  0.00  0.00    -0.067 N 
HETATM   21  H           1     -34.619   1.023 -15.199  0.00  0.00     0.275 HD
HETATM   22  H           1     -34.239   1.603 -13.640  0.00  0.00     0.275 HD
HETATM   23  H           1     -33.904  -0.019 -14.053  0.00  0.00     0.275 HD
ENDBRANCH   1  20
TORSDOF 10
ENDMDL
MODEL 4
REMARK VINA RESULT:      -4.9     15.034     16.529
REMARK  10 active torsions:
REMARK  status: ('A' for Active; 'I' for Inactive)
REMARK    1  A    between atoms: C_2  and  C_18 
REMARK    2  A    between atoms: C_2  and  C_3 
REMARK    3  A    between atoms: C_2  and  N_7 
REMARK    4  A    between atoms: C_4  and  C_13 
REMARK    5  A    between atoms: C_4  and  N_20 
REMARK       I    between atoms: N_7  and  C_8 
REMARK    6  A    between atoms: C_8  and  C_15 
REMARK    7  A    between atoms: C_13  and  C_14 
REMARK    8  A    between atoms: C_14  and  C_15 
REMARK    9  A    between atoms: C_15  and  N_21 
REMARK   10  A    between atoms: C_18  and  S_19 
ROOT
HETATM    1  C           1     -36.192   0.399 -14.607  0.00  0.00     0.274 C 
ENDROOT
BRANCH   1   2
HETATM    2  C           1     -36.860  -0.215 -13.401  0.00  0.00     0.249 C 
HETATM    3  N           1     -36.251  -0.159 -12.176  0.00  0.00    -0.344 N 
HETATM    4  H           1     -35.351   0.294 -12.079  0.00  0.00     0.163 HD
HETATM    5  O           1     -37.934  -0.757 -13.517  0.00  0.00    -0.271 OA
BRANCH   3   6
HETATM    6  C           1     -36.895  -0.749 -11.019  0.00  0.00     0.194 C 
BRANCH   6   7
HETATM    7  C           1     -36.073  -1.936 -10.534  0.00  0.00     0.106 C 
BRANCH   7   8
HETATM    8  S           1     -34.452  -1.925 -11.350  0.00  0.00    -0.180 SA
HETATM    9  H           1     -33.788  -2.540 -10.354  0.00  0.00     0.101 HD
ENDBRANCH   7   8
ENDBRANCH   6   7
BRANCH   6  10
HETATM   10  C           1     -36.992   0.280  -9.919  0.00  0.00     0.197 C 
HETATM   11  O           1     -36.208   0.229  -8.946  0.00  0.00    -0.646 OA
HETATM   12  O           1     -37.855   1.182  -9.982  0.00  0.00    -0.646 OA
ENDBRANCH   6  10
ENDBRANCH   3   6
ENDBRANCH   1   2
BRANCH   1  13
HETATM   13  C           1     -36.533  -0.415 -15.848  0.00  0.00     0.044 C 
BRANCH  13  14
HETATM   14  C           1     -35.248  -0.825 -16.556  0.00  0.00     0.030 C 
BRANCH  14  15
HETATM   15  C           1     -35.127  -2.344 -16.550  0.00  0.00     0.230 C 
BRANCH  15  16
HETATM   16  N           1     -33.851  -2.747 -17.228  0.00  0.00    -0.079 N 
HETATM   17  H           1     -33.961  -3.702 -17.637  0.00  0.00     0.274 HD
HETATM   18  H           1     -33.630  -2.065 -17.988  0.00  0.00     0.274 HD
HETATM   19  H           1     -33.073  -2.754 -16.530  0.00  0.00     0.274 HD
ENDBRANCH  15  16
ENDBRANCH  14  15
ENDBRANCH  13  14
ENDBRANCH   1  13
BRANCH   1  20
HETATM   20  N           1     -34.705   0.402 -14.404  0.00  0.00    -0.067 N 
HETATM   21  H           1     -34.339  -0.571 -14.497  0.00  0.00     0.275 HD
HETATM   22  H           1     -34.257   1.014 -15.124  0.00  0.00     0.275 HD
HETATM   23  H           1     -34.483   0.768 -13.451  0.00  0.00     0.275 HD
ENDBRANCH   1  20
TORSDOF 10
ENDMDL
MODEL 5
REMARK VINA RESULT:      -4.7      3.677      6.602
REMARK  10 active torsions:
REMARK  status: ('A' for Active; 'I' for Inactive)
REMARK    1  A    between atoms: C_2  and  C_18 
REMARK    2  A    between atoms: C_2  and  C_3 
REMARK    3  A    between atoms: C_2  and  N_7 
REMARK    4  A    between atoms: C_4  and  C_13 
REMARK    5  A    between atoms: C_4  and  N_20 
REMARK       I    between atoms: N_7  and  C_8 
REMARK    6  A    between atoms: C_8  and  C_15 
REMARK    7  A    between atoms: C_13  and  C_14 
REMARK    8  A    between atoms: C_14  and  C_15 
REMARK    9  A    between atoms: C_15  and  N_21 
REMARK   10  A    between atoms: C_18  and  S_19 
ROOT
HETATM    1  C           1     -21.502  -5.039  -7.619  0.00  0.00     0.274 C 
ENDROOT
BRANCH   1   2
HETATM    2  C           1     -20.928  -5.590  -6.337  0.00  0.00     0.249 C 
HETATM    3  N           1     -21.051  -6.923  -6.049  0.00  0.00    -0.344 N 
HETATM    4  H           1     -21.527  -7.539  -6.695  0.00  0.00     0.163 HD
HETATM    5  O           1     -20.361  -4.855  -5.565  0.00  0.00    -0.271 OA
BRANCH   3   6
HETATM    6  C           1     -20.500  -7.452  -4.816  0.00  0.00     0.194 C 
BRANCH   6   7
HETATM    7  C           1     -21.627  -7.699  -3.822  0.00  0.00     0.106 C 
BRANCH   7   8
HETATM    8  S           1     -21.674  -6.347  -2.612  0.00  0.00    -0.180 SA
HETATM    9  H           1     -20.972  -5.471  -3.352  0.00  0.00     0.101 HD
ENDBRANCH   7   8
ENDBRANCH   6   7
BRANCH   6  10
HETATM   10  C           1     -19.786  -8.750  -5.102  0.00  0.00     0.197 C 
HETATM   11  O           1     -18.676  -8.983  -4.574  0.00  0.00    -0.646 OA
HETATM   12  O           1     -20.305  -9.594  -5.865  0.00  0.00    -0.646 OA
ENDBRANCH   6  10
ENDBRANCH   3   6
ENDBRANCH   1   2
BRANCH   1  13
HETATM   13  C           1     -20.489  -4.107  -8.271  0.00  0.00     0.044 C 
BRANCH  13  14
HETATM   14  C           1     -20.308  -4.496  -9.733  0.00  0.00     0.030 C 
BRANCH  14  15
HETATM   15  C           1     -21.356  -3.787 -10.581  0.00  0.00     0.230 C 
BRANCH  15  16
HETATM   16  N           1     -20.676  -3.010 -11.669  0.00  0.00    -0.079 N 
HETATM   17  H           1     -20.622  -2.002 -11.396  0.00  0.00     0.274 HD
HETATM   18  H           1     -19.712  -3.384 -11.814  0.00  0.00     0.274 HD
HETATM   19  H           1     -21.221  -3.102 -12.556  0.00  0.00     0.274 HD
ENDBRANCH  15  16
ENDBRANCH  14  15
ENDBRANCH  13  14
ENDBRANCH   1  13
BRANCH   1  20
HETATM   20  N           1     -22.759  -4.278  -7.317  0.00  0.00    -0.067 N 
HETATM   21  H           1     -22.531  -3.453  -6.719  0.00  0.00     0.275 HD
HETATM   22  H           1     -23.192  -3.954  -8.211  0.00  0.00     0.275 HD
HETATM   23  H           1     -23.430  -4.900  -6.811  0.00  0.00     0.275 HD
ENDBRANCH   1  20
TORSDOF 10
ENDMDL
MODEL 6
REMARK VINA RESULT:      -4.7      2.957      5.853
REMARK  10 active torsions:
REMARK  status: ('A' for Active; 'I' for Inactive)
REMARK    1  A    between atoms: C_2  and  C_18 
REMARK    2  A    between atoms: C_2  and  C_3 
REMARK    3  A    between atoms: C_2  and  N_7 
REMARK    4  A    between atoms: C_4  and  C_13 
REMARK    5  A    between atoms: C_4  and  N_20 
REMARK       I    between atoms: N_7  and  C_8 
REMARK    6  A    between atoms: C_8  and  C_15 
REMARK    7  A    between atoms: C_13  and  C_14 
REMARK    8  A    between atoms: C_14  and  C_15 
REMARK    9  A    between atoms: C_15  and  N_21 
REMARK   10  A    between atoms: C_18  and  S_19 
ROOT
HETATM    1  C           1     -23.832  -4.478  -9.753  0.00  0.00     0.274 C 
ENDROOT
BRANCH   1   2
HETATM    2  C           1     -23.151  -4.530  -8.408  0.00  0.00     0.249 C 
HETATM    3  N           1     -21.849  -4.944  -8.315  0.00  0.00    -0.344 N 
HETATM    4  H           1     -21.343  -5.216  -9.148  0.00  0.00     0.163 HD
HETATM    5  O           1     -23.754  -4.206  -7.413  0.00  0.00    -0.271 OA
BRANCH   3   6
HETATM    6  C           1     -21.195  -4.993  -7.021  0.00  0.00     0.194 C 
BRANCH   6   7
HETATM    7  C           1     -21.139  -6.437  -6.537  0.00  0.00     0.106 C 
BRANCH   7   8
HETATM    8  S           1     -21.915  -6.557  -4.901  0.00  0.00    -0.180 SA
HETATM    9  H           1     -22.674  -5.453  -5.023  0.00  0.00     0.101 HD
ENDBRANCH   7   8
ENDBRANCH   6   7
BRANCH   6  10
HETATM   10  C           1     -19.793  -4.449  -7.146  0.00  0.00     0.197 C 
HETATM   11  O           1     -18.967  -4.634  -6.226  0.00  0.00    -0.646 OA
HETATM   12  O           1     -19.459  -3.814  -8.169  0.00  0.00    -0.646 OA
ENDBRANCH   6  10
ENDBRANCH   3   6
ENDBRANCH   1   2
BRANCH   1  13
HETATM   13  C           1     -23.019  -3.608 -10.703  0.00  0.00     0.044 C 
BRANCH  13  14
HETATM   14  C           1     -22.269  -4.494 -11.688  0.00  0.00     0.030 C 
BRANCH  14  15
HETATM   15  C           1     -20.769  -4.346 -11.466  0.00  0.00     0.230 C 
BRANCH  15  16
HETATM   16  N           1     -20.442  -2.907 -11.202  0.00  0.00    -0.079 N 
HETATM   17  H           1     -19.748  -2.572 -11.908  0.00  0.00     0.274 HD
HETATM   18  H           1     -21.312  -2.334 -11.271  0.00  0.00     0.274 HD
HETATM   19  H           1     -20.037  -2.811 -10.244  0.00  0.00     0.274 HD
ENDBRANCH  15  16
ENDBRANCH  14  15
ENDBRANCH  13  14
ENDBRANCH   1  13
BRANCH   1  20
HETATM   20  N           1     -25.206  -3.896  -9.595  0.00  0.00    -0.067 N 
HETATM   21  H           1     -25.235  -2.948 -10.030  0.00  0.00     0.275 HD
HETATM   22  H           1     -25.903  -4.518 -10.064  0.00  0.00     0.275 HD
HETATM   23  H           1     -25.437  -3.820  -8.578  0.00  0.00     0.275 HD
ENDBRANCH   1  20
TORSDOF 10
ENDMDL
MODEL 7
REMARK VINA RESULT:      -4.6     13.049     15.810
REMARK  10 active torsions:
REMARK  status: ('A' for Active; 'I' for Inactive)
REMARK    1  A    between atoms: C_2  and  C_18 
REMARK    2  A    between atoms: C_2  and  C_3 
REMARK    3  A    between atoms: C_2  and  N_7 
REMARK    4  A    between atoms: C_4  and  C_13 
REMARK    5  A    between atoms: C_4  and  N_20 
REMARK       I    between atoms: N_7  and  C_8 
REMARK    6  A    between atoms: C_8  and  C_15 
REMARK    7  A    between atoms: C_13  and  C_14 
REMARK    8  A    between atoms: C_14  and  C_15 
REMARK    9  A    between atoms: C_15  and  N_21 
REMARK   10  A    between atoms: C_18  and  S_19 
ROOT
HETATM    1  C           1     -35.543  -0.368 -14.125  0.00  0.00     0.274 C 
ENDROOT
BRANCH   1   2
HETATM    2  C           1     -35.426  -0.825 -12.691  0.00  0.00     0.249 C 
HETATM    3  N           1     -35.241  -2.151 -12.407  0.00  0.00    -0.344 N 
HETATM    4  H           1     -35.183  -2.826 -13.159  0.00  0.00     0.163 HD
HETATM    5  O           1     -35.496  -0.019 -11.794  0.00  0.00    -0.271 OA
BRANCH   3   6
HETATM    6  C           1     -35.128  -2.589 -11.029  0.00  0.00     0.194 C 
BRANCH   6   7
HETATM    7  C           1     -35.430  -4.079 -10.945  0.00  0.00     0.106 C 
BRANCH   7   8
HETATM    8  S           1     -34.728  -4.922 -12.392  0.00  0.00    -0.180 SA
HETATM    9  H           1     -35.724  -5.815 -12.533  0.00  0.00     0.101 HD
ENDBRANCH   7   8
ENDBRANCH   6   7
BRANCH   6  10
HETATM   10  C           1     -33.727  -2.330 -10.533  0.00  0.00     0.197 C 
HETATM   11  O           1     -33.544  -1.624  -9.518  0.00  0.00    -0.646 OA
HETATM   12  O           1     -32.749  -2.822 -11.138  0.00  0.00    -0.646 OA
ENDBRANCH   6  10
ENDBRANCH   3   6
ENDBRANCH   1   2
BRANCH   1  13
HETATM   13  C           1     -36.997  -0.036 -14.436  0.00  0.00     0.044 C 
BRANCH  13  14
HETATM   14  C           1     -37.073   0.724 -15.754  0.00  0.00     0.030 C 
BRANCH  14  15
HETATM   15  C           1     -35.966   1.770 -15.802  0.00  0.00     0.230 C 
BRANCH  15  16
HETATM   16  N           1     -36.441   2.967 -16.570  0.00  0.00    -0.079 N 
HETATM   17  H           1     -36.040   2.945 -17.535  0.00  0.00     0.274 HD
HETATM   18  H           1     -37.485   2.952 -16.627  0.00  0.00     0.274 HD
HETATM   19  H           1     -36.132   3.839 -16.084  0.00  0.00     0.274 HD
ENDBRANCH  15  16
ENDBRANCH  14  15
ENDBRANCH  13  14
ENDBRANCH   1  13
BRANCH   1  20
HETATM   20  N           1     -35.075  -1.464 -15.037  0.00  0.00    -0.067 N 
HETATM   21  H           1     -35.666  -1.477 -15.898  0.00  0.00     0.275 HD
HETATM   22  H           1     -34.078  -1.295 -15.300  0.00  0.00     0.275 HD
HETATM   23  H           1     -35.154  -2.383 -14.546  0.00  0.00     0.275 HD
ENDBRANCH   1  20
TORSDOF 10
ENDMDL
MODEL 8
REMARK VINA RESULT:      -4.5     18.492     20.736
REMARK  10 active torsions:
REMARK  status: ('A' for Active; 'I' for Inactive)
REMARK    1  A    between atoms: C_2  and  C_18 
REMARK    2  A    between atoms: C_2  and  C_3 
REMARK    3  A    between atoms: C_2  and  N_7 
REMARK    4  A    between atoms: C_4  and  C_13 
REMARK    5  A    between atoms: C_4  and  N_20 
REMARK       I    between atoms: N_7  and  C_8 
REMARK    6  A    between atoms: C_8  and  C_15 
REMARK    7  A    between atoms: C_13  and  C_14 
REMARK    8  A    between atoms: C_14  and  C_15 
REMARK    9  A    between atoms: C_15  and  N_21 
REMARK   10  A    between atoms: C_18  and  S_19 
ROOT
HETATM    1  C           1     -10.354   6.931 -20.073  0.00  0.00     0.274 C 
ENDROOT
BRANCH   1   2
HETATM    2  C           1     -11.403   6.267 -20.930  0.00  0.00     0.249 C 
HETATM    3  N           1     -12.200   5.287 -20.401  0.00  0.00    -0.344 N 
HETATM    4  H           1     -12.085   5.008 -19.435  0.00  0.00     0.163 HD
HETATM    5  O           1     -11.539   6.600 -22.083  0.00  0.00    -0.271 OA
BRANCH   3   6
HETATM    6  C           1     -13.208   4.649 -21.226  0.00  0.00     0.194 C 
BRANCH   6   7
HETATM    7  C           1     -13.103   3.137 -21.074  0.00  0.00     0.106 C 
BRANCH   7   8
HETATM    8  S           1     -11.373   2.678 -20.774  0.00  0.00    -0.180 SA
HETATM    9  H           1     -11.297   1.763 -21.758  0.00  0.00     0.101 HD
ENDBRANCH   7   8
ENDBRANCH   6   7
BRANCH   6  10
HETATM   10  C           1     -14.578   5.106 -20.787  0.00  0.00     0.197 C 
HETATM   11  O           1     -15.469   5.315 -21.639  0.00  0.00    -0.646 OA
HETATM   12  O           1     -14.821   5.274 -19.573  0.00  0.00    -0.646 OA
ENDBRANCH   6  10
ENDBRANCH   3   6
ENDBRANCH   1   2
BRANCH   1  13
HETATM   13  C           1      -9.242   7.476 -20.960  0.00  0.00     0.044 C 
BRANCH  13  14
HETATM   14  C           1      -9.290   8.999 -20.956  0.00  0.00     0.030 C 
BRANCH  14  15
HETATM   15  C           1      -9.667   9.499 -22.345  0.00  0.00     0.230 C 
BRANCH  15  16
HETATM   16  N           1     -11.158   9.630 -22.441  0.00  0.00    -0.079 N 
HETATM   17  H           1     -11.410  10.073 -23.353  0.00  0.00     0.274 HD
HETATM   18  H           1     -11.595   8.684 -22.381  0.00  0.00     0.274 HD
HETATM   19  H           1     -11.507  10.226 -21.657  0.00  0.00     0.274 HD
ENDBRANCH  15  16
ENDBRANCH  14  15
ENDBRANCH  13  14
ENDBRANCH   1  13
BRANCH   1  20
HETATM   20  N           1      -9.783   5.927 -19.115  0.00  0.00    -0.067 N 
HETATM   21  H           1      -9.819   4.976 -19.545  0.00  0.00     0.275 HD
HETATM   22  H           1      -8.790   6.176 -18.902  0.00  0.00     0.275 HD
HETATM   23  H           1     -10.340   5.931 -18.232  0.00  0.00     0.275 HD
ENDBRANCH   1  20
TORSDOF 10
ENDMDL
MODEL 9
REMARK VINA RESULT:      -4.5     19.185     20.343
REMARK  10 active torsions:
REMARK  status: ('A' for Active; 'I' for Inactive)
REMARK    1  A    between atoms: C_2  and  C_18 
REMARK    2  A    between atoms: C_2  and  C_3 
REMARK    3  A    between atoms: C_2  and  N_7 
REMARK    4  A    between atoms: C_4  and  C_13 
REMARK    5  A    between atoms: C_4  and  N_20 
REMARK       I    between atoms: N_7  and  C_8 
REMARK    6  A    between atoms: C_8  and  C_15 
REMARK    7  A    between atoms: C_13  and  C_14 
REMARK    8  A    between atoms: C_14  and  C_15 
REMARK    9  A    between atoms: C_15  and  N_21 
REMARK   10  A    between atoms: C_18  and  S_19 
ROOT
HETATM    1  C           1     -14.151   4.975 -21.439  0.00  0.00     0.274 C 
ENDROOT
BRANCH   1   2
HETATM    2  C           1     -13.197   6.145 -21.465  0.00  0.00     0.249 C 
HETATM    3  N           1     -12.686   6.638 -20.294  0.00  0.00    -0.344 N 
HETATM    4  H           1     -12.947   6.218 -19.411  0.00  0.00     0.163 HD
HETATM    5  O           1     -12.886   6.647 -22.519  0.00  0.00    -0.271 OA
BRANCH   3   6
HETATM    6  C           1     -11.770   7.762 -20.320  0.00  0.00     0.194 C 
BRANCH   6   7
HETATM    7  C           1     -12.321   8.883 -19.449  0.00  0.00     0.106 C 
BRANCH   7   8
HETATM    8  S           1     -12.744  10.307 -20.492  0.00  0.00    -0.180 SA
HETATM    9  H           1     -13.322  11.030 -19.516  0.00  0.00     0.101 HD
ENDBRANCH   7   8
ENDBRANCH   6   7
BRANCH   6  10
HETATM   10  C           1     -10.426   7.326 -19.790  0.00  0.00     0.197 C 
HETATM   11  O           1      -9.377   7.792 -20.287  0.00  0.00    -0.646 OA
HETATM   12  O           1     -10.361   6.500 -18.853  0.00  0.00    -0.646 OA
ENDBRANCH   6  10
ENDBRANCH   3   6
ENDBRANCH   1   2
BRANCH   1  13
HETATM   13  C           1     -13.525   3.793 -22.167  0.00  0.00     0.044 C 
BRANCH  13  14
HETATM   14  C           1     -12.992   2.793 -21.149  0.00  0.00     0.030 C 
BRANCH  14  15
HETATM   15  C           1     -11.469   2.842 -21.140  0.00  0.00     0.230 C 
BRANCH  15  16
HETATM   16  N           1     -11.001   3.632 -19.955  0.00  0.00    -0.079 N 
HETATM   17  H           1     -10.108   4.121 -20.192  0.00  0.00     0.274 HD
HETATM   18  H           1     -11.727   4.338 -19.698  0.00  0.00     0.274 HD
HETATM   19  H           1     -10.841   2.988 -19.147  0.00  0.00     0.274 HD
ENDBRANCH  15  16
ENDBRANCH  14  15
ENDBRANCH  13  14
ENDBRANCH   1  13
BRANCH   1  20
HETATM   20  N           1     -15.431   5.361 -22.119  0.00  0.00    -0.067 N 
HETATM   21  H           1     -15.825   4.532 -22.617  0.00  0.00     0.275 HD
HETATM   22  H           1     -16.117   5.697 -21.404  0.00  0.00     0.275 HD
HETATM   23  H           1     -15.245   6.125 -22.807  0.00  0.00     0.275 HD
ENDBRANCH   1  20
TORSDOF 10
ENDMDL
