MODEL 1
REMARK VINA RESULT:      -5.6      0.000      0.000
REMARK  7 active torsions:
REMARK  status: ('A' for Active; 'I' for Inactive)
REMARK    1  A    between atoms: O_5  and  C_6 
REMARK    2  A    between atoms: C_6  and  C_19 
REMARK    3  A    between atoms: C_7  and  C_8 
REMARK    4  A    between atoms: C_8  and  C_10 
REMARK    5  A    between atoms: C_8  and  N_17 
REMARK    6  A    between atoms: N_11  and  C_19 
REMARK       I    between atoms: N_17  and  C_18 
REMARK    7  A    between atoms: C_18  and  C_19 
ROOT
HETATM    1  O           1     -27.131  -5.658 -20.699  0.00  0.00    -0.271 OA
HETATM    2  H           1     -26.664  -7.165 -17.988  0.00  0.00     0.163 HD
HETATM    3  N           1     -27.136  -6.579 -18.665  0.00  0.00    -0.344 N 
HETATM    4  C           1     -26.569  -6.357 -19.892  0.00  0.00     0.251 C 
ENDROOT
BRANCH   4   5
HETATM    5  C           1     -25.240  -6.985 -20.233  0.00  0.00     0.297 C 
BRANCH   5   6
HETATM    6  C           1     -25.461  -8.164 -21.172  0.00  0.00     0.206 C 
BRANCH   6   7
HETATM    7  O           1     -26.810  -8.545 -21.135  0.00  0.00    -0.398 OA
HETATM    8  H           1     -27.176  -8.336 -21.977  0.00  0.00     0.209 HD
ENDBRANCH   6   7
ENDBRANCH   5   6
BRANCH   5   9
HETATM    9  N           1     -24.577  -7.465 -18.976  0.00  0.00    -0.064 N 
HETATM   10  H           1     -23.669  -6.963 -18.847  0.00  0.00     0.275 HD
HETATM   11  H           1     -25.199  -7.272 -18.159  0.00  0.00     0.275 HD
HETATM   12  H           1     -24.400  -8.493 -19.046  0.00  0.00     0.275 HD
ENDBRANCH   5   9
ENDBRANCH   4   5
BRANCH   3  13
HETATM   13  C           1     -28.413  -5.975 -18.337  0.00  0.00     0.189 C 
BRANCH  13  14
HETATM   14  C           1     -28.205  -4.882 -17.319  0.00  0.00     0.197 C 
HETATM   15  O           1     -27.560  -5.117 -16.273  0.00  0.00    -0.646 OA
HETATM   16  O           1     -28.677  -3.743 -17.519  0.00  0.00    -0.646 OA
ENDBRANCH  13  14
BRANCH  13  17
HETATM   17  C           1     -29.342  -7.036 -17.762  0.00  0.00     0.010 C 
HETATM   18  C           1     -29.704  -8.037 -18.852  0.00  0.00     0.012 C 
HETATM   19  C           1     -30.610  -6.371 -17.242  0.00  0.00     0.012 C 
ENDBRANCH  13  17
ENDBRANCH   3  13
TORSDOF 7
ENDMDL
MODEL 2
REMARK VINA RESULT:      -5.5     10.379     12.190
REMARK  7 active torsions:
REMARK  status: ('A' for Active; 'I' for Inactive)
REMARK    1  A    between atoms: O_5  and  C_6 
REMARK    2  A    between atoms: C_6  and  C_19 
REMARK    3  A    between atoms: C_7  and  C_8 
REMARK    4  A    between atoms: C_8  and  C_10 
REMARK    5  A    between atoms: C_8  and  N_17 
REMARK    6  A    between atoms: N_11  and  C_19 
REMARK       I    between atoms: N_17  and  C_18 
REMARK    7  A    between atoms: C_18  and  C_19 
ROOT
HETATM    1  O           1     -21.796  -3.671  -7.210  0.00  0.00    -0.271 OA
HETATM    2  H           1     -22.118  -5.691  -9.589  0.00  0.00     0.163 HD
HETATM    3  N           1     -22.167  -4.808  -9.096  0.00  0.00    -0.344 N 
HETATM    4  C           1     -21.738  -4.724  -7.798  0.00  0.00     0.251 C 
ENDROOT
BRANCH   4   5
HETATM    5  C           1     -21.194  -5.947  -7.103  0.00  0.00     0.297 C 
BRANCH   5   6
HETATM    6  C           1     -21.387  -5.805  -5.598  0.00  0.00     0.206 C 
BRANCH   6   7
HETATM    7  O           1     -22.747  -5.933  -5.287  0.00  0.00    -0.398 OA
HETATM    8  H           1     -22.940  -5.286  -4.630  0.00  0.00     0.209 HD
ENDBRANCH   6   7
ENDBRANCH   5   6
BRANCH   5   9
HETATM    9  N           1     -19.732  -6.087  -7.408  0.00  0.00    -0.064 N 
HETATM   10  H           1     -19.449  -5.357  -8.100  0.00  0.00     0.275 HD
HETATM   11  H           1     -19.180  -5.966  -6.529  0.00  0.00     0.275 HD
HETATM   12  H           1     -19.549  -7.036  -7.808  0.00  0.00     0.275 HD
ENDBRANCH   5   9
ENDBRANCH   4   5
BRANCH   3  13
HETATM   13  C           1     -22.690  -3.632  -9.764  0.00  0.00     0.189 C 
BRANCH  13  14
HETATM   14  C           1     -24.158  -3.827 -10.048  0.00  0.00     0.197 C 
HETATM   15  O           1     -24.806  -2.933 -10.636  0.00  0.00    -0.646 OA
HETATM   16  O           1     -24.729  -4.881  -9.695  0.00  0.00    -0.646 OA
ENDBRANCH  13  14
BRANCH  13  17
HETATM   17  C           1     -21.943  -3.420 -11.074  0.00  0.00     0.010 C 
HETATM   18  C           1     -22.202  -4.601 -12.002  0.00  0.00     0.012 C 
HETATM   19  C           1     -20.450  -3.309 -10.795  0.00  0.00     0.012 C 
ENDBRANCH  13  17
ENDBRANCH   3  13
TORSDOF 7
ENDMDL
MODEL 3
REMARK VINA RESULT:      -5.5      2.141      2.530
REMARK  7 active torsions:
REMARK  status: ('A' for Active; 'I' for Inactive)
REMARK    1  A    between atoms: O_5  and  C_6 
REMARK    2  A    between atoms: C_6  and  C_19 
REMARK    3  A    between atoms: C_7  and  C_8 
REMARK    4  A    between atoms: C_8  and  C_10 
REMARK    5  A    between atoms: C_8  and  N_17 
REMARK    6  A    between atoms: N_11  and  C_19 
REMARK       I    between atoms: N_17  and  C_18 
REMARK    7  A    between atoms: C_18  and  C_19 
ROOT
HETATM    1  O           1     -24.691  -6.506 -17.817  0.00  0.00    -0.271 OA
HETATM    2  H           1     -27.546  -6.430 -19.116  0.00  0.00     0.163 HD
HETATM    3  N           1     -26.841  -6.331 -18.397  0.00  0.00    -0.344 N 
HETATM    4  C           1     -25.532  -6.623 -18.675  0.00  0.00     0.251 C 
ENDROOT
BRANCH   4   5
HETATM    5  C           1     -25.142  -7.093 -20.055  0.00  0.00     0.297 C 
BRANCH   5   6
HETATM    6  C           1     -26.324  -7.801 -20.705  0.00  0.00     0.206 C 
BRANCH   6   7
HETATM    7  O           1     -25.857  -8.684 -21.687  0.00  0.00    -0.398 OA
HETATM    8  H           1     -25.553  -9.456 -21.240  0.00  0.00     0.209 HD
ENDBRANCH   6   7
ENDBRANCH   5   6
BRANCH   5   9
HETATM    9  N           1     -23.986  -8.043 -19.951  0.00  0.00    -0.064 N 
HETATM   10  H           1     -23.332  -7.887 -20.750  0.00  0.00     0.275 HD
HETATM   11  H           1     -23.481  -7.880 -19.050  0.00  0.00     0.275 HD
HETATM   12  H           1     -24.341  -9.027 -19.979  0.00  0.00     0.275 HD
ENDBRANCH   5   9
ENDBRANCH   4   5
BRANCH   3  13
HETATM   13  C           1     -27.216  -5.880 -17.071  0.00  0.00     0.189 C 
BRANCH  13  14
HETATM   14  C           1     -27.437  -7.075 -16.177  0.00  0.00     0.197 C 
HETATM   15  O           1     -28.519  -7.701 -16.226  0.00  0.00    -0.646 OA
HETATM   16  O           1     -26.540  -7.440 -15.388  0.00  0.00    -0.646 OA
ENDBRANCH  13  14
BRANCH  13  17
HETATM   17  C           1     -28.500  -5.066 -17.157  0.00  0.00     0.010 C 
HETATM   18  C           1     -29.026  -5.100 -18.586  0.00  0.00     0.012 C 
HETATM   19  C           1     -28.215  -3.625 -16.753  0.00  0.00     0.012 C 
ENDBRANCH  13  17
ENDBRANCH   3  13
TORSDOF 7
ENDMDL
MODEL 4
REMARK VINA RESULT:      -4.9      2.545      4.908
REMARK  7 active torsions:
REMARK  status: ('A' for Active; 'I' for Inactive)
REMARK    1  A    between atoms: O_5  and  C_6 
REMARK    2  A    between atoms: C_6  and  C_19 
REMARK    3  A    between atoms: C_7  and  C_8 
REMARK    4  A    between atoms: C_8  and  C_10 
REMARK    5  A    between atoms: C_8  and  N_17 
REMARK    6  A    between atoms: N_11  and  C_19 
REMARK       I    between atoms: N_17  and  C_18 
REMARK    7  A    between atoms: C_18  and  C_19 
ROOT
HETATM    1  O           1     -29.388  -7.399 -17.284  0.00  0.00    -0.271 OA
HETATM    2  H           1     -27.753  -4.761 -17.740  0.00  0.00     0.163 HD
HETATM    3  N           1     -27.917  -5.752 -17.612  0.00  0.00    -0.344 N 
HETATM    4  C           1     -29.192  -6.218 -17.436  0.00  0.00     0.251 C 
ENDROOT
BRANCH   4   5
HETATM    5  C           1     -30.353  -5.254 -17.431  0.00  0.00     0.297 C 
BRANCH   5   6
HETATM    6  C           1     -29.847  -3.846 -17.719  0.00  0.00     0.206 C 
BRANCH   6   7
HETATM    7  O           1     -30.937  -2.994 -17.941  0.00  0.00    -0.398 OA
HETATM    8  H           1     -30.584  -2.158 -18.193  0.00  0.00     0.209 HD
ENDBRANCH   6   7
ENDBRANCH   5   6
BRANCH   5   9
HETATM    9  N           1     -31.018  -5.280 -16.087  0.00  0.00    -0.064 N 
HETATM   10  H           1     -31.279  -4.307 -15.808  0.00  0.00     0.275 HD
HETATM   11  H           1     -31.878  -5.871 -16.135  0.00  0.00     0.275 HD
HETATM   12  H           1     -30.359  -5.679 -15.380  0.00  0.00     0.275 HD
ENDBRANCH   5   9
ENDBRANCH   4   5
BRANCH   3  13
HETATM   13  C           1     -26.801  -6.679 -17.617  0.00  0.00     0.189 C 
BRANCH  13  14
HETATM   14  C           1     -26.056  -6.575 -16.310  0.00  0.00     0.197 C 
HETATM   15  O           1     -26.126  -7.503 -15.474  0.00  0.00    -0.646 OA
HETATM   16  O           1     -25.369  -5.561 -16.060  0.00  0.00    -0.646 OA
ENDBRANCH  13  14
BRANCH  13  17
HETATM   17  C           1     -25.862  -6.335 -18.766  0.00  0.00     0.010 C 
HETATM   18  C           1     -26.566  -6.597 -20.091  0.00  0.00     0.012 C 
HETATM   19  C           1     -24.612  -7.200 -18.674  0.00  0.00     0.012 C 
ENDBRANCH  13  17
ENDBRANCH   3  13
TORSDOF 7
ENDMDL
MODEL 5
REMARK VINA RESULT:      -4.8     10.866     12.466
REMARK  7 active torsions:
REMARK  status: ('A' for Active; 'I' for Inactive)
REMARK    1  A    between atoms: O_5  and  C_6 
REMARK    2  A    between atoms: C_6  and  C_19 
REMARK    3  A    between atoms: C_7  and  C_8 
REMARK    4  A    between atoms: C_8  and  C_10 
REMARK    5  A    between atoms: C_8  and  N_17 
REMARK    6  A    between atoms: N_11  and  C_19 
REMARK       I    between atoms: N_17  and  C_18 
REMARK    7  A    between atoms: C_18  and  C_19 
ROOT
HETATM    1  O           1     -22.935  -2.993  -8.897  0.00  0.00    -0.271 OA
HETATM    2  H           1     -22.324  -6.052  -8.557  0.00  0.00     0.163 HD
HETATM    3  N           1     -22.204  -5.053  -8.439  0.00  0.00    -0.344 N 
HETATM    4  C           1     -23.077  -4.184  -9.037  0.00  0.00     0.251 C 
ENDROOT
BRANCH   4   5
HETATM    5  C           1     -24.217  -4.714  -9.871  0.00  0.00     0.297 C 
BRANCH   5   6
HETATM    6  C           1     -23.763  -4.859 -11.318  0.00  0.00     0.206 C 
BRANCH   6   7
HETATM    7  O           1     -22.484  -4.305 -11.465  0.00  0.00    -0.398 OA
HETATM    8  H           1     -22.490  -3.811 -12.267  0.00  0.00     0.209 HD
ENDBRANCH   6   7
ENDBRANCH   5   6
BRANCH   5   9
HETATM    9  N           1     -25.372  -3.760  -9.803  0.00  0.00    -0.064 N 
HETATM   10  H           1     -25.459  -3.386  -8.832  0.00  0.00     0.275 HD
HETATM   11  H           1     -25.210  -2.969 -10.467  0.00  0.00     0.275 HD
HETATM   12  H           1     -26.253  -4.260 -10.064  0.00  0.00     0.275 HD
ENDBRANCH   5   9
ENDBRANCH   4   5
BRANCH   3  13
HETATM   13  C           1     -21.109  -4.544  -7.637  0.00  0.00     0.189 C 
BRANCH  13  14
HETATM   14  C           1     -19.856  -4.487  -8.476  0.00  0.00     0.197 C 
HETATM   15  O           1     -19.895  -4.817  -9.681  0.00  0.00    -0.646 OA
HETATM   16  O           1     -18.779  -4.111  -7.966  0.00  0.00    -0.646 OA
ENDBRANCH  13  14
BRANCH  13  17
HETATM   17  C           1     -20.882  -5.464  -6.446  0.00  0.00     0.010 C 
HETATM   18  C           1     -22.225  -5.961  -5.926  0.00  0.00     0.012 C 
HETATM   19  C           1     -20.161  -4.699  -5.344  0.00  0.00     0.012 C 
ENDBRANCH  13  17
ENDBRANCH   3  13
TORSDOF 7
ENDMDL
MODEL 6
REMARK VINA RESULT:      -4.8     18.546     20.031
REMARK  7 active torsions:
REMARK  status: ('A' for Active; 'I' for Inactive)
REMARK    1  A    between atoms: O_5  and  C_6 
REMARK    2  A    between atoms: C_6  and  C_19 
REMARK    3  A    between atoms: C_7  and  C_8 
REMARK    4  A    between atoms: C_8  and  C_10 
REMARK    5  A    between atoms: C_8  and  N_17 
REMARK    6  A    between atoms: N_11  and  C_19 
REMARK       I    between atoms: N_17  and  C_18 
REMARK    7  A    between atoms: C_18  and  C_19 
ROOT
HETATM    1  O           1     -11.654   7.276 -21.685  0.00  0.00    -0.271 OA
HETATM    2  H           1     -11.974   5.629 -19.034  0.00  0.00     0.163 HD
HETATM    3  N           1     -12.093   5.864 -20.012  0.00  0.00    -0.344 N 
HETATM    4  C           1     -11.513   6.995 -20.519  0.00  0.00     0.251 C 
ENDROOT
BRANCH   4   5
HETATM    5  C           1     -10.697   7.892 -19.621  0.00  0.00     0.297 C 
BRANCH   5   6
HETATM    6  C           1     -11.557   9.059 -19.151  0.00  0.00     0.206 C 
BRANCH   6   7
HETATM    7  O           1     -12.905   8.674 -19.145  0.00  0.00    -0.398 OA
HETATM    8  H           1     -13.067   8.233 -19.962  0.00  0.00     0.209 HD
ENDBRANCH   6   7
ENDBRANCH   5   6
BRANCH   5   9
HETATM    9  N           1      -9.515   8.417 -20.379  0.00  0.00    -0.064 N 
HETATM   10  H           1      -9.444   7.927 -21.299  0.00  0.00     0.275 HD
HETATM   11  H           1      -9.631   9.443 -20.540  0.00  0.00     0.275 HD
HETATM   12  H           1      -8.643   8.247 -19.826  0.00  0.00     0.275 HD
ENDBRANCH   5   9
ENDBRANCH   4   5
BRANCH   3  13
HETATM   13  C           1     -12.876   5.001 -20.875  0.00  0.00     0.189 C 
BRANCH  13  14
HETATM   14  C           1     -14.341   5.323 -20.711  0.00  0.00     0.197 C 
HETATM   15  O           1     -14.864   5.295 -19.575  0.00  0.00    -0.646 OA
HETATM   16  O           1     -15.033   5.617 -21.709  0.00  0.00    -0.646 OA
ENDBRANCH  13  14
BRANCH  13  17
HETATM   17  C           1     -12.630   3.547 -20.498  0.00  0.00     0.010 C 
HETATM   18  C           1     -11.134   3.260 -20.537  0.00  0.00     0.012 C 
HETATM   19  C           1     -13.349   2.638 -21.486  0.00  0.00     0.012 C 
ENDBRANCH  13  17
ENDBRANCH   3  13
TORSDOF 7
ENDMDL
MODEL 7
REMARK VINA RESULT:      -4.7     19.154     20.559
REMARK  7 active torsions:
REMARK  status: ('A' for Active; 'I' for Inactive)
REMARK    1  A    between atoms: O_5  and  C_6 
REMARK    2  A    between atoms: C_6  and  C_19 
REMARK    3  A    between atoms: C_7  and  C_8 
REMARK    4  A    between atoms: C_8  and  C_10 
REMARK    5  A    between atoms: C_8  and  N_17 
REMARK    6  A    between atoms: N_11  and  C_19 
REMARK       I    between atoms: N_17  and  C_18 
REMARK    7  A    between atoms: C_18  and  C_19 
ROOT
HETATM    1  O           1     -13.132   7.876 -19.174  0.00  0.00    -0.271 OA
HETATM    2  H           1     -11.419   6.607 -21.475  0.00  0.00     0.163 HD
HETATM    3  N           1     -12.114   6.653 -20.741  0.00  0.00    -0.344 N 
HETATM    4  C           1     -12.304   7.821 -20.051  0.00  0.00     0.251 C 
ENDROOT
BRANCH   4   5
HETATM    5  C           1     -11.477   9.038 -20.385  0.00  0.00     0.297 C 
BRANCH   5   6
HETATM    6  C           1     -10.380   9.209 -19.342  0.00  0.00     0.206 C 
BRANCH   6   7
HETATM    7  O           1     -10.299   8.053 -18.554  0.00  0.00    -0.398 OA
HETATM    8  H           1      -9.533   7.583 -18.835  0.00  0.00     0.209 HD
ENDBRANCH   6   7
ENDBRANCH   5   6
BRANCH   5   9
HETATM    9  N           1     -12.356  10.253 -20.390  0.00  0.00    -0.064 N 
HETATM   10  H           1     -11.762  11.113 -20.399  0.00  0.00     0.275 HD
HETATM   11  H           1     -12.962  10.241 -21.241  0.00  0.00     0.275 HD
HETATM   12  H           1     -12.955  10.253 -19.534  0.00  0.00     0.275 HD
ENDBRANCH   5   9
ENDBRANCH   4   5
BRANCH   3  13
HETATM   13  C           1     -12.908   5.484 -20.419  0.00  0.00     0.189 C 
BRANCH  13  14
HETATM   14  C           1     -12.058   4.489 -19.669  0.00  0.00     0.197 C 
HETATM   15  O           1     -11.524   4.815 -18.586  0.00  0.00    -0.646 OA
HETATM   16  O           1     -11.886   3.340 -20.129  0.00  0.00    -0.646 OA
ENDBRANCH  13  14
BRANCH  13  17
HETATM   17  C           1     -13.418   4.848 -21.705  0.00  0.00     0.010 C 
HETATM   18  C           1     -12.697   5.467 -22.897  0.00  0.00     0.012 C 
HETATM   19  C           1     -14.916   5.093 -21.833  0.00  0.00     0.012 C 
ENDBRANCH  13  17
ENDBRANCH   3  13
TORSDOF 7
ENDMDL
MODEL 8
REMARK VINA RESULT:      -4.5     14.192     15.618
REMARK  7 active torsions:
REMARK  status: ('A' for Active; 'I' for Inactive)
REMARK    1  A    between atoms: O_5  and  C_6 
REMARK    2  A    between atoms: C_6  and  C_19 
REMARK    3  A    between atoms: C_7  and  C_8 
REMARK    4  A    between atoms: C_8  and  C_10 
REMARK    5  A    between atoms: C_8  and  N_17 
REMARK    6  A    between atoms: N_11  and  C_19 
REMARK       I    between atoms: N_17  and  C_18 
REMARK    7  A    between atoms: C_18  and  C_19 
ROOT
HETATM    1  O           1     -22.819  -5.747  -5.667  0.00  0.00    -0.271 OA
HETATM    2  H           1     -19.856  -6.286  -4.789  0.00  0.00     0.163 HD
HETATM    3  N           1     -20.862  -6.397  -4.811  0.00  0.00    -0.344 N 
HETATM    4  C           1     -21.619  -5.615  -5.641  0.00  0.00     0.251 C 
ENDROOT
BRANCH   4   5
HETATM    5  C           1     -20.954  -4.587  -6.523  0.00  0.00     0.297 C 
BRANCH   5   6
HETATM    6  C           1     -21.664  -4.536  -7.869  0.00  0.00     0.206 C 
BRANCH   6   7
HETATM    7  O           1     -22.759  -3.664  -7.788  0.00  0.00    -0.398 OA
HETATM    8  H           1     -23.059  -3.519  -8.669  0.00  0.00     0.209 HD
ENDBRANCH   6   7
ENDBRANCH   5   6
BRANCH   5   9
HETATM    9  N           1     -19.517  -4.961  -6.730  0.00  0.00    -0.064 N 
HETATM   10  H           1     -18.982  -4.125  -7.058  0.00  0.00     0.275 HD
HETATM   11  H           1     -19.112  -5.301  -5.828  0.00  0.00     0.275 HD
HETATM   12  H           1     -19.454  -5.718  -7.448  0.00  0.00     0.275 HD
ENDBRANCH   5   9
ENDBRANCH   4   5
BRANCH   3  13
HETATM   13  C           1     -21.501  -7.385  -3.964  0.00  0.00     0.189 C 
BRANCH  13  14
HETATM   14  C           1     -21.599  -6.852  -2.556  0.00  0.00     0.197 C 
HETATM   15  O           1     -22.376  -5.907  -2.298  0.00  0.00    -0.646 OA
HETATM   16  O           1     -20.903  -7.353  -1.647  0.00  0.00    -0.646 OA
ENDBRANCH  13  14
BRANCH  13  17
HETATM   17  C           1     -20.675  -8.665  -3.966  0.00  0.00     0.010 C 
HETATM   18  C           1     -19.564  -8.549  -5.002  0.00  0.00     0.012 C 
HETATM   19  C           1     -21.572  -9.846  -4.311  0.00  0.00     0.012 C 
ENDBRANCH  13  17
ENDBRANCH   3  13
TORSDOF 7
ENDMDL
MODEL 9
REMARK VINA RESULT:      -4.5      3.478      5.685
REMARK  7 active torsions:
REMARK  status: ('A' for Active; 'I' for Inactive)
REMARK    1  A    between atoms: O_5  and  C_6 
REMARK    2  A    between atoms: C_6  and  C_19 
REMARK    3  A    between atoms: C_7  and  C_8 
REMARK    4  A    between atoms: C_8  and  C_10 
REMARK    5  A    between atoms: C_8  and  N_17 
REMARK    6  A    between atoms: N_11  and  C_19 
REMARK       I    between atoms: N_17  and  C_18 
REMARK    7  A    between atoms: C_18  and  C_19 
ROOT
HETATM    1  O           1     -31.068  -7.508 -17.892  0.00  0.00    -0.271 OA
HETATM    2  H           1     -30.269  -4.875 -16.385  0.00  0.00     0.163 HD
HETATM    3  N           1     -30.151  -5.794 -16.793  0.00  0.00    -0.344 N 
HETATM    4  C           1     -31.208  -6.412 -17.406  0.00  0.00     0.251 C 
ENDROOT
BRANCH   4   5
HETATM    5  C           1     -32.549  -5.724 -17.471  0.00  0.00     0.297 C 
BRANCH   5   6
HETATM    6  C           1     -32.517  -4.464 -16.615  0.00  0.00     0.206 C 
BRANCH   6   7
HETATM    7  O           1     -33.193  -3.431 -17.279  0.00  0.00    -0.398 OA
HETATM    8  H           1     -33.649  -3.824 -18.003  0.00  0.00     0.209 HD
ENDBRANCH   6   7
ENDBRANCH   5   6
BRANCH   5   9
HETATM    9  N           1     -33.611  -6.649 -16.956  0.00  0.00    -0.064 N 
HETATM   10  H           1     -33.216  -7.611 -16.851  0.00  0.00     0.275 HD
HETATM   11  H           1     -33.950  -6.309 -16.028  0.00  0.00     0.275 HD
HETATM   12  H           1     -34.409  -6.674 -17.632  0.00  0.00     0.275 HD
ENDBRANCH   5   9
ENDBRANCH   4   5
BRANCH   3  13
HETATM   13  C           1     -28.862  -6.456 -16.730  0.00  0.00     0.189 C 
BRANCH  13  14
HETATM   14  C           1     -28.490  -6.696 -15.288  0.00  0.00     0.197 C 
HETATM   15  O           1     -27.603  -7.529 -15.001  0.00  0.00    -0.646 OA
HETATM   16  O           1     -29.069  -6.062 -14.380  0.00  0.00    -0.646 OA
ENDBRANCH  13  14
BRANCH  13  17
HETATM   17  C           1     -27.808  -5.575 -17.387  0.00  0.00     0.010 C 
HETATM   18  C           1     -28.140  -4.111 -17.131  0.00  0.00     0.012 C 
HETATM   19  C           1     -27.790  -5.838 -18.887  0.00  0.00     0.012 C 
ENDBRANCH  13  17
ENDBRANCH   3  13
TORSDOF 7
ENDMDL
