MODEL 1
REMARK VINA RESULT:      -8.6      0.000      0.000
REMARK  14 active torsions:
REMARK  status: ('A' for Active; 'I' for Inactive)
REMARK    1  A    between atoms: C_2  and  C_4 
REMARK    2  A    between atoms: C_4  and  C_5 
REMARK    3  A    between atoms: C_4  and  N_17 
REMARK    4  A    between atoms: C_5  and  C_6 
REMARK    5  A    between atoms: C_9  and  O_10 
REMARK    6  A    between atoms: O_10  and  P_11 
REMARK    7  A    between atoms: P_11  and  O_13 
REMARK       I    between atoms: N_17  and  C_18 
REMARK    8  A    between atoms: C_18  and  C_19 
REMARK    9  A    between atoms: C_19  and  C_20 
REMARK   10  A    between atoms: C_19  and  N_32 
REMARK   11  A    between atoms: C_20  and  C_21 
REMARK   12  A    between atoms: C_24  and  O_25 
REMARK   13  A    between atoms: O_25  and  P_26 
REMARK   14  A    between atoms: P_26  and  O_27 
ROOT
HETATM    1  N           1     -21.329  -6.493  -3.044  0.00  0.00    -0.344 N 
HETATM    2  C           1     -21.583  -6.274  -4.371  0.00  0.00     0.249 C 
HETATM    3  O           1     -22.709  -6.034  -4.739  0.00  0.00    -0.271 OA
HETATM    4  H           1     -21.090  -5.718  -2.439  0.00  0.00     0.163 HD
ENDROOT
BRANCH   2   5
HETATM    5  C           1     -20.457  -6.331  -5.375  0.00  0.00     0.278 C 
BRANCH   5   6
HETATM    6  C           1     -20.057  -4.915  -5.769  0.00  0.00     0.081 C 
BRANCH   6   7
HETATM    7  C           1     -20.650  -4.583  -7.104  0.00  0.00    -0.056 A 
HETATM    8  C           1     -21.909  -3.986  -7.179  0.00  0.00     0.010 A 
HETATM    9  C           1     -22.461  -3.676  -8.421  0.00  0.00     0.038 A 
HETATM   10  C           1     -21.755  -3.964  -9.589  0.00  0.00     0.081 A 
HETATM   11  C           1     -20.496  -4.561  -9.514  0.00  0.00     0.038 A 
HETATM   12  C           1     -19.944  -4.870  -8.271  0.00  0.00     0.010 A 
BRANCH  10  13
HETATM   13  O           1     -22.291  -3.664 -10.796  0.00  0.00    -0.247 OA
BRANCH  13  14
HETATM   14  P           1     -23.707  -4.335 -11.186  0.00  0.00     0.411 P 
HETATM   15  O           1     -23.961  -5.497 -10.306  0.00  0.00    -0.624 OA
HETATM   16  O           1     -24.789  -3.340 -11.015  0.00  0.00    -0.624 OA
BRANCH  14  17
HETATM   17  O           1     -23.666  -4.825 -12.725  0.00  0.00    -0.300 OA
HETATM   18  H           1     -23.557  -4.038 -13.229  0.00  0.00     0.223 HD
ENDBRANCH  14  17
ENDBRANCH  13  14
ENDBRANCH  10  13
ENDBRANCH   6   7
ENDBRANCH   5   6
BRANCH   5  19
HETATM   19  N           1     -20.912  -7.079  -6.592  0.00  0.00    -0.066 N 
HETATM   20  H           1     -20.229  -7.840  -6.809  0.00  0.00     0.275 HD
HETATM   21  H           1     -21.853  -7.496  -6.413  0.00  0.00     0.275 HD
HETATM   22  H           1     -20.969  -6.422  -7.404  0.00  0.00     0.275 HD
ENDBRANCH   5  19
ENDBRANCH   2   5
BRANCH   1  23
HETATM   23  C           1     -21.401  -7.838  -2.504  0.00  0.00     0.189 C 
BRANCH  23  24
HETATM   24  C           1     -22.058  -7.800  -1.147  0.00  0.00     0.197 C 
HETATM   25  O           1     -21.987  -8.792  -0.390  0.00  0.00    -0.646 OA
HETATM   26  O           1     -22.674  -6.776  -0.779  0.00  0.00    -0.646 OA
ENDBRANCH  23  24
BRANCH  23  27
HETATM   27  C           1     -19.995  -8.409  -2.373  0.00  0.00     0.074 C 
BRANCH  27  28
HETATM   28  C           1     -19.664  -9.205  -3.597  0.00  0.00    -0.056 A 
HETATM   29  C           1     -18.353  -9.244  -4.069  0.00  0.00     0.010 A 
HETATM   30  C           1     -18.044  -9.987  -5.210  0.00  0.00     0.038 A 
HETATM   31  C           1     -19.048 -10.689  -5.877  0.00  0.00     0.081 A 
HETATM   32  C           1     -20.359 -10.649  -5.404  0.00  0.00     0.038 A 
HETATM   33  C           1     -20.668  -9.907  -4.264  0.00  0.00     0.010 A 
BRANCH  31  34
HETATM   34  O           1     -18.748 -11.409  -6.985  0.00  0.00    -0.247 OA
BRANCH  34  35
HETATM   35  P           1     -17.930 -12.789  -6.795  0.00  0.00     0.411 P 
HETATM   36  O           1     -18.168 -13.320  -5.434  0.00  0.00    -0.624 OA
HETATM   37  O           1     -16.484 -12.534  -6.980  0.00  0.00    -0.624 OA
BRANCH  35  38
HETATM   38  O           1     -18.433 -13.867  -7.888  0.00  0.00    -0.300 OA
HETATM   39  H           1     -17.647 -14.177  -8.304  0.00  0.00     0.223 HD
ENDBRANCH  35  38
ENDBRANCH  34  35
ENDBRANCH  31  34
ENDBRANCH  27  28
ENDBRANCH  23  27
ENDBRANCH   1  23
TORSDOF 14
ENDMDL
MODEL 2
REMARK VINA RESULT:      -8.5      0.658      1.612
REMARK  14 active torsions:
REMARK  status: ('A' for Active; 'I' for Inactive)
REMARK    1  A    between atoms: C_2  and  C_4 
REMARK    2  A    between atoms: C_4  and  C_5 
REMARK    3  A    between atoms: C_4  and  N_17 
REMARK    4  A    between atoms: C_5  and  C_6 
REMARK    5  A    between atoms: C_9  and  O_10 
REMARK    6  A    between atoms: O_10  and  P_11 
REMARK    7  A    between atoms: P_11  and  O_13 
REMARK       I    between atoms: N_17  and  C_18 
REMARK    8  A    between atoms: C_18  and  C_19 
REMARK    9  A    between atoms: C_19  and  C_20 
REMARK   10  A    between atoms: C_19  and  N_32 
REMARK   11  A    between atoms: C_20  and  C_21 
REMARK   12  A    between atoms: C_24  and  O_25 
REMARK   13  A    between atoms: O_25  and  P_26 
REMARK   14  A    between atoms: P_26  and  O_27 
ROOT
HETATM    1  N           1     -21.359  -6.423  -2.985  0.00  0.00    -0.344 N 
HETATM    2  C           1     -21.601  -6.321  -4.328  0.00  0.00     0.249 C 
HETATM    3  O           1     -22.737  -6.239  -4.733  0.00  0.00    -0.271 OA
HETATM    4  H           1     -21.228  -5.587  -2.429  0.00  0.00     0.163 HD
ENDROOT
BRANCH   2   5
HETATM    5  C           1     -20.450  -6.310  -5.304  0.00  0.00     0.278 C 
BRANCH   5   6
HETATM    6  C           1     -20.104  -4.871  -5.665  0.00  0.00     0.081 C 
BRANCH   6   7
HETATM    7  C           1     -20.673  -4.544  -7.011  0.00  0.00    -0.056 A 
HETATM    8  C           1     -19.921  -4.782  -8.162  0.00  0.00     0.010 A 
HETATM    9  C           1     -20.451  -4.478  -9.416  0.00  0.00     0.038 A 
HETATM   10  C           1     -21.732  -3.936  -9.519  0.00  0.00     0.081 A 
HETATM   11  C           1     -22.484  -3.699  -8.368  0.00  0.00     0.038 A 
HETATM   12  C           1     -21.954  -4.003  -7.114  0.00  0.00     0.010 A 
BRANCH  10  13
HETATM   13  O           1     -22.246  -3.641 -10.737  0.00  0.00    -0.247 OA
BRANCH  13  14
HETATM   14  P           1     -23.617  -4.372 -11.180  0.00  0.00     0.411 P 
HETATM   15  O           1     -23.826  -5.574 -10.343  0.00  0.00    -0.624 OA
HETATM   16  O           1     -24.753  -3.440 -11.001  0.00  0.00    -0.624 OA
BRANCH  14  17
HETATM   17  O           1     -23.519  -4.808 -12.732  0.00  0.00    -0.300 OA
HETATM   18  H           1     -22.638  -4.599 -12.989  0.00  0.00     0.223 HD
ENDBRANCH  14  17
ENDBRANCH  13  14
ENDBRANCH  10  13
ENDBRANCH   6   7
ENDBRANCH   5   6
BRANCH   5  19
HETATM   19  N           1     -20.841  -7.056  -6.545  0.00  0.00    -0.066 N 
HETATM   20  H           1     -20.916  -8.075  -6.330  0.00  0.00     0.275 HD
HETATM   21  H           1     -21.763  -6.704  -6.887  0.00  0.00     0.275 HD
HETATM   22  H           1     -20.115  -6.909  -7.284  0.00  0.00     0.275 HD
ENDBRANCH   5  19
ENDBRANCH   2   5
BRANCH   1  23
HETATM   23  C           1     -21.290  -7.729  -2.358  0.00  0.00     0.189 C 
BRANCH  23  24
HETATM   24  C           1     -22.138  -7.732  -1.110  0.00  0.00     0.197 C 
HETATM   25  O           1     -22.279  -8.786  -0.453  0.00  0.00    -0.646 OA
HETATM   26  O           1     -22.700  -6.682  -0.733  0.00  0.00    -0.646 OA
ENDBRANCH  23  24
BRANCH  23  27
HETATM   27  C           1     -19.845  -8.041  -1.992  0.00  0.00     0.074 C 
BRANCH  27  28
HETATM   28  C           1     -19.367  -9.210  -2.796  0.00  0.00    -0.056 A 
HETATM   29  C           1     -20.283 -10.139  -3.288  0.00  0.00     0.010 A 
HETATM   30  C           1     -19.837 -11.229  -4.037  0.00  0.00     0.038 A 
HETATM   31  C           1     -18.476 -11.387  -4.295  0.00  0.00     0.081 A 
HETATM   32  C           1     -17.560 -10.457  -3.803  0.00  0.00     0.038 A 
HETATM   33  C           1     -18.005  -9.368  -3.053  0.00  0.00     0.010 A 
BRANCH  31  34
HETATM   34  O           1     -18.043 -12.445  -5.022  0.00  0.00    -0.247 OA
BRANCH  34  35
HETATM   35  P           1     -17.819 -12.235  -6.608  0.00  0.00     0.411 P 
HETATM   36  O           1     -18.550 -11.028  -7.054  0.00  0.00    -0.624 OA
HETATM   37  O           1     -18.327 -13.417  -7.339  0.00  0.00    -0.624 OA
BRANCH  35  38
HETATM   38  O           1     -16.243 -12.051  -6.909  0.00  0.00    -0.300 OA
HETATM   39  H           1     -16.021 -12.758  -7.489  0.00  0.00     0.223 HD
ENDBRANCH  35  38
ENDBRANCH  34  35
ENDBRANCH  31  34
ENDBRANCH  27  28
ENDBRANCH  23  27
ENDBRANCH   1  23
TORSDOF 14
ENDMDL
MODEL 3
REMARK VINA RESULT:      -8.0     13.552     15.976
REMARK  14 active torsions:
REMARK  status: ('A' for Active; 'I' for Inactive)
REMARK    1  A    between atoms: C_2  and  C_4 
REMARK    2  A    between atoms: C_4  and  C_5 
REMARK    3  A    between atoms: C_4  and  N_17 
REMARK    4  A    between atoms: C_5  and  C_6 
REMARK    5  A    between atoms: C_9  and  O_10 
REMARK    6  A    between atoms: O_10  and  P_11 
REMARK    7  A    between atoms: P_11  and  O_13 
REMARK       I    between atoms: N_17  and  C_18 
REMARK    8  A    between atoms: C_18  and  C_19 
REMARK    9  A    between atoms: C_19  and  C_20 
REMARK   10  A    between atoms: C_19  and  N_32 
REMARK   11  A    between atoms: C_20  and  C_21 
REMARK   12  A    between atoms: C_24  and  O_25 
REMARK   13  A    between atoms: O_25  and  P_26 
REMARK   14  A    between atoms: P_26  and  O_27 
ROOT
HETATM    1  N           1     -34.769  -1.350 -14.538  0.00  0.00    -0.344 N 
HETATM    2  C           1     -34.914  -2.175 -15.621  0.00  0.00     0.249 C 
HETATM    3  O           1     -35.795  -1.971 -16.423  0.00  0.00    -0.271 OA
HETATM    4  H           1     -34.176  -0.532 -14.601  0.00  0.00     0.163 HD
ENDROOT
BRANCH   2   5
HETATM    5  C           1     -33.973  -3.339 -15.815  0.00  0.00     0.278 C 
BRANCH   5   6
HETATM    6  C           1     -33.521  -3.391 -17.268  0.00  0.00     0.081 C 
BRANCH   6   7
HETATM    7  C           1     -32.185  -4.062 -17.352  0.00  0.00    -0.056 A 
HETATM    8  C           1     -31.052  -3.321 -17.688  0.00  0.00     0.010 A 
HETATM    9  C           1     -29.808  -3.946 -17.765  0.00  0.00     0.038 A 
HETATM   10  C           1     -29.697  -5.312 -17.507  0.00  0.00     0.081 A 
HETATM   11  C           1     -30.830  -6.053 -17.170  0.00  0.00     0.038 A 
HETATM   12  C           1     -32.074  -5.428 -17.092  0.00  0.00     0.010 A 
BRANCH  10  13
HETATM   13  O           1     -28.488  -5.919 -17.582  0.00  0.00    -0.247 OA
BRANCH  13  14
HETATM   14  P           1     -27.579  -5.969 -16.248  0.00  0.00     0.411 P 
HETATM   15  O           1     -26.195  -5.566 -16.580  0.00  0.00    -0.624 OA
HETATM   16  O           1     -28.135  -5.042 -15.237  0.00  0.00    -0.624 OA
BRANCH  14  17
HETATM   17  O           1     -27.573  -7.471 -15.654  0.00  0.00    -0.300 OA
HETATM   18  H           1     -28.482  -7.703 -15.570  0.00  0.00     0.223 HD
ENDBRANCH  14  17
ENDBRANCH  13  14
ENDBRANCH  10  13
ENDBRANCH   6   7
ENDBRANCH   5   6
BRANCH   5  19
HETATM   19  N           1     -34.680  -4.615 -15.465  0.00  0.00    -0.066 N 
HETATM   20  H           1     -35.454  -4.412 -14.793  0.00  0.00     0.275 HD
HETATM   21  H           1     -35.076  -5.042 -16.332  0.00  0.00     0.275 HD
HETATM   22  H           1     -34.003  -5.280 -15.025  0.00  0.00     0.275 HD
ENDBRANCH   5  19
ENDBRANCH   2   5
BRANCH   1  23
HETATM   23  C           1     -35.465  -1.648 -13.302  0.00  0.00     0.189 C 
BRANCH  23  24
HETATM   24  C           1     -36.544  -0.619 -13.072  0.00  0.00     0.197 C 
HETATM   25  O           1     -37.635  -0.712 -13.675  0.00  0.00    -0.646 OA
HETATM   26  O           1     -36.348   0.327 -12.279  0.00  0.00    -0.646 OA
ENDBRANCH  23  24
BRANCH  23  27
HETATM   27  C           1     -34.477  -1.617 -12.143  0.00  0.00     0.074 C 
BRANCH  27  28
HETATM   28  C           1     -34.125  -3.018 -11.749  0.00  0.00    -0.056 A 
HETATM   29  C           1     -32.927  -3.583 -12.183  0.00  0.00     0.010 A 
HETATM   30  C           1     -32.599  -4.890 -11.816  0.00  0.00     0.038 A 
HETATM   31  C           1     -33.470  -5.628 -11.015  0.00  0.00     0.081 A 
HETATM   32  C           1     -34.669  -5.062 -10.583  0.00  0.00     0.038 A 
HETATM   33  C           1     -34.997  -3.757 -10.950  0.00  0.00     0.010 A 
BRANCH  31  34
HETATM   34  O           1     -33.152  -6.897 -10.660  0.00  0.00    -0.247 OA
BRANCH  34  35
HETATM   35  P           1     -34.349  -7.875 -10.191  0.00  0.00     0.411 P 
HETATM   36  O           1     -35.241  -7.153  -9.258  0.00  0.00    -0.624 OA
HETATM   37  O           1     -33.780  -9.060  -9.512  0.00  0.00    -0.624 OA
BRANCH  35  38
HETATM   38  O           1     -35.193  -8.348 -11.484  0.00  0.00    -0.300 OA
HETATM   39  H           1     -34.931  -9.240 -11.634  0.00  0.00     0.223 HD
ENDBRANCH  35  38
ENDBRANCH  34  35
ENDBRANCH  31  34
ENDBRANCH  27  28
ENDBRANCH  23  27
ENDBRANCH   1  23
TORSDOF 14
ENDMDL
MODEL 4
REMARK VINA RESULT:      -8.0      3.340      9.494
REMARK  14 active torsions:
REMARK  status: ('A' for Active; 'I' for Inactive)
REMARK    1  A    between atoms: C_2  and  C_4 
REMARK    2  A    between atoms: C_4  and  C_5 
REMARK    3  A    between atoms: C_4  and  N_17 
REMARK    4  A    between atoms: C_5  and  C_6 
REMARK    5  A    between atoms: C_9  and  O_10 
REMARK    6  A    between atoms: O_10  and  P_11 
REMARK    7  A    between atoms: P_11  and  O_13 
REMARK       I    between atoms: N_17  and  C_18 
REMARK    8  A    between atoms: C_18  and  C_19 
REMARK    9  A    between atoms: C_19  and  C_20 
REMARK   10  A    between atoms: C_19  and  N_32 
REMARK   11  A    between atoms: C_20  and  C_21 
REMARK   12  A    between atoms: C_24  and  O_25 
REMARK   13  A    between atoms: O_25  and  P_26 
REMARK   14  A    between atoms: P_26  and  O_27 
ROOT
HETATM    1  N           1     -22.051  -8.017  -4.280  0.00  0.00    -0.344 N 
HETATM    2  C           1     -21.628  -7.538  -3.069  0.00  0.00     0.249 C 
HETATM    3  O           1     -21.787  -6.373  -2.791  0.00  0.00    -0.271 OA
HETATM    4  H           1     -22.989  -8.383  -4.380  0.00  0.00     0.163 HD
ENDROOT
BRANCH   2   5
HETATM    5  C           1     -20.964  -8.466  -2.081  0.00  0.00     0.278 C 
BRANCH   5   6
HETATM    6  C           1     -21.682  -8.379  -0.741  0.00  0.00     0.081 C 
BRANCH   6   7
HETATM    7  C           1     -22.120  -9.748  -0.320  0.00  0.00    -0.056 A 
HETATM    8  C           1     -21.202 -10.629   0.249  0.00  0.00     0.010 A 
HETATM    9  C           1     -21.609 -11.904   0.642  0.00  0.00     0.038 A 
HETATM   10  C           1     -22.936 -12.297   0.464  0.00  0.00     0.081 A 
HETATM   11  C           1     -23.855 -11.415  -0.104  0.00  0.00     0.038 A 
HETATM   12  C           1     -23.447 -10.140  -0.496  0.00  0.00     0.010 A 
BRANCH  10  13
HETATM   13  O           1     -23.332 -13.535   0.845  0.00  0.00    -0.247 OA
BRANCH  13  14
HETATM   14  P           1     -23.421 -14.685  -0.285  0.00  0.00     0.411 P 
HETATM   15  O           1     -22.373 -14.456  -1.304  0.00  0.00    -0.624 OA
HETATM   16  O           1     -23.221 -16.010   0.343  0.00  0.00    -0.624 OA
BRANCH  14  17
HETATM   17  O           1     -24.874 -14.638  -0.989  0.00  0.00    -0.300 OA
HETATM   18  H           1     -24.853 -13.877  -1.542  0.00  0.00     0.223 HD
ENDBRANCH  14  17
ENDBRANCH  13  14
ENDBRANCH  10  13
ENDBRANCH   6   7
ENDBRANCH   5   6
BRANCH   5  19
HETATM   19  N           1     -19.529  -8.064  -1.906  0.00  0.00    -0.066 N 
HETATM   20  H           1     -19.143  -7.742  -2.822  0.00  0.00     0.275 HD
HETATM   21  H           1     -19.468  -7.287  -1.210  0.00  0.00     0.275 HD
HETATM   22  H           1     -18.976  -8.883  -1.565  0.00  0.00     0.275 HD
ENDBRANCH   5  19
ENDBRANCH   2   5
BRANCH   1  23
HETATM   23  C           1     -21.154  -7.999  -5.420  0.00  0.00     0.189 C 
BRANCH  23  24
HETATM   24  C           1     -20.162  -9.129  -5.295  0.00  0.00     0.197 C 
HETATM   25  O           1     -19.014  -8.906  -4.852  0.00  0.00    -0.646 OA
HETATM   26  O           1     -20.486 -10.287  -5.635  0.00  0.00    -0.646 OA
ENDBRANCH  23  24
BRANCH  23  27
HETATM   27  C           1     -20.411  -6.671  -5.460  0.00  0.00     0.074 C 
BRANCH  27  28
HETATM   28  C           1     -20.994  -5.804  -6.533  0.00  0.00    -0.056 A 
HETATM   29  C           1     -22.252  -5.228  -6.357  0.00  0.00     0.010 A 
HETATM   30  C           1     -22.795  -4.421  -7.357  0.00  0.00     0.038 A 
HETATM   31  C           1     -22.080  -4.190  -8.532  0.00  0.00     0.081 A 
HETATM   32  C           1     -20.822  -4.767  -8.707  0.00  0.00     0.038 A 
HETATM   33  C           1     -20.279  -5.574  -7.708  0.00  0.00     0.010 A 
BRANCH  31  34
HETATM   34  O           1     -22.608  -3.407  -9.504  0.00  0.00    -0.247 OA
BRANCH  34  35
HETATM   35  P           1     -23.543  -4.108 -10.618  0.00  0.00     0.411 P 
HETATM   36  O           1     -23.930  -5.461 -10.159  0.00  0.00    -0.624 OA
HETATM   37  O           1     -22.796  -4.215 -11.892  0.00  0.00    -0.624 OA
BRANCH  35  38
HETATM   38  O           1     -24.871  -3.217 -10.844  0.00  0.00    -0.300 OA
HETATM   39  H           1     -25.392  -3.707 -11.456  0.00  0.00     0.223 HD
ENDBRANCH  35  38
ENDBRANCH  34  35
ENDBRANCH  31  34
ENDBRANCH  27  28
ENDBRANCH  23  27
ENDBRANCH   1  23
TORSDOF 14
ENDMDL
MODEL 5
REMARK VINA RESULT:      -7.9      3.194      4.700
REMARK  14 active torsions:
REMARK  status: ('A' for Active; 'I' for Inactive)
REMARK    1  A    between atoms: C_2  and  C_4 
REMARK    2  A    between atoms: C_4  and  C_5 
REMARK    3  A    between atoms: C_4  and  N_17 
REMARK    4  A    between atoms: C_5  and  C_6 
REMARK    5  A    between atoms: C_9  and  O_10 
REMARK    6  A    between atoms: O_10  and  P_11 
REMARK    7  A    between atoms: P_11  and  O_13 
REMARK       I    between atoms: N_17  and  C_18 
REMARK    8  A    between atoms: C_18  and  C_19 
REMARK    9  A    between atoms: C_19  and  C_20 
REMARK   10  A    between atoms: C_19  and  N_32 
REMARK   11  A    between atoms: C_20  and  C_21 
REMARK   12  A    between atoms: C_24  and  O_25 
REMARK   13  A    between atoms: O_25  and  P_26 
REMARK   14  A    between atoms: P_26  and  O_27 
ROOT
HETATM    1  N           1     -21.426  -8.624  -3.386  0.00  0.00    -0.344 N 
HETATM    2  C           1     -21.448  -8.040  -4.623  0.00  0.00     0.249 C 
HETATM    3  O           1     -21.159  -8.686  -5.603  0.00  0.00    -0.271 OA
HETATM    4  H           1     -22.256  -9.074  -3.023  0.00  0.00     0.163 HD
ENDROOT
BRANCH   2   5
HETATM    5  C           1     -21.837  -6.588  -4.765  0.00  0.00     0.278 C 
BRANCH   5   6
HETATM    6  C           1     -20.689  -5.815  -5.400  0.00  0.00     0.081 C 
BRANCH   6   7
HETATM    7  C           1     -21.137  -5.242  -6.709  0.00  0.00    -0.056 A 
HETATM    8  C           1     -20.299  -5.306  -7.822  0.00  0.00     0.010 A 
HETATM    9  C           1     -20.717  -4.773  -9.042  0.00  0.00     0.038 A 
HETATM   10  C           1     -21.972  -4.175  -9.147  0.00  0.00     0.081 A 
HETATM   11  C           1     -22.811  -4.111  -8.034  0.00  0.00     0.038 A 
HETATM   12  C           1     -22.393  -4.644  -6.815  0.00  0.00     0.010 A 
BRANCH  10  13
HETATM   13  O           1     -22.378  -3.657 -10.332  0.00  0.00    -0.247 OA
BRANCH  13  14
HETATM   14  P           1     -23.669  -4.314 -11.045  0.00  0.00     0.411 P 
HETATM   15  O           1     -24.017  -5.581 -10.364  0.00  0.00    -0.624 OA
HETATM   16  O           1     -24.811  -3.377 -10.959  0.00  0.00    -0.624 OA
BRANCH  14  17
HETATM   17  O           1     -23.335  -4.612 -12.597  0.00  0.00    -0.300 OA
HETATM   18  H           1     -24.092  -5.063 -12.927  0.00  0.00     0.223 HD
ENDBRANCH  14  17
ENDBRANCH  13  14
ENDBRANCH  10  13
ENDBRANCH   6   7
ENDBRANCH   5   6
BRANCH   5  19
HETATM   19  N           1     -22.134  -6.017  -3.410  0.00  0.00    -0.066 N 
HETATM   20  H           1     -23.141  -5.743  -3.361  0.00  0.00     0.275 HD
HETATM   21  H           1     -21.932  -6.734  -2.678  0.00  0.00     0.275 HD
HETATM   22  H           1     -21.537  -5.174  -3.248  0.00  0.00     0.275 HD
ENDBRANCH   5  19
ENDBRANCH   2   5
BRANCH   1  23
HETATM   23  C           1     -20.210  -8.599  -2.595  0.00  0.00     0.189 C 
BRANCH  23  24
HETATM   24  C           1     -19.494  -9.920  -2.732  0.00  0.00     0.197 C 
HETATM   25  O           1     -20.090 -10.907  -3.214  0.00  0.00    -0.646 OA
HETATM   26  O           1     -18.305 -10.028  -2.363  0.00  0.00    -0.646 OA
ENDBRANCH  23  24
BRANCH  23  27
HETATM   27  C           1     -20.562  -8.360  -1.132  0.00  0.00     0.074 C 
BRANCH  27  28
HETATM   28  C           1     -21.315  -9.539  -0.600  0.00  0.00    -0.056 A 
HETATM   29  C           1     -22.668  -9.696  -0.902  0.00  0.00     0.010 A 
HETATM   30  C           1     -23.370 -10.795  -0.405  0.00  0.00     0.038 A 
HETATM   31  C           1     -22.718 -11.737   0.391  0.00  0.00     0.081 A 
HETATM   32  C           1     -21.365 -11.579   0.693  0.00  0.00     0.038 A 
HETATM   33  C           1     -20.664 -10.480   0.197  0.00  0.00     0.010 A 
BRANCH  31  34
HETATM   34  O           1     -23.400 -12.804   0.873  0.00  0.00    -0.247 OA
BRANCH  34  35
HETATM   35  P           1     -23.451 -14.142  -0.029  0.00  0.00     0.411 P 
HETATM   36  O           1     -24.058 -15.242   0.753  0.00  0.00    -0.624 OA
HETATM   37  O           1     -22.077 -14.520  -0.428  0.00  0.00    -0.624 OA
BRANCH  35  38
HETATM   38  O           1     -24.340 -13.867  -1.349  0.00  0.00    -0.300 OA
HETATM   39  H           1     -23.908 -13.155  -1.790  0.00  0.00     0.223 HD
ENDBRANCH  35  38
ENDBRANCH  34  35
ENDBRANCH  31  34
ENDBRANCH  27  28
ENDBRANCH  23  27
ENDBRANCH   1  23
TORSDOF 14
ENDMDL
MODEL 6
REMARK VINA RESULT:      -7.5      5.414      9.346
REMARK  14 active torsions:
REMARK  status: ('A' for Active; 'I' for Inactive)
REMARK    1  A    between atoms: C_2  and  C_4 
REMARK    2  A    between atoms: C_4  and  C_5 
REMARK    3  A    between atoms: C_4  and  N_17 
REMARK    4  A    between atoms: C_5  and  C_6 
REMARK    5  A    between atoms: C_9  and  O_10 
REMARK    6  A    between atoms: O_10  and  P_11 
REMARK    7  A    between atoms: P_11  and  O_13 
REMARK       I    between atoms: N_17  and  C_18 
REMARK    8  A    between atoms: C_18  and  C_19 
REMARK    9  A    between atoms: C_19  and  C_20 
REMARK   10  A    between atoms: C_19  and  N_32 
REMARK   11  A    between atoms: C_20  and  C_21 
REMARK   12  A    between atoms: C_24  and  O_25 
REMARK   13  A    between atoms: O_25  and  P_26 
REMARK   14  A    between atoms: P_26  and  O_27 
ROOT
HETATM    1  N           1     -20.535  -7.745  -3.015  0.00  0.00    -0.344 N 
HETATM    2  C           1     -20.450  -8.490  -4.161  0.00  0.00     0.249 C 
HETATM    3  O           1     -21.080  -8.166  -5.141  0.00  0.00    -0.271 OA
HETATM    4  H           1     -19.894  -6.977  -2.862  0.00  0.00     0.163 HD
ENDROOT
BRANCH   2   5
HETATM    5  C           1     -19.569  -9.715  -4.202  0.00  0.00     0.278 C 
BRANCH   5   6
HETATM    6  C           1     -18.175  -9.354  -3.706  0.00  0.00     0.081 C 
BRANCH   6   7
HETATM    7  C           1     -17.657 -10.453  -2.831  0.00  0.00    -0.056 A 
HETATM    8  C           1     -16.282 -10.623  -2.665  0.00  0.00     0.010 A 
HETATM    9  C           1     -15.799 -11.646  -1.850  0.00  0.00     0.038 A 
HETATM   10  C           1     -16.691 -12.501  -1.202  0.00  0.00     0.081 A 
HETATM   11  C           1     -18.066 -12.331  -1.368  0.00  0.00     0.038 A 
HETATM   12  C           1     -18.548 -11.307  -2.182  0.00  0.00     0.010 A 
BRANCH  10  13
HETATM   13  O           1     -16.222 -13.496  -0.411  0.00  0.00    -0.247 OA
BRANCH  13  14
HETATM   14  P           1     -15.692 -13.106   1.064  0.00  0.00     0.411 P 
HETATM   15  O           1     -16.247 -14.056   2.054  0.00  0.00    -0.624 OA
HETATM   16  O           1     -14.214 -13.172   1.090  0.00  0.00    -0.624 OA
BRANCH  14  17
HETATM   17  O           1     -16.170 -11.608   1.431  0.00  0.00    -0.300 OA
HETATM   18  H           1     -16.760 -11.364   0.739  0.00  0.00     0.223 HD
ENDBRANCH  14  17
ENDBRANCH  13  14
ENDBRANCH  10  13
ENDBRANCH   6   7
ENDBRANCH   5   6
BRANCH   5  19
HETATM   19  N           1     -19.482 -10.219  -5.612  0.00  0.00    -0.066 N 
HETATM   20  H           1     -20.430 -10.516  -5.935  0.00  0.00     0.275 HD
HETATM   21  H           1     -19.125  -9.459  -6.232  0.00  0.00     0.275 HD
HETATM   22  H           1     -18.830 -11.037  -5.650  0.00  0.00     0.275 HD
ENDBRANCH   5  19
ENDBRANCH   2   5
BRANCH   1  23
HETATM   23  C           1     -21.544  -8.058  -2.022  0.00  0.00     0.189 C 
BRANCH  23  24
HETATM   24  C           1     -22.276  -6.796  -1.636  0.00  0.00     0.197 C 
HETATM   25  O           1     -22.457  -5.895  -2.482  0.00  0.00    -0.646 OA
HETATM   26  O           1     -22.703  -6.653  -0.470  0.00  0.00    -0.646 OA
ENDBRANCH  23  24
BRANCH  23  27
HETATM   27  C           1     -20.875  -8.655  -0.790  0.00  0.00     0.074 C 
BRANCH  27  28
HETATM   28  C           1     -21.586  -9.912  -0.396  0.00  0.00    -0.056 A 
HETATM   29  C           1     -22.873 -10.163  -0.869  0.00  0.00     0.010 A 
HETATM   30  C           1     -23.535 -11.336  -0.502  0.00  0.00     0.038 A 
HETATM   31  C           1     -22.908 -12.256   0.338  0.00  0.00     0.081 A 
HETATM   32  C           1     -21.620 -12.004   0.811  0.00  0.00     0.038 A 
HETATM   33  C           1     -20.959 -10.832   0.444  0.00  0.00     0.010 A 
BRANCH  31  34
HETATM   34  O           1     -23.551 -13.394   0.695  0.00  0.00    -0.247 OA
BRANCH  34  35
HETATM   35  P           1     -23.584 -14.611  -0.366  0.00  0.00     0.411 P 
HETATM   36  O           1     -22.407 -14.521  -1.257  0.00  0.00    -0.624 OA
HETATM   37  O           1     -24.822 -14.528  -1.173  0.00  0.00    -0.624 OA
BRANCH  35  38
HETATM   38  O           1     -23.551 -16.017   0.429  0.00  0.00    -0.300 OA
HETATM   39  H           1     -24.229 -15.947   1.078  0.00  0.00     0.223 HD
ENDBRANCH  35  38
ENDBRANCH  34  35
ENDBRANCH  31  34
ENDBRANCH  27  28
ENDBRANCH  23  27
ENDBRANCH   1  23
TORSDOF 14
ENDMDL
MODEL 7
REMARK VINA RESULT:      -7.5      4.500      6.730
REMARK  14 active torsions:
REMARK  status: ('A' for Active; 'I' for Inactive)
REMARK    1  A    between atoms: C_2  and  C_4 
REMARK    2  A    between atoms: C_4  and  C_5 
REMARK    3  A    between atoms: C_4  and  N_17 
REMARK    4  A    between atoms: C_5  and  C_6 
REMARK    5  A    between atoms: C_9  and  O_10 
REMARK    6  A    between atoms: O_10  and  P_11 
REMARK    7  A    between atoms: P_11  and  O_13 
REMARK       I    between atoms: N_17  and  C_18 
REMARK    8  A    between atoms: C_18  and  C_19 
REMARK    9  A    between atoms: C_19  and  C_20 
REMARK   10  A    between atoms: C_19  and  N_32 
REMARK   11  A    between atoms: C_20  and  C_21 
REMARK   12  A    between atoms: C_24  and  O_25 
REMARK   13  A    between atoms: O_25  and  P_26 
REMARK   14  A    between atoms: P_26  and  O_27 
ROOT
HETATM    1  N           1     -22.064  -8.392  -1.339  0.00  0.00    -0.344 N 
HETATM    2  C           1     -21.529  -8.828  -0.156  0.00  0.00     0.249 C 
HETATM    3  O           1     -21.502  -8.094   0.803  0.00  0.00    -0.271 OA
HETATM    4  H           1     -23.049  -8.523  -1.528  0.00  0.00     0.163 HD
ENDROOT
BRANCH   2   5
HETATM    5  C           1     -20.975 -10.229  -0.050  0.00  0.00     0.278 C 
BRANCH   5   6
HETATM    6  C           1     -22.075 -11.235  -0.364  0.00  0.00     0.081 C 
BRANCH   6   7
HETATM    7  C           1     -21.847 -11.814  -1.726  0.00  0.00    -0.056 A 
HETATM    8  C           1     -20.641 -12.451  -2.019  0.00  0.00     0.010 A 
HETATM    9  C           1     -20.428 -12.991  -3.287  0.00  0.00     0.038 A 
HETATM   10  C           1     -21.421 -12.893  -4.262  0.00  0.00     0.081 A 
HETATM   11  C           1     -22.627 -12.256  -3.969  0.00  0.00     0.038 A 
HETATM   12  C           1     -22.839 -11.716  -2.700  0.00  0.00     0.010 A 
BRANCH  10  13
HETATM   13  O           1     -21.214 -13.417  -5.495  0.00  0.00    -0.247 OA
BRANCH  13  14
HETATM   14  P           1     -20.497 -12.488  -6.604  0.00  0.00     0.411 P 
HETATM   15  O           1     -21.146 -11.159  -6.628  0.00  0.00    -0.624 OA
HETATM   16  O           1     -19.064 -12.334  -6.267  0.00  0.00    -0.624 OA
BRANCH  14  17
HETATM   17  O           1     -20.635 -13.180  -8.057  0.00  0.00    -0.300 OA
HETATM   18  H           1     -21.299 -13.839  -7.952  0.00  0.00     0.223 HD
ENDBRANCH  14  17
ENDBRANCH  13  14
ENDBRANCH  10  13
ENDBRANCH   6   7
ENDBRANCH   5   6
BRANCH   5  19
HETATM   19  N           1     -20.470 -10.460   1.344  0.00  0.00    -0.066 N 
HETATM   20  H           1     -20.854  -9.726   1.980  0.00  0.00     0.275 HD
HETATM   21  H           1     -20.777 -11.402   1.673  0.00  0.00     0.275 HD
HETATM   22  H           1     -19.425 -10.411   1.348  0.00  0.00     0.275 HD
ENDBRANCH   5  19
ENDBRANCH   2   5
BRANCH   1  23
HETATM   23  C           1     -21.217  -7.741  -2.320  0.00  0.00     0.189 C 
BRANCH  23  24
HETATM   24  C           1     -21.809  -6.401  -2.684  0.00  0.00     0.197 C 
HETATM   25  O           1     -22.375  -5.710  -1.810  0.00  0.00    -0.646 OA
HETATM   26  O           1     -21.733  -5.983  -3.859  0.00  0.00    -0.646 OA
ENDBRANCH  23  24
BRANCH  23  27
HETATM   27  C           1     -21.122  -8.611  -3.566  0.00  0.00     0.074 C 
BRANCH  27  28
HETATM   28  C           1     -19.691  -8.975  -3.813  0.00  0.00    -0.056 A 
HETATM   29  C           1     -19.193  -8.999  -5.115  0.00  0.00     0.010 A 
HETATM   30  C           1     -17.859  -9.339  -5.345  0.00  0.00     0.038 A 
HETATM   31  C           1     -17.024  -9.653  -4.273  0.00  0.00     0.081 A 
HETATM   32  C           1     -17.524  -9.629  -2.970  0.00  0.00     0.038 A 
HETATM   33  C           1     -18.857  -9.290  -2.740  0.00  0.00     0.010 A 
BRANCH  31  34
HETATM   34  O           1     -15.729  -9.983  -4.496  0.00  0.00    -0.247 OA
BRANCH  34  35
HETATM   35  P           1     -15.326 -11.546  -4.448  0.00  0.00     0.411 P 
HETATM   36  O           1     -14.796 -11.878  -3.107  0.00  0.00    -0.624 OA
HETATM   37  O           1     -14.292 -11.820  -5.470  0.00  0.00    -0.624 OA
BRANCH  35  38
HETATM   38  O           1     -16.633 -12.447  -4.748  0.00  0.00    -0.300 OA
HETATM   39  H           1     -16.367 -13.045  -5.424  0.00  0.00     0.223 HD
ENDBRANCH  35  38
ENDBRANCH  34  35
ENDBRANCH  31  34
ENDBRANCH  27  28
ENDBRANCH  23  27
ENDBRANCH   1  23
TORSDOF 14
ENDMDL
MODEL 8
REMARK VINA RESULT:      -7.5      2.633      8.483
REMARK  14 active torsions:
REMARK  status: ('A' for Active; 'I' for Inactive)
REMARK    1  A    between atoms: C_2  and  C_4 
REMARK    2  A    between atoms: C_4  and  C_5 
REMARK    3  A    between atoms: C_4  and  N_17 
REMARK    4  A    between atoms: C_5  and  C_6 
REMARK    5  A    between atoms: C_9  and  O_10 
REMARK    6  A    between atoms: O_10  and  P_11 
REMARK    7  A    between atoms: P_11  and  O_13 
REMARK       I    between atoms: N_17  and  C_18 
REMARK    8  A    between atoms: C_18  and  C_19 
REMARK    9  A    between atoms: C_19  and  C_20 
REMARK   10  A    between atoms: C_19  and  N_32 
REMARK   11  A    between atoms: C_20  and  C_21 
REMARK   12  A    between atoms: C_24  and  O_25 
REMARK   13  A    between atoms: O_25  and  P_26 
REMARK   14  A    between atoms: P_26  and  O_27 
ROOT
HETATM    1  N           1     -20.427  -7.295  -5.976  0.00  0.00    -0.344 N 
HETATM    2  C           1     -20.414  -8.635  -5.696  0.00  0.00     0.249 C 
HETATM    3  O           1     -21.451  -9.254  -5.657  0.00  0.00    -0.271 OA
HETATM    4  H           1     -20.359  -6.977  -6.934  0.00  0.00     0.163 HD
ENDROOT
BRANCH   2   5
HETATM    5  C           1     -19.104  -9.339  -5.437  0.00  0.00     0.278 C 
BRANCH   5   6
HETATM    6  C           1     -18.575  -8.940  -4.066  0.00  0.00     0.081 C 
BRANCH   6   7
HETATM    7  C           1     -19.472  -9.498  -3.004  0.00  0.00    -0.056 A 
HETATM    8  C           1     -19.626 -10.879  -2.877  0.00  0.00     0.010 A 
HETATM    9  C           1     -20.460 -11.399  -1.889  0.00  0.00     0.038 A 
HETATM   10  C           1     -21.141 -10.539  -1.027  0.00  0.00     0.081 A 
HETATM   11  C           1     -20.986  -9.158  -1.153  0.00  0.00     0.038 A 
HETATM   12  C           1     -20.151  -8.638  -2.142  0.00  0.00     0.010 A 
BRANCH  10  13
HETATM   13  O           1     -21.952 -11.045  -0.066  0.00  0.00    -0.247 OA
BRANCH  13  14
HETATM   14  P           1     -23.466 -11.430  -0.476  0.00  0.00     0.411 P 
HETATM   15  O           1     -24.409 -10.528   0.222  0.00  0.00    -0.624 OA
HETATM   16  O           1     -23.633 -11.285  -1.939  0.00  0.00    -0.624 OA
BRANCH  14  17
HETATM   17  O           1     -23.768 -12.958  -0.049  0.00  0.00    -0.300 OA
HETATM   18  H           1     -22.923 -13.331   0.135  0.00  0.00     0.223 HD
ENDBRANCH  14  17
ENDBRANCH  13  14
ENDBRANCH  10  13
ENDBRANCH   6   7
ENDBRANCH   5   6
BRANCH   5  19
HETATM   19  N           1     -18.110  -8.944  -6.490  0.00  0.00    -0.066 N 
HETATM   20  H           1     -17.886  -9.773  -7.085  0.00  0.00     0.275 HD
HETATM   21  H           1     -18.516  -8.188  -7.085  0.00  0.00     0.275 HD
HETATM   22  H           1     -17.236  -8.599  -6.032  0.00  0.00     0.275 HD
ENDBRANCH   5  19
ENDBRANCH   2   5
BRANCH   1  23
HETATM   23  C           1     -20.540  -6.330  -4.899  0.00  0.00     0.189 C 
BRANCH  23  24
HETATM   24  C           1     -21.984  -6.209  -4.481  0.00  0.00     0.197 C 
HETATM   25  O           1     -22.891  -6.276  -5.339  0.00  0.00    -0.646 OA
HETATM   26  O           1     -22.275  -6.043  -3.277  0.00  0.00    -0.646 OA
ENDBRANCH  23  24
BRANCH  23  27
HETATM   27  C           1     -20.033  -4.975  -5.375  0.00  0.00     0.074 C 
BRANCH  27  28
HETATM   28  C           1     -20.538  -4.712  -6.760  0.00  0.00    -0.056 A 
HETATM   29  C           1     -21.558  -3.784  -6.966  0.00  0.00     0.010 A 
HETATM   30  C           1     -22.028  -3.540  -8.257  0.00  0.00     0.038 A 
HETATM   31  C           1     -21.477  -4.224  -9.341  0.00  0.00     0.081 A 
HETATM   32  C           1     -20.457  -5.153  -9.134  0.00  0.00     0.038 A 
HETATM   33  C           1     -19.987  -5.397  -7.844  0.00  0.00     0.010 A 
BRANCH  31  34
HETATM   34  O           1     -21.935  -3.987 -10.594  0.00  0.00    -0.247 OA
BRANCH  34  35
HETATM   35  P           1     -23.472  -4.357 -10.923  0.00  0.00     0.411 P 
HETATM   36  O           1     -24.324  -3.168 -10.700  0.00  0.00    -0.624 OA
HETATM   37  O           1     -23.915  -5.455 -10.036  0.00  0.00    -0.624 OA
BRANCH  35  38
HETATM   38  O           1     -23.594  -4.825 -12.464  0.00  0.00    -0.300 OA
HETATM   39  H           1     -22.953  -5.507 -12.563  0.00  0.00     0.223 HD
ENDBRANCH  35  38
ENDBRANCH  34  35
ENDBRANCH  31  34
ENDBRANCH  27  28
ENDBRANCH  23  27
ENDBRANCH   1  23
TORSDOF 14
ENDMDL
MODEL 9
REMARK VINA RESULT:      -7.5      4.005      5.732
REMARK  14 active torsions:
REMARK  status: ('A' for Active; 'I' for Inactive)
REMARK    1  A    between atoms: C_2  and  C_4 
REMARK    2  A    between atoms: C_4  and  C_5 
REMARK    3  A    between atoms: C_4  and  N_17 
REMARK    4  A    between atoms: C_5  and  C_6 
REMARK    5  A    between atoms: C_9  and  O_10 
REMARK    6  A    between atoms: O_10  and  P_11 
REMARK    7  A    between atoms: P_11  and  O_13 
REMARK       I    between atoms: N_17  and  C_18 
REMARK    8  A    between atoms: C_18  and  C_19 
REMARK    9  A    between atoms: C_19  and  C_20 
REMARK   10  A    between atoms: C_19  and  N_32 
REMARK   11  A    between atoms: C_20  and  C_21 
REMARK   12  A    between atoms: C_24  and  O_25 
REMARK   13  A    between atoms: O_25  and  P_26 
REMARK   14  A    between atoms: P_26  and  O_27 
ROOT
HETATM    1  N           1     -20.171 -11.325   0.422  0.00  0.00    -0.344 N 
HETATM    2  C           1     -21.534 -11.456   0.454  0.00  0.00     0.249 C 
HETATM    3  O           1     -22.042 -12.328   1.120  0.00  0.00    -0.271 OA
HETATM    4  H           1     -19.704 -10.732   1.097  0.00  0.00     0.163 HD
ENDROOT
BRANCH   2   5
HETATM    5  C           1     -22.402 -10.511  -0.340  0.00  0.00     0.278 C 
BRANCH   5   6
HETATM    6  C           1     -22.195  -9.088   0.162  0.00  0.00     0.081 C 
BRANCH   6   7
HETATM    7  C           1     -21.864  -8.195  -0.993  0.00  0.00    -0.056 A 
HETATM    8  C           1     -21.052  -8.663  -2.026  0.00  0.00     0.010 A 
HETATM    9  C           1     -20.743  -7.833  -3.102  0.00  0.00     0.038 A 
HETATM   10  C           1     -21.246  -6.532  -3.146  0.00  0.00     0.081 A 
HETATM   11  C           1     -22.059  -6.064  -2.113  0.00  0.00     0.038 A 
HETATM   12  C           1     -22.367  -6.895  -1.037  0.00  0.00     0.010 A 
BRANCH  10  13
HETATM   13  O           1     -20.946  -5.724  -4.191  0.00  0.00    -0.247 OA
BRANCH  13  14
HETATM   14  P           1     -21.729  -5.963  -5.584  0.00  0.00     0.411 P 
HETATM   15  O           1     -21.225  -7.197  -6.226  0.00  0.00    -0.624 OA
HETATM   16  O           1     -23.178  -6.099  -5.318  0.00  0.00    -0.624 OA
BRANCH  14  17
HETATM   17  O           1     -21.478  -4.706  -6.566  0.00  0.00    -0.300 OA
HETATM   18  H           1     -20.743  -4.249  -6.195  0.00  0.00     0.223 HD
ENDBRANCH  14  17
ENDBRANCH  13  14
ENDBRANCH  10  13
ENDBRANCH   6   7
ENDBRANCH   5   6
BRANCH   5  19
HETATM   19  N           1     -23.842 -10.896  -0.170  0.00  0.00    -0.066 N 
HETATM   20  H           1     -23.906 -11.756   0.419  0.00  0.00     0.275 HD
HETATM   21  H           1     -24.359 -10.116   0.294  0.00  0.00     0.275 HD
HETATM   22  H           1     -24.265 -11.085  -1.108  0.00  0.00     0.275 HD
ENDBRANCH   5  19
ENDBRANCH   2   5
BRANCH   1  23
HETATM   23  C           1     -19.399 -12.035  -0.579  0.00  0.00     0.189 C 
BRANCH  23  24
HETATM   24  C           1     -18.606 -13.134   0.085  0.00  0.00     0.197 C 
HETATM   25  O           1     -17.458 -12.900   0.521  0.00  0.00    -0.646 OA
HETATM   26  O           1     -19.096 -14.278   0.198  0.00  0.00    -0.646 OA
ENDBRANCH  23  24
BRANCH  23  27
HETATM   27  C           1     -18.447 -11.065  -1.267  0.00  0.00     0.074 C 
BRANCH  27  28
HETATM   28  C           1     -18.664 -11.117  -2.747  0.00  0.00    -0.056 A 
HETATM   29  C           1     -17.812 -10.420  -3.602  0.00  0.00     0.010 A 
HETATM   30  C           1     -18.016 -10.469  -4.982  0.00  0.00     0.038 A 
HETATM   31  C           1     -19.072 -11.215  -5.505  0.00  0.00     0.081 A 
HETATM   32  C           1     -19.924 -11.912  -4.648  0.00  0.00     0.038 A 
HETATM   33  C           1     -19.721 -11.863  -3.270  0.00  0.00     0.010 A 
BRANCH  31  34
HETATM   34  O           1     -19.270 -11.262  -6.845  0.00  0.00    -0.247 OA
BRANCH  34  35
HETATM   35  P           1     -19.007 -12.664  -7.602  0.00  0.00     0.411 P 
HETATM   36  O           1     -18.731 -12.409  -9.033  0.00  0.00    -0.624 OA
HETATM   37  O           1     -20.205 -13.524  -7.476  0.00  0.00    -0.624 OA
BRANCH  35  38
HETATM   38  O           1     -17.738 -13.406  -6.933  0.00  0.00    -0.300 OA
HETATM   39  H           1     -17.353 -13.908  -7.630  0.00  0.00     0.223 HD
ENDBRANCH  35  38
ENDBRANCH  34  35
ENDBRANCH  31  34
ENDBRANCH  27  28
ENDBRANCH  23  27
ENDBRANCH   1  23
TORSDOF 14
ENDMDL
