MODEL 1
REMARK VINA RESULT:      -7.7      0.000      0.000
REMARK  8 active torsions:
REMARK  status: ('A' for Active; 'I' for Inactive)
REMARK    1  A    between atoms: C_4  and  C_20 
REMARK    2  A    between atoms: C_4  and  C_16 
REMARK    3  A    between atoms: C_4  and  N_14 
REMARK    4  A    between atoms: O_6  and  C_19 
REMARK    5  A    between atoms: C_8  and  C_16 
REMARK    6  A    between atoms: C_9  and  C_13 
REMARK    7  A    between atoms: C_13  and  C_19 
REMARK    8  A    between atoms: C_13  and  N_17 
REMARK       I    between atoms: N_17  and  C_20 
ROOT
HETATM    1  C           1     -21.193  -5.704  -6.944  0.00  0.00     0.278 C 
ENDROOT
BRANCH   1   2
HETATM    2  C           1     -21.697  -4.561  -7.792  0.00  0.00     0.249 C 
HETATM    3  N           1     -22.136  -4.798  -9.066  0.00  0.00    -0.343 N 
HETATM    4  H           1     -22.123  -5.738  -9.440  0.00  0.00     0.163 HD
HETATM    5  O           1     -21.713  -3.440  -7.344  0.00  0.00    -0.271 OA
BRANCH   3   6
HETATM    6  C           1     -22.621  -3.700  -9.880  0.00  0.00     0.214 C 
BRANCH   6   7
HETATM    7  C           1     -24.087  -3.903 -10.177  0.00  0.00     0.199 C 
HETATM    8  O           1     -24.745  -2.995 -10.728  0.00  0.00    -0.646 OA
HETATM    9  O           1     -24.643  -4.979  -9.869  0.00  0.00    -0.646 OA
ENDBRANCH   6   7
BRANCH   6  10
HETATM   10  C           1     -21.842  -3.652 -11.188  0.00  0.00     0.147 C 
HETATM   11  C           1     -20.445  -4.219 -10.968  0.00  0.00     0.042 C 
BRANCH  10  12
HETATM   12  O           1     -22.509  -4.417 -12.156  0.00  0.00    -0.393 OA
HETATM   13  H           1     -23.421  -4.417 -11.923  0.00  0.00     0.210 HD
ENDBRANCH  10  12
ENDBRANCH   6  10
ENDBRANCH   3   6
ENDBRANCH   1   2
BRANCH   1  14
HETATM   14  C           1     -20.964  -5.218  -5.519  0.00  0.00     0.081 C 
BRANCH  14  15
HETATM   15  C           1     -21.206  -6.342  -4.561  0.00  0.00    -0.056 A 
HETATM   16  C           1     -21.297  -7.652  -5.031  0.00  0.00     0.007 A 
HETATM   17  C           1     -21.522  -8.700  -4.138  0.00  0.00     0.001 A 
HETATM   18  C           1     -21.655  -8.437  -2.774  0.00  0.00     0.000 A 
HETATM   19  C           1     -21.562  -7.127  -2.305  0.00  0.00     0.001 A 
HETATM   20  C           1     -21.338  -6.080  -3.197  0.00  0.00     0.007 A 
ENDBRANCH  14  15
ENDBRANCH   1  14
BRANCH   1  21
HETATM   21  N           1     -19.901  -6.214  -7.511  0.00  0.00    -0.066 N 
HETATM   22  H           1     -19.110  -5.918  -6.896  0.00  0.00     0.275 HD
HETATM   23  H           1     -19.765  -5.822  -8.471  0.00  0.00     0.275 HD
HETATM   24  H           1     -19.931  -7.257  -7.563  0.00  0.00     0.275 HD
ENDBRANCH   1  21
TORSDOF 8
ENDMDL
MODEL 2
REMARK VINA RESULT:      -7.4     13.465     15.669
REMARK  8 active torsions:
REMARK  status: ('A' for Active; 'I' for Inactive)
REMARK    1  A    between atoms: C_4  and  C_20 
REMARK    2  A    between atoms: C_4  and  C_16 
REMARK    3  A    between atoms: C_4  and  N_14 
REMARK    4  A    between atoms: O_6  and  C_19 
REMARK    5  A    between atoms: C_8  and  C_16 
REMARK    6  A    between atoms: C_9  and  C_13 
REMARK    7  A    between atoms: C_13  and  C_19 
REMARK    8  A    between atoms: C_13  and  N_17 
REMARK       I    between atoms: N_17  and  C_20 
ROOT
HETATM    1  C           1     -35.904  -0.694 -11.254  0.00  0.00     0.278 C 
ENDROOT
BRANCH   1   2
HETATM    2  C           1     -36.722  -0.531 -12.513  0.00  0.00     0.249 C 
HETATM    3  N           1     -36.099  -0.481 -13.730  0.00  0.00    -0.343 N 
HETATM    4  H           1     -35.092  -0.553 -13.788  0.00  0.00     0.163 HD
HETATM    5  O           1     -37.924  -0.445 -12.444  0.00  0.00    -0.271 OA
BRANCH   3   6
HETATM    6  C           1     -36.885  -0.324 -14.939  0.00  0.00     0.214 C 
BRANCH   6   7
HETATM    7  C           1     -36.173  -0.991 -16.091  0.00  0.00     0.199 C 
HETATM    8  O           1     -36.624  -0.884 -17.251  0.00  0.00    -0.646 OA
HETATM    9  O           1     -35.132  -1.651 -15.884  0.00  0.00    -0.646 OA
ENDBRANCH   6   7
BRANCH   6  10
HETATM   10  C           1     -37.062   1.158 -15.243  0.00  0.00     0.147 C 
HETATM   11  C           1     -35.741   1.738 -15.732  0.00  0.00     0.042 C 
BRANCH  10  12
HETATM   12  O           1     -38.038   1.317 -16.237  0.00  0.00    -0.393 OA
HETATM   13  H           1     -38.443   0.475 -16.359  0.00  0.00     0.210 HD
ENDBRANCH  10  12
ENDBRANCH   6  10
ENDBRANCH   3   6
ENDBRANCH   1   2
BRANCH   1  14
HETATM   14  C           1     -36.217  -2.041 -10.616  0.00  0.00     0.081 C 
BRANCH  14  15
HETATM   15  C           1     -35.115  -3.008 -10.919  0.00  0.00    -0.056 A 
HETATM   16  C           1     -35.365  -4.380 -10.898  0.00  0.00     0.007 A 
HETATM   17  C           1     -34.338  -5.279 -11.181  0.00  0.00     0.001 A 
HETATM   18  C           1     -33.060  -4.807 -11.485  0.00  0.00     0.000 A 
HETATM   19  C           1     -32.811  -3.435 -11.507  0.00  0.00     0.001 A 
HETATM   20  C           1     -33.839  -2.535 -11.224  0.00  0.00     0.007 A 
ENDBRANCH  14  15
ENDBRANCH   1  14
BRANCH   1  21
HETATM   21  N           1     -36.243   0.406 -10.292  0.00  0.00    -0.066 N 
HETATM   22  H           1     -35.680   1.255 -10.521  0.00  0.00     0.275 HD
HETATM   23  H           1     -36.027   0.094  -9.318  0.00  0.00     0.275 HD
HETATM   24  H           1     -37.261   0.632 -10.367  0.00  0.00     0.275 HD
ENDBRANCH   1  21
TORSDOF 8
ENDMDL
MODEL 3
REMARK VINA RESULT:      -6.9      3.117      7.295
REMARK  8 active torsions:
REMARK  status: ('A' for Active; 'I' for Inactive)
REMARK    1  A    between atoms: C_4  and  C_20 
REMARK    2  A    between atoms: C_4  and  C_16 
REMARK    3  A    between atoms: C_4  and  N_14 
REMARK    4  A    between atoms: O_6  and  C_19 
REMARK    5  A    between atoms: C_8  and  C_16 
REMARK    6  A    between atoms: C_9  and  C_13 
REMARK    7  A    between atoms: C_13  and  C_19 
REMARK    8  A    between atoms: C_13  and  N_17 
REMARK       I    between atoms: N_17  and  C_20 
ROOT
HETATM    1  C           1     -22.361  -5.155  -6.753  0.00  0.00     0.278 C 
ENDROOT
BRANCH   1   2
HETATM    2  C           1     -21.542  -5.640  -5.582  0.00  0.00     0.249 C 
HETATM    3  N           1     -22.121  -6.425  -4.622  0.00  0.00    -0.343 N 
HETATM    4  H           1     -23.096  -6.680  -4.697  0.00  0.00     0.163 HD
HETATM    5  O           1     -20.376  -5.336  -5.494  0.00  0.00    -0.271 OA
BRANCH   3   6
HETATM    6  C           1     -21.333  -6.891  -3.497  0.00  0.00     0.214 C 
BRANCH   6   7
HETATM    7  C           1     -20.875  -8.306  -3.757  0.00  0.00     0.199 C 
HETATM    8  O           1     -19.658  -8.586  -3.721  0.00  0.00    -0.646 OA
HETATM    9  O           1     -21.714  -9.197  -4.009  0.00  0.00    -0.646 OA
ENDBRANCH   6   7
BRANCH   6  10
HETATM   10  C           1     -22.181  -6.857  -2.233  0.00  0.00     0.147 C 
HETATM   11  C           1     -21.431  -7.545  -1.099  0.00  0.00     0.042 C 
BRANCH  10  12
HETATM   12  O           1     -22.439  -5.525  -1.880  0.00  0.00    -0.393 OA
HETATM   13  H           1     -21.693  -5.020  -2.155  0.00  0.00     0.210 HD
ENDBRANCH  10  12
ENDBRANCH   6  10
ENDBRANCH   3   6
ENDBRANCH   1   2
BRANCH   1  14
HETATM   14  C           1     -21.710  -3.914  -7.350  0.00  0.00     0.081 C 
BRANCH  14  15
HETATM   15  C           1     -21.660  -4.042  -8.841  0.00  0.00    -0.056 A 
HETATM   16  C           1     -22.843  -4.132  -9.574  0.00  0.00     0.007 A 
HETATM   17  C           1     -22.796  -4.251 -10.962  0.00  0.00     0.001 A 
HETATM   18  C           1     -21.564  -4.280 -11.619  0.00  0.00     0.000 A 
HETATM   19  C           1     -20.381  -4.190 -10.885  0.00  0.00     0.001 A 
HETATM   20  C           1     -20.429  -4.070  -9.497  0.00  0.00     0.007 A 
ENDBRANCH  14  15
ENDBRANCH   1  14
BRANCH   1  21
HETATM   21  N           1     -23.746  -4.816  -6.287  0.00  0.00    -0.066 N 
HETATM   22  H           1     -24.392  -4.785  -7.108  0.00  0.00     0.275 HD
HETATM   23  H           1     -23.735  -3.884  -5.815  0.00  0.00     0.275 HD
HETATM   24  H           1     -24.074  -5.544  -5.613  0.00  0.00     0.275 HD
ENDBRANCH   1  21
TORSDOF 8
ENDMDL
MODEL 4
REMARK VINA RESULT:      -6.7      1.286      1.555
REMARK  8 active torsions:
REMARK  status: ('A' for Active; 'I' for Inactive)
REMARK    1  A    between atoms: C_4  and  C_20 
REMARK    2  A    between atoms: C_4  and  C_16 
REMARK    3  A    between atoms: C_4  and  N_14 
REMARK    4  A    between atoms: O_6  and  C_19 
REMARK    5  A    between atoms: C_8  and  C_16 
REMARK    6  A    between atoms: C_9  and  C_13 
REMARK    7  A    between atoms: C_13  and  C_19 
REMARK    8  A    between atoms: C_13  and  N_17 
REMARK       I    between atoms: N_17  and  C_20 
ROOT
HETATM    1  C           1     -21.736  -6.037  -5.764  0.00  0.00     0.278 C 
ENDROOT
BRANCH   1   2
HETATM    2  C           1     -21.759  -4.927  -6.786  0.00  0.00     0.249 C 
HETATM    3  N           1     -22.442  -5.093  -7.960  0.00  0.00    -0.343 N 
HETATM    4  H           1     -22.931  -5.959  -8.143  0.00  0.00     0.163 HD
HETATM    5  O           1     -21.175  -3.893  -6.566  0.00  0.00    -0.271 OA
BRANCH   3   6
HETATM    6  C           1     -22.464  -4.026  -8.942  0.00  0.00     0.214 C 
BRANCH   6   7
HETATM    7  C           1     -23.829  -3.961  -9.583  0.00  0.00     0.199 C 
HETATM    8  O           1     -24.515  -2.920  -9.491  0.00  0.00    -0.646 OA
HETATM    9  O           1     -24.274  -4.949 -10.205  0.00  0.00    -0.646 OA
ENDBRANCH   6   7
BRANCH   6  10
HETATM   10  C           1     -21.415  -4.296 -10.012  0.00  0.00     0.147 C 
HETATM   11  C           1     -21.510  -3.233 -11.098  0.00  0.00     0.042 C 
BRANCH  10  12
HETATM   12  O           1     -20.138  -4.258  -9.432  0.00  0.00    -0.393 OA
HETATM   13  H           1     -19.692  -5.043  -9.702  0.00  0.00     0.210 HD
ENDBRANCH  10  12
ENDBRANCH   6  10
ENDBRANCH   3   6
ENDBRANCH   1   2
BRANCH   1  14
HETATM   14  C           1     -20.839  -5.638  -4.599  0.00  0.00     0.081 C 
BRANCH  14  15
HETATM   15  C           1     -21.182  -6.462  -3.398  0.00  0.00    -0.056 A 
HETATM   16  C           1     -20.664  -7.750  -3.264  0.00  0.00     0.007 A 
HETATM   17  C           1     -20.984  -8.518  -2.145  0.00  0.00     0.001 A 
HETATM   18  C           1     -21.821  -7.997  -1.158  0.00  0.00     0.000 A 
HETATM   19  C           1     -22.338  -6.709  -1.291  0.00  0.00     0.001 A 
HETATM   20  C           1     -22.019  -5.941  -2.410  0.00  0.00     0.007 A 
ENDBRANCH  14  15
ENDBRANCH   1  14
BRANCH   1  21
HETATM   21  N           1     -21.202  -7.288  -6.398  0.00  0.00    -0.066 N 
HETATM   22  H           1     -21.473  -8.114  -5.818  0.00  0.00     0.275 HD
HETATM   23  H           1     -20.160  -7.229  -6.459  0.00  0.00     0.275 HD
HETATM   24  H           1     -21.602  -7.390  -7.358  0.00  0.00     0.275 HD
ENDBRANCH   1  21
TORSDOF 8
ENDMDL
MODEL 5
REMARK VINA RESULT:      -6.7     12.428     14.158
REMARK  8 active torsions:
REMARK  status: ('A' for Active; 'I' for Inactive)
REMARK    1  A    between atoms: C_4  and  C_20 
REMARK    2  A    between atoms: C_4  and  C_16 
REMARK    3  A    between atoms: C_4  and  N_14 
REMARK    4  A    between atoms: O_6  and  C_19 
REMARK    5  A    between atoms: C_8  and  C_16 
REMARK    6  A    between atoms: C_9  and  C_13 
REMARK    7  A    between atoms: C_13  and  C_19 
REMARK    8  A    between atoms: C_13  and  N_17 
REMARK       I    between atoms: N_17  and  C_20 
ROOT
HETATM    1  C           1     -34.133  -3.942 -12.587  0.00  0.00     0.278 C 
ENDROOT
BRANCH   1   2
HETATM    2  C           1     -34.370  -2.496 -12.226  0.00  0.00     0.249 C 
HETATM    3  N           1     -35.291  -1.760 -12.921  0.00  0.00    -0.343 N 
HETATM    4  H           1     -35.813  -2.184 -13.676  0.00  0.00     0.163 HD
HETATM    5  O           1     -33.747  -1.989 -11.323  0.00  0.00    -0.271 OA
BRANCH   3   6
HETATM    6  C           1     -35.518  -0.370 -12.574  0.00  0.00     0.214 C 
BRANCH   6   7
HETATM    7  C           1     -36.508  -0.292 -11.437  0.00  0.00     0.199 C 
HETATM    8  O           1     -37.555  -0.975 -11.471  0.00  0.00    -0.646 OA
HETATM    9  O           1     -36.282   0.455 -10.462  0.00  0.00    -0.646 OA
ENDBRANCH   6   7
BRANCH   6  10
HETATM   10  C           1     -36.074   0.372 -13.781  0.00  0.00     0.147 C 
HETATM   11  C           1     -34.927   0.807 -14.683  0.00  0.00     0.042 C 
BRANCH  10  12
HETATM   12  O           1     -36.933  -0.476 -14.495  0.00  0.00    -0.393 OA
HETATM   13  H           1     -36.440  -1.250 -14.706  0.00  0.00     0.210 HD
ENDBRANCH  10  12
ENDBRANCH   6  10
ENDBRANCH   3   6
ENDBRANCH   1   2
BRANCH   1  14
HETATM   14  C           1     -33.060  -4.524 -11.676  0.00  0.00     0.081 C 
BRANCH  14  15
HETATM   15  C           1     -33.605  -5.722 -10.962  0.00  0.00    -0.056 A 
HETATM   16  C           1     -34.840  -5.649 -10.318  0.00  0.00     0.007 A 
HETATM   17  C           1     -35.347  -6.765  -9.654  0.00  0.00     0.001 A 
HETATM   18  C           1     -34.620  -7.955  -9.634  0.00  0.00     0.000 A 
HETATM   19  C           1     -33.385  -8.029 -10.279  0.00  0.00     0.001 A 
HETATM   20  C           1     -32.878  -6.912 -10.943  0.00  0.00     0.007 A 
ENDBRANCH  14  15
ENDBRANCH   1  14
BRANCH   1  21
HETATM   21  N           1     -33.679  -4.032 -14.014  0.00  0.00    -0.066 N 
HETATM   22  H           1     -32.782  -4.566 -14.060  0.00  0.00     0.275 HD
HETATM   23  H           1     -33.533  -3.069 -14.393  0.00  0.00     0.275 HD
HETATM   24  H           1     -34.407  -4.523 -14.581  0.00  0.00     0.275 HD
ENDBRANCH   1  21
TORSDOF 8
ENDMDL
MODEL 6
REMARK VINA RESULT:      -6.6      3.154      7.143
REMARK  8 active torsions:
REMARK  status: ('A' for Active; 'I' for Inactive)
REMARK    1  A    between atoms: C_4  and  C_20 
REMARK    2  A    between atoms: C_4  and  C_16 
REMARK    3  A    between atoms: C_4  and  N_14 
REMARK    4  A    between atoms: O_6  and  C_19 
REMARK    5  A    between atoms: C_8  and  C_16 
REMARK    6  A    between atoms: C_9  and  C_13 
REMARK    7  A    between atoms: C_13  and  C_19 
REMARK    8  A    between atoms: C_13  and  N_17 
REMARK       I    between atoms: N_17  and  C_20 
ROOT
HETATM    1  C           1     -21.159  -5.057  -6.145  0.00  0.00     0.278 C 
ENDROOT
BRANCH   1   2
HETATM    2  C           1     -21.760  -6.076  -5.208  0.00  0.00     0.249 C 
HETATM    3  N           1     -20.945  -6.875  -4.453  0.00  0.00    -0.343 N 
HETATM    4  H           1     -19.940  -6.783  -4.522  0.00  0.00     0.163 HD
HETATM    5  O           1     -22.960  -6.185  -5.126  0.00  0.00    -0.271 OA
BRANCH   3   6
HETATM    6  C           1     -21.524  -7.855  -3.554  0.00  0.00     0.214 C 
BRANCH   6   7
HETATM    7  C           1     -21.438  -7.345  -2.135  0.00  0.00     0.199 C 
HETATM    8  O           1     -22.256  -6.494  -1.726  0.00  0.00    -0.646 OA
HETATM    9  O           1     -20.548  -7.775  -1.370  0.00  0.00    -0.646 OA
ENDBRANCH   6   7
BRANCH   6  10
HETATM   10  C           1     -20.758  -9.166  -3.668  0.00  0.00     0.147 C 
HETATM   11  C           1     -21.146  -9.870  -4.962  0.00  0.00     0.042 C 
BRANCH  10  12
HETATM   12  O           1     -19.381  -8.903  -3.676  0.00  0.00    -0.393 OA
HETATM   13  H           1     -18.996  -9.478  -4.315  0.00  0.00     0.210 HD
ENDBRANCH  10  12
ENDBRANCH   6  10
ENDBRANCH   3   6
ENDBRANCH   1   2
BRANCH   1  14
HETATM   14  C           1     -20.689  -5.750  -7.417  0.00  0.00     0.081 C 
BRANCH  14  15
HETATM   15  C           1     -21.103  -4.943  -8.609  0.00  0.00    -0.056 A 
HETATM   16  C           1     -20.188  -4.687  -9.630  0.00  0.00     0.007 A 
HETATM   17  C           1     -20.574  -3.935 -10.739  0.00  0.00     0.001 A 
HETATM   18  C           1     -21.876  -3.440 -10.828  0.00  0.00     0.000 A 
HETATM   19  C           1     -22.791  -3.698  -9.807  0.00  0.00     0.001 A 
HETATM   20  C           1     -22.405  -4.449  -8.698  0.00  0.00     0.007 A 
ENDBRANCH  14  15
ENDBRANCH   1  14
BRANCH   1  21
HETATM   21  N           1     -19.990  -4.394  -5.477  0.00  0.00    -0.066 N 
HETATM   22  H           1     -19.542  -5.066  -4.814  0.00  0.00     0.275 HD
HETATM   23  H           1     -20.320  -3.552  -4.954  0.00  0.00     0.275 HD
HETATM   24  H           1     -19.294  -4.103  -6.201  0.00  0.00     0.275 HD
ENDBRANCH   1  21
TORSDOF 8
ENDMDL
MODEL 7
REMARK VINA RESULT:      -6.6      2.424      4.223
REMARK  8 active torsions:
REMARK  status: ('A' for Active; 'I' for Inactive)
REMARK    1  A    between atoms: C_4  and  C_20 
REMARK    2  A    between atoms: C_4  and  C_16 
REMARK    3  A    between atoms: C_4  and  N_14 
REMARK    4  A    between atoms: O_6  and  C_19 
REMARK    5  A    between atoms: C_8  and  C_16 
REMARK    6  A    between atoms: C_9  and  C_13 
REMARK    7  A    between atoms: C_13  and  C_19 
REMARK    8  A    between atoms: C_13  and  N_17 
REMARK       I    between atoms: N_17  and  C_20 
ROOT
HETATM    1  C           1     -21.884  -7.683  -4.156  0.00  0.00     0.278 C 
ENDROOT
BRANCH   1   2
HETATM    2  C           1     -21.562  -7.087  -5.505  0.00  0.00     0.249 C 
HETATM    3  N           1     -21.873  -5.780  -5.767  0.00  0.00    -0.343 N 
HETATM    4  H           1     -22.319  -5.214  -5.057  0.00  0.00     0.163 HD
HETATM    5  O           1     -21.029  -7.763  -6.352  0.00  0.00    -0.271 OA
BRANCH   3   6
HETATM    6  C           1     -21.564  -5.208  -7.063  0.00  0.00     0.214 C 
BRANCH   6   7
HETATM    7  C           1     -20.232  -4.500  -6.994  0.00  0.00     0.199 C 
HETATM    8  O           1     -19.781  -3.916  -8.003  0.00  0.00    -0.646 OA
HETATM    9  O           1     -19.579  -4.501  -5.929  0.00  0.00    -0.646 OA
ENDBRANCH   6   7
BRANCH   6  10
HETATM   10  C           1     -22.647  -4.210  -7.451  0.00  0.00     0.147 C 
HETATM   11  C           1     -22.959  -4.351  -8.935  0.00  0.00     0.042 C 
BRANCH  10  12
HETATM   12  O           1     -23.807  -4.467  -6.705  0.00  0.00    -0.393 OA
HETATM   13  H           1     -23.857  -5.401  -6.592  0.00  0.00     0.210 HD
ENDBRANCH  10  12
ENDBRANCH   6  10
ENDBRANCH   3   6
ENDBRANCH   1   2
BRANCH   1  14
HETATM   14  C           1     -20.888  -7.171  -3.124  0.00  0.00     0.081 C 
BRANCH  14  15
HETATM   15  C           1     -21.327  -7.589  -1.755  0.00  0.00    -0.056 A 
HETATM   16  C           1     -22.380  -6.925  -1.126  0.00  0.00     0.007 A 
HETATM   17  C           1     -22.788  -7.316   0.149  0.00  0.00     0.001 A 
HETATM   18  C           1     -22.143  -8.371   0.795  0.00  0.00     0.000 A 
HETATM   19  C           1     -21.091  -9.036   0.166  0.00  0.00     0.001 A 
HETATM   20  C           1     -20.683  -8.645  -1.109  0.00  0.00     0.007 A 
ENDBRANCH  14  15
ENDBRANCH   1  14
BRANCH   1  21
HETATM   21  N           1     -21.794  -9.178  -4.237  0.00  0.00    -0.066 N 
HETATM   22  H           1     -21.440  -9.555  -3.329  0.00  0.00     0.275 HD
HETATM   23  H           1     -21.140  -9.446  -5.007  0.00  0.00     0.275 HD
HETATM   24  H           1     -22.741  -9.574  -4.433  0.00  0.00     0.275 HD
ENDBRANCH   1  21
TORSDOF 8
ENDMDL
MODEL 8
REMARK VINA RESULT:      -6.5      5.104      7.922
REMARK  8 active torsions:
REMARK  status: ('A' for Active; 'I' for Inactive)
REMARK    1  A    between atoms: C_4  and  C_20 
REMARK    2  A    between atoms: C_4  and  C_16 
REMARK    3  A    between atoms: C_4  and  N_14 
REMARK    4  A    between atoms: O_6  and  C_19 
REMARK    5  A    between atoms: C_8  and  C_16 
REMARK    6  A    between atoms: C_9  and  C_13 
REMARK    7  A    between atoms: C_13  and  C_19 
REMARK    8  A    between atoms: C_13  and  N_17 
REMARK       I    between atoms: N_17  and  C_20 
ROOT
HETATM    1  C           1     -20.380  -8.302  -5.084  0.00  0.00     0.278 C 
ENDROOT
BRANCH   1   2
HETATM    2  C           1     -20.253  -8.536  -3.598  0.00  0.00     0.249 C 
HETATM    3  N           1     -21.338  -8.358  -2.783  0.00  0.00    -0.343 N 
HETATM    4  H           1     -22.225  -8.070  -3.176  0.00  0.00     0.163 HD
HETATM    5  O           1     -19.194  -8.880  -3.130  0.00  0.00    -0.271 OA
BRANCH   3   6
HETATM    6  C           1     -21.216  -8.583  -1.355  0.00  0.00     0.214 C 
BRANCH   6   7
HETATM    7  C           1     -21.883  -9.888  -0.994  0.00  0.00     0.199 C 
HETATM    8  O           1     -22.776 -10.359  -1.730  0.00  0.00    -0.646 OA
HETATM    9  O           1     -21.543 -10.497   0.043  0.00  0.00    -0.646 OA
ENDBRANCH   6   7
BRANCH   6  10
HETATM   10  C           1     -21.888  -7.444  -0.601  0.00  0.00     0.147 C 
HETATM   11  C           1     -22.305  -6.359  -1.585  0.00  0.00     0.042 C 
BRANCH  10  12
HETATM   12  O           1     -23.022  -7.931   0.065  0.00  0.00    -0.393 OA
HETATM   13  H           1     -23.614  -8.244  -0.597  0.00  0.00     0.210 HD
ENDBRANCH  10  12
ENDBRANCH   6  10
ENDBRANCH   3   6
ENDBRANCH   1   2
BRANCH   1  14
HETATM   14  C           1     -21.589  -7.416  -5.357  0.00  0.00     0.081 C 
BRANCH  14  15
HETATM   15  C           1     -21.162  -6.215  -6.142  0.00  0.00    -0.056 A 
HETATM   16  C           1     -22.089  -5.223  -6.461  0.00  0.00     0.007 A 
HETATM   17  C           1     -21.691  -4.105  -7.193  0.00  0.00     0.001 A 
HETATM   18  C           1     -20.364  -3.978  -7.606  0.00  0.00     0.000 A 
HETATM   19  C           1     -19.436  -4.970  -7.286  0.00  0.00     0.001 A 
HETATM   20  C           1     -19.835  -6.088  -6.555  0.00  0.00     0.007 A 
ENDBRANCH  14  15
ENDBRANCH   1  14
BRANCH   1  21
HETATM   21  N           1     -20.557  -9.617  -5.783  0.00  0.00    -0.066 N 
HETATM   22  H           1     -20.232  -9.532  -6.772  0.00  0.00     0.275 HD
HETATM   23  H           1     -21.568  -9.885  -5.768  0.00  0.00     0.275 HD
HETATM   24  H           1     -19.996 -10.350  -5.293  0.00  0.00     0.275 HD
ENDBRANCH   1  21
TORSDOF 8
ENDMDL
MODEL 9
REMARK VINA RESULT:      -6.4      3.629      7.483
REMARK  8 active torsions:
REMARK  status: ('A' for Active; 'I' for Inactive)
REMARK    1  A    between atoms: C_4  and  C_20 
REMARK    2  A    between atoms: C_4  and  C_16 
REMARK    3  A    between atoms: C_4  and  N_14 
REMARK    4  A    between atoms: O_6  and  C_19 
REMARK    5  A    between atoms: C_8  and  C_16 
REMARK    6  A    between atoms: C_9  and  C_13 
REMARK    7  A    between atoms: C_13  and  C_19 
REMARK    8  A    between atoms: C_13  and  N_17 
REMARK       I    between atoms: N_17  and  C_20 
ROOT
HETATM    1  C           1     -21.604  -6.055  -6.457  0.00  0.00     0.278 C 
ENDROOT
BRANCH   1   2
HETATM    2  C           1     -20.762  -6.994  -5.629  0.00  0.00     0.249 C 
HETATM    3  N           1     -21.220  -7.433  -4.416  0.00  0.00    -0.343 N 
HETATM    4  H           1     -22.122  -7.128  -4.075  0.00  0.00     0.163 HD
HETATM    5  O           1     -19.685  -7.358  -6.037  0.00  0.00    -0.271 OA
BRANCH   3   6
HETATM    6  C           1     -20.410  -8.335  -3.620  0.00  0.00     0.214 C 
BRANCH   6   7
HETATM    7  C           1     -20.895  -9.751  -3.817  0.00  0.00     0.199 C 
HETATM    8  O           1     -22.121  -9.990  -3.871  0.00  0.00    -0.646 OA
HETATM    9  O           1     -20.071 -10.684  -3.924  0.00  0.00    -0.646 OA
ENDBRANCH   6   7
BRANCH   6  10
HETATM   10  C           1     -20.526  -7.960  -2.149  0.00  0.00     0.147 C 
HETATM   11  C           1     -21.687  -6.993  -1.961  0.00  0.00     0.042 C 
BRANCH  10  12
HETATM   12  O           1     -20.754  -9.117  -1.389  0.00  0.00    -0.393 OA
HETATM   13  H           1     -21.681  -9.160  -1.229  0.00  0.00     0.210 HD
ENDBRANCH  10  12
ENDBRANCH   6  10
ENDBRANCH   3   6
ENDBRANCH   1   2
BRANCH   1  14
HETATM   14  C           1     -20.766  -4.853  -6.873  0.00  0.00     0.081 C 
BRANCH  14  15
HETATM   15  C           1     -21.052  -4.514  -8.302  0.00  0.00    -0.056 A 
HETATM   16  C           1     -22.298  -4.000  -8.662  0.00  0.00     0.007 A 
HETATM   17  C           1     -22.563  -3.684  -9.994  0.00  0.00     0.001 A 
HETATM   18  C           1     -21.582  -3.881 -10.967  0.00  0.00     0.000 A 
HETATM   19  C           1     -20.336  -4.394 -10.607  0.00  0.00     0.001 A 
HETATM   20  C           1     -20.071  -4.710  -9.275  0.00  0.00     0.007 A 
ENDBRANCH  14  15
ENDBRANCH   1  14
BRANCH   1  21
HETATM   21  N           1     -22.777  -5.590  -5.646  0.00  0.00    -0.066 N 
HETATM   22  H           1     -23.609  -5.480  -6.269  0.00  0.00     0.275 HD
HETATM   23  H           1     -22.549  -4.672  -5.201  0.00  0.00     0.275 HD
HETATM   24  H           1     -22.989  -6.294  -4.903  0.00  0.00     0.275 HD
ENDBRANCH   1  21
TORSDOF 8
ENDMDL
