MODEL 1
REMARK VINA RESULT:      -6.7      0.000      0.000
REMARK  7 active torsions:
REMARK  status: ('A' for Active; 'I' for Inactive)
REMARK    1  A    between atoms: C_1  and  C_2 
REMARK    2  A    between atoms: C_1  and  C_6 
REMARK    3  A    between atoms: C_2  and  C_3 
REMARK    4  A    between atoms: C_2  and  N_12 
REMARK       I    between atoms: C_3  and  N_4 
REMARK    5  A    between atoms: C_5  and  C_24 
REMARK    6  A    between atoms: C_6  and  C_7 
REMARK    7  A    between atoms: C_7  and  N_8 
REMARK       I    between atoms: N_8  and  C_9 
REMARK       I    between atoms: C_9  and  N_10 
ROOT
HETATM    1  C           1     -20.590  -5.294  -7.194  0.00  0.00     0.275 C 
ENDROOT
BRANCH   1   2
HETATM    2  C           1     -21.201  -6.574  -6.638  0.00  0.00     0.044 C 
BRANCH   2   3
HETATM    3  C           1     -20.230  -7.215  -5.656  0.00  0.00     0.023 C 
BRANCH   3   4
HETATM    4  C           1     -21.008  -7.837  -4.504  0.00  0.00     0.138 C 
BRANCH   4   5
HETATM    5  N           1     -21.761  -6.790  -3.799  0.00  0.00    -0.227 N 
HETATM    6  C           1     -21.670  -6.682  -2.542  0.00  0.00     0.665 C 
HETATM    7  N           1     -22.319  -5.780  -1.935  0.00  0.00    -0.235 N 
HETATM    8  N           1     -20.908  -7.495  -1.874  0.00  0.00    -0.235 N 
HETATM    9  H           1     -22.243  -5.690  -0.892  0.00  0.00     0.174 HD
HETATM   10  H           1     -22.935  -5.123  -2.475  0.00  0.00     0.174 HD
HETATM   11  H           1     -20.831  -7.405  -0.835  0.00  0.00     0.174 HD
HETATM   12  H           1     -20.371  -8.239  -2.374  0.00  0.00     0.174 HD
HETATM   13  H           1     -22.377  -6.133  -4.340  0.00  0.00     0.177 HD
ENDBRANCH   4   5
ENDBRANCH   3   4
ENDBRANCH   2   3
ENDBRANCH   1   2
BRANCH   1  14
HETATM   14  C           1     -21.641  -4.523  -7.955  0.00  0.00     0.251 C 
HETATM   15  N           1     -21.536  -4.379  -9.313  0.00  0.00    -0.336 N 
HETATM   16  C           1     -22.450  -3.673 -10.206  0.00  0.00     0.188 C 
HETATM   17  C           1     -20.484  -4.898 -10.183  0.00  0.00     0.127 C 
HETATM   18  C           1     -21.527  -2.957 -11.177  0.00  0.00     0.038 C 
HETATM   19  C           1     -20.236  -3.766 -11.165  0.00  0.00     0.022 C 
HETATM   20  O           1     -22.576  -4.034  -7.367  0.00  0.00    -0.271 OA
BRANCH  16  21
HETATM   21  C           1     -23.347  -4.645 -10.933  0.00  0.00     0.196 C 
HETATM   22  O           1     -23.404  -4.628 -12.182  0.00  0.00    -0.646 OA
HETATM   23  O           1     -24.032  -5.466 -10.287  0.00  0.00    -0.646 OA
ENDBRANCH  16  21
ENDBRANCH   1  14
BRANCH   1  24
HETATM   24  N           1     -20.075  -4.453  -6.064  0.00  0.00    -0.067 N 
HETATM   25  H           1     -19.039  -4.349  -6.151  0.00  0.00     0.275 HD
HETATM   26  H           1     -20.523  -3.510  -6.100  0.00  0.00     0.275 HD
HETATM   27  H           1     -20.304  -4.915  -5.155  0.00  0.00     0.275 HD
ENDBRANCH   1  24
TORSDOF 7
ENDMDL
MODEL 2
REMARK VINA RESULT:      -6.2      3.169      7.242
REMARK  7 active torsions:
REMARK  status: ('A' for Active; 'I' for Inactive)
REMARK    1  A    between atoms: C_1  and  C_2 
REMARK    2  A    between atoms: C_1  and  C_6 
REMARK    3  A    between atoms: C_2  and  C_3 
REMARK    4  A    between atoms: C_2  and  N_12 
REMARK       I    between atoms: C_3  and  N_4 
REMARK    5  A    between atoms: C_5  and  C_24 
REMARK    6  A    between atoms: C_6  and  C_7 
REMARK    7  A    between atoms: C_7  and  N_8 
REMARK       I    between atoms: N_8  and  C_9 
REMARK       I    between atoms: C_9  and  N_10 
ROOT
HETATM    1  C           1     -21.016  -5.635  -5.693  0.00  0.00     0.275 C 
ENDROOT
BRANCH   1   2
HETATM    2  C           1     -21.343  -5.441  -7.168  0.00  0.00     0.044 C 
BRANCH   2   3
HETATM    3  C           1     -21.719  -3.986  -7.418  0.00  0.00     0.023 C 
BRANCH   3   4
HETATM    4  C           1     -22.263  -3.838  -8.832  0.00  0.00     0.138 C 
BRANCH   4   5
HETATM    5  N           1     -23.701  -3.534  -8.776  0.00  0.00    -0.227 N 
HETATM    6  C           1     -24.447  -3.824  -9.755  0.00  0.00     0.665 C 
HETATM    7  N           1     -25.685  -3.562  -9.707  0.00  0.00    -0.235 N 
HETATM    8  N           1     -23.944  -4.390 -10.811  0.00  0.00    -0.235 N 
HETATM    9  H           1     -26.305  -3.803 -10.520  0.00  0.00     0.174 HD
HETATM   10  H           1     -26.092  -3.104  -8.854  0.00  0.00     0.174 HD
HETATM   11  H           1     -24.561  -4.630 -11.620  0.00  0.00     0.174 HD
HETATM   12  H           1     -22.922  -4.607 -10.852  0.00  0.00     0.174 HD
HETATM   13  H           1     -24.107  -3.076  -7.922  0.00  0.00     0.177 HD
ENDBRANCH   4   5
ENDBRANCH   3   4
ENDBRANCH   2   3
ENDBRANCH   1   2
BRANCH   1  14
HETATM   14  C           1     -20.320  -6.960  -5.501  0.00  0.00     0.251 C 
HETATM   15  N           1     -20.556  -7.701  -4.375  0.00  0.00    -0.336 N 
HETATM   16  C           1     -19.977  -8.995  -4.023  0.00  0.00     0.188 C 
HETATM   17  C           1     -21.441  -7.369  -3.262  0.00  0.00     0.127 C 
HETATM   18  C           1     -19.693  -8.872  -2.536  0.00  0.00     0.038 C 
HETATM   19  C           1     -20.660  -7.807  -2.034  0.00  0.00     0.022 C 
HETATM   20  O           1     -19.554  -7.368  -6.343  0.00  0.00    -0.271 OA
BRANCH  16  21
HETATM   21  C           1     -20.954 -10.111  -4.294  0.00  0.00     0.196 C 
HETATM   22  O           1     -21.311 -10.359  -5.466  0.00  0.00    -0.646 OA
HETATM   23  O           1     -21.408 -10.788  -3.346  0.00  0.00    -0.646 OA
ENDBRANCH  16  21
ENDBRANCH   1  14
BRANCH   1  24
HETATM   24  N           1     -20.117  -4.527  -5.230  0.00  0.00    -0.067 N 
HETATM   25  H           1     -19.541  -4.859  -4.423  0.00  0.00     0.275 HD
HETATM   26  H           1     -19.486  -4.241  -6.011  0.00  0.00     0.275 HD
HETATM   27  H           1     -20.697  -3.711  -4.931  0.00  0.00     0.275 HD
ENDBRANCH   1  24
TORSDOF 7
ENDMDL
MODEL 3
REMARK VINA RESULT:      -6.2      1.830      2.506
REMARK  7 active torsions:
REMARK  status: ('A' for Active; 'I' for Inactive)
REMARK    1  A    between atoms: C_1  and  C_2 
REMARK    2  A    between atoms: C_1  and  C_6 
REMARK    3  A    between atoms: C_2  and  C_3 
REMARK    4  A    between atoms: C_2  and  N_12 
REMARK       I    between atoms: C_3  and  N_4 
REMARK    5  A    between atoms: C_5  and  C_24 
REMARK    6  A    between atoms: C_6  and  C_7 
REMARK    7  A    between atoms: C_7  and  N_8 
REMARK       I    between atoms: N_8  and  C_9 
REMARK       I    between atoms: C_9  and  N_10 
ROOT
HETATM    1  C           1     -22.000  -4.826  -6.580  0.00  0.00     0.275 C 
ENDROOT
BRANCH   1   2
HETATM    2  C           1     -21.066  -5.591  -5.651  0.00  0.00     0.044 C 
BRANCH   2   3
HETATM    3  C           1     -21.879  -6.266  -4.555  0.00  0.00     0.023 C 
BRANCH   3   4
HETATM    4  C           1     -21.275  -5.935  -3.197  0.00  0.00     0.138 C 
BRANCH   4   5
HETATM    5  N           1     -22.255  -6.224  -2.140  0.00  0.00    -0.227 N 
HETATM    6  C           1     -22.013  -7.118  -1.279  0.00  0.00     0.665 C 
HETATM    7  N           1     -22.858  -7.366  -0.369  0.00  0.00    -0.235 N 
HETATM    8  N           1     -20.897  -7.782  -1.328  0.00  0.00    -0.235 N 
HETATM    9  H           1     -22.656  -8.109   0.346  0.00  0.00     0.174 HD
HETATM   10  H           1     -23.759  -6.831  -0.329  0.00  0.00     0.174 HD
HETATM   11  H           1     -20.696  -8.521  -0.616  0.00  0.00     0.174 HD
HETATM   12  H           1     -20.199  -7.577  -2.079  0.00  0.00     0.174 HD
HETATM   13  H           1     -23.157  -5.687  -2.101  0.00  0.00     0.177 HD
ENDBRANCH   4   5
ENDBRANCH   3   4
ENDBRANCH   2   3
ENDBRANCH   1   2
BRANCH   1  14
HETATM   14  C           1     -21.645  -5.131  -8.015  0.00  0.00     0.251 C 
HETATM   15  N           1     -22.320  -4.514  -9.033  0.00  0.00    -0.336 N 
HETATM   16  C           1     -22.114  -4.684 -10.469  0.00  0.00     0.188 C 
HETATM   17  C           1     -23.403  -3.541  -8.920  0.00  0.00     0.127 C 
HETATM   18  C           1     -23.523  -4.702 -11.037  0.00  0.00     0.038 C 
HETATM   19  C           1     -24.370  -3.946 -10.021  0.00  0.00     0.022 C 
HETATM   20  O           1     -20.764  -5.920  -8.265  0.00  0.00    -0.271 OA
BRANCH  16  21
HETATM   21  C           1     -21.320  -3.534 -11.037  0.00  0.00     0.196 C 
HETATM   22  O           1     -20.134  -3.358 -10.683  0.00  0.00    -0.646 OA
HETATM   23  O           1     -21.848  -2.757 -11.862  0.00  0.00    -0.646 OA
ENDBRANCH  16  21
ENDBRANCH   1  14
BRANCH   1  24
HETATM   24  N           1     -23.417  -5.244  -6.318  0.00  0.00    -0.067 N 
HETATM   25  H           1     -24.006  -5.023  -7.153  0.00  0.00     0.275 HD
HETATM   26  H           1     -23.449  -6.270  -6.132  0.00  0.00     0.275 HD
HETATM   27  H           1     -23.784  -4.726  -5.487  0.00  0.00     0.275 HD
ENDBRANCH   1  24
TORSDOF 7
ENDMDL
MODEL 4
REMARK VINA RESULT:      -6.1      3.223      7.601
REMARK  7 active torsions:
REMARK  status: ('A' for Active; 'I' for Inactive)
REMARK    1  A    between atoms: C_1  and  C_2 
REMARK    2  A    between atoms: C_1  and  C_6 
REMARK    3  A    between atoms: C_2  and  C_3 
REMARK    4  A    between atoms: C_2  and  N_12 
REMARK       I    between atoms: C_3  and  N_4 
REMARK    5  A    between atoms: C_5  and  C_24 
REMARK    6  A    between atoms: C_6  and  C_7 
REMARK    7  A    between atoms: C_7  and  N_8 
REMARK       I    between atoms: N_8  and  C_9 
REMARK       I    between atoms: C_9  and  N_10 
ROOT
HETATM    1  C           1     -20.086  -7.306  -5.185  0.00  0.00     0.275 C 
ENDROOT
BRANCH   1   2
HETATM    2  C           1     -20.536  -6.406  -6.329  0.00  0.00     0.044 C 
BRANCH   2   3
HETATM    3  C           1     -20.360  -4.948  -5.929  0.00  0.00     0.023 C 
BRANCH   3   4
HETATM    4  C           1     -20.650  -4.053  -7.126  0.00  0.00     0.138 C 
BRANCH   4   5
HETATM    5  N           1     -22.096  -3.807  -7.216  0.00  0.00    -0.227 N 
HETATM    6  C           1     -22.725  -4.109  -8.271  0.00  0.00     0.665 C 
HETATM    7  N           1     -23.971  -3.897  -8.348  0.00  0.00    -0.235 N 
HETATM    8  N           1     -22.093  -4.637  -9.276  0.00  0.00    -0.235 N 
HETATM    9  H           1     -24.493  -4.147  -9.225  0.00  0.00     0.174 HD
HETATM   10  H           1     -24.483  -3.470  -7.537  0.00  0.00     0.174 HD
HETATM   11  H           1     -22.613  -4.887 -10.148  0.00  0.00     0.174 HD
HETATM   12  H           1     -21.064  -4.813  -9.213  0.00  0.00     0.174 HD
HETATM   13  H           1     -22.607  -3.380  -6.403  0.00  0.00     0.177 HD
ENDBRANCH   4   5
ENDBRANCH   3   4
ENDBRANCH   2   3
ENDBRANCH   1   2
BRANCH   1  14
HETATM   14  C           1     -21.262  -7.607  -4.289  0.00  0.00     0.251 C 
HETATM   15  N           1     -21.053  -8.082  -3.022  0.00  0.00    -0.336 N 
HETATM   16  C           1     -22.062  -8.426  -2.023  0.00  0.00     0.188 C 
HETATM   17  C           1     -19.773  -8.355  -2.375  0.00  0.00     0.127 C 
HETATM   18  C           1     -21.525  -9.698  -1.390  0.00  0.00     0.038 C 
HETATM   19  C           1     -20.019  -9.649  -1.617  0.00  0.00     0.022 C 
HETATM   20  O           1     -22.389  -7.429  -4.689  0.00  0.00    -0.271 OA
BRANCH  16  21
HETATM   21  C           1     -22.196  -7.329  -0.996  0.00  0.00     0.196 C 
HETATM   22  O           1     -22.410  -6.153  -1.362  0.00  0.00    -0.646 OA
HETATM   23  O           1     -22.092  -7.597   0.220  0.00  0.00    -0.646 OA
ENDBRANCH  16  21
ENDBRANCH   1  14
BRANCH   1  24
HETATM   24  N           1     -19.542  -8.588  -5.742  0.00  0.00    -0.067 N 
HETATM   25  H           1     -18.520  -8.480  -5.932  0.00  0.00     0.275 HD
HETATM   26  H           1     -19.687  -9.357  -5.051  0.00  0.00     0.275 HD
HETATM   27  H           1     -20.039  -8.819  -6.632  0.00  0.00     0.275 HD
ENDBRANCH   1  24
TORSDOF 7
ENDMDL
MODEL 5
REMARK VINA RESULT:      -5.9      1.760      2.196
REMARK  7 active torsions:
REMARK  status: ('A' for Active; 'I' for Inactive)
REMARK    1  A    between atoms: C_1  and  C_2 
REMARK    2  A    between atoms: C_1  and  C_6 
REMARK    3  A    between atoms: C_2  and  C_3 
REMARK    4  A    between atoms: C_2  and  N_12 
REMARK       I    between atoms: C_3  and  N_4 
REMARK    5  A    between atoms: C_5  and  C_24 
REMARK    6  A    between atoms: C_6  and  C_7 
REMARK    7  A    between atoms: C_7  and  N_8 
REMARK       I    between atoms: N_8  and  C_9 
REMARK       I    between atoms: C_9  and  N_10 
ROOT
HETATM    1  C           1     -20.472  -5.264  -7.296  0.00  0.00     0.275 C 
ENDROOT
BRANCH   1   2
HETATM    2  C           1     -20.890  -5.460  -5.844  0.00  0.00     0.044 C 
BRANCH   2   3
HETATM    3  C           1     -20.351  -6.790  -5.335  0.00  0.00     0.023 C 
BRANCH   3   4
HETATM    4  C           1     -21.478  -7.814  -5.296  0.00  0.00     0.138 C 
BRANCH   4   5
HETATM    5  N           1     -20.987  -9.103  -5.804  0.00  0.00    -0.227 N 
HETATM    6  C           1     -21.102 -10.147  -5.098  0.00  0.00     0.665 C 
HETATM    7  N           1     -20.680 -11.257  -5.536  0.00  0.00    -0.235 N 
HETATM    8  N           1     -21.655 -10.079  -3.924  0.00  0.00    -0.235 N 
HETATM    9  H           1     -20.775 -12.123  -4.950  0.00  0.00     0.174 HD
HETATM   10  H           1     -20.233 -11.312  -6.484  0.00  0.00     0.174 HD
HETATM   11  H           1     -21.750 -10.942  -3.341  0.00  0.00     0.174 HD
HETATM   12  H           1     -22.004  -9.163  -3.562  0.00  0.00     0.174 HD
HETATM   13  H           1     -20.541  -9.157  -6.753  0.00  0.00     0.177 HD
ENDBRANCH   4   5
ENDBRANCH   3   4
ENDBRANCH   2   3
ENDBRANCH   1   2
BRANCH   1  14
HETATM   14  C           1     -21.539  -4.487  -8.027  0.00  0.00     0.251 C 
HETATM   15  N           1     -21.478  -4.357  -9.389  0.00  0.00    -0.336 N 
HETATM   16  C           1     -22.414  -3.647 -10.256  0.00  0.00     0.188 C 
HETATM   17  C           1     -20.464  -4.896 -10.289  0.00  0.00     0.127 C 
HETATM   18  C           1     -21.516  -2.951 -11.265  0.00  0.00     0.038 C 
HETATM   19  C           1     -20.235  -3.776 -11.290  0.00  0.00     0.022 C 
HETATM   20  O           1     -22.447  -3.981  -7.411  0.00  0.00    -0.271 OA
BRANCH  16  21
HETATM   21  C           1     -23.347  -4.613 -10.943  0.00  0.00     0.196 C 
HETATM   22  O           1     -23.450  -4.605 -12.189  0.00  0.00    -0.646 OA
HETATM   23  O           1     -24.018  -5.422 -10.267  0.00  0.00    -0.646 OA
ENDBRANCH  16  21
ENDBRANCH   1  14
BRANCH   1  24
HETATM   24  N           1     -19.179  -4.505  -7.346  0.00  0.00    -0.067 N 
HETATM   25  H           1     -19.369  -3.484  -7.229  0.00  0.00     0.275 HD
HETATM   26  H           1     -18.554  -4.832  -6.576  0.00  0.00     0.275 HD
HETATM   27  H           1     -18.715  -4.669  -8.268  0.00  0.00     0.275 HD
ENDBRANCH   1  24
TORSDOF 7
ENDMDL
MODEL 6
REMARK VINA RESULT:      -5.9      3.063      7.146
REMARK  7 active torsions:
REMARK  status: ('A' for Active; 'I' for Inactive)
REMARK    1  A    between atoms: C_1  and  C_2 
REMARK    2  A    between atoms: C_1  and  C_6 
REMARK    3  A    between atoms: C_2  and  C_3 
REMARK    4  A    between atoms: C_2  and  N_12 
REMARK       I    between atoms: C_3  and  N_4 
REMARK    5  A    between atoms: C_5  and  C_24 
REMARK    6  A    between atoms: C_6  and  C_7 
REMARK    7  A    between atoms: C_7  and  N_8 
REMARK       I    between atoms: N_8  and  C_9 
REMARK       I    between atoms: C_9  and  N_10 
ROOT
HETATM    1  C           1     -20.167  -5.749  -6.014  0.00  0.00     0.275 C 
ENDROOT
BRANCH   1   2
HETATM    2  C           1     -20.677  -4.328  -6.221  0.00  0.00     0.044 C 
BRANCH   2   3
HETATM    3  C           1     -21.048  -4.130  -7.685  0.00  0.00     0.023 C 
BRANCH   3   4
HETATM    4  C           1     -22.564  -4.117  -7.827  0.00  0.00     0.138 C 
BRANCH   4   5
HETATM    5  N           1     -22.933  -4.542  -9.185  0.00  0.00    -0.227 N 
HETATM    6  C           1     -23.965  -4.063  -9.739  0.00  0.00     0.665 C 
HETATM    7  N           1     -24.282  -4.429 -10.910  0.00  0.00    -0.235 N 
HETATM    8  N           1     -24.698  -3.195  -9.109  0.00  0.00    -0.235 N 
HETATM    9  H           1     -25.139  -4.031 -11.370  0.00  0.00     0.174 HD
HETATM   10  H           1     -23.690  -5.130 -11.419  0.00  0.00     0.174 HD
HETATM   11  H           1     -25.550  -2.799  -9.567  0.00  0.00     0.174 HD
HETATM   12  H           1     -24.436  -2.892  -8.143  0.00  0.00     0.174 HD
HETATM   13  H           1     -22.340  -5.243  -9.695  0.00  0.00     0.177 HD
ENDBRANCH   4   5
ENDBRANCH   3   4
ENDBRANCH   2   3
ENDBRANCH   1   2
BRANCH   1  14
HETATM   14  C           1     -21.153  -6.519  -5.170  0.00  0.00     0.251 C 
HETATM   15  N           1     -20.816  -7.751  -4.677  0.00  0.00    -0.336 N 
HETATM   16  C           1     -21.635  -8.633  -3.850  0.00  0.00     0.188 C 
HETATM   17  C           1     -19.559  -8.470  -4.865  0.00  0.00     0.127 C 
HETATM   18  C           1     -21.361 -10.016  -4.415  0.00  0.00     0.038 C 
HETATM   19  C           1     -19.993  -9.910  -5.078  0.00  0.00     0.022 C 
HETATM   20  O           1     -22.239  -6.049  -4.929  0.00  0.00    -0.271 OA
BRANCH  16  21
HETATM   21  C           1     -21.218  -8.551  -2.402  0.00  0.00     0.196 C 
HETATM   22  O           1     -21.101  -7.437  -1.848  0.00  0.00    -0.646 OA
HETATM   23  O           1     -20.990  -9.597  -1.758  0.00  0.00    -0.646 OA
ENDBRANCH  16  21
ENDBRANCH   1  14
BRANCH   1  24
HETATM   24  N           1     -20.014  -6.424  -7.344  0.00  0.00    -0.067 N 
HETATM   25  H           1     -19.379  -5.859  -7.952  0.00  0.00     0.275 HD
HETATM   26  H           1     -19.607  -7.376  -7.207  0.00  0.00     0.275 HD
HETATM   27  H           1     -20.950  -6.507  -7.802  0.00  0.00     0.275 HD
ENDBRANCH   1  24
TORSDOF 7
ENDMDL
MODEL 7
REMARK VINA RESULT:      -5.9      2.267      3.095
REMARK  7 active torsions:
REMARK  status: ('A' for Active; 'I' for Inactive)
REMARK    1  A    between atoms: C_1  and  C_2 
REMARK    2  A    between atoms: C_1  and  C_6 
REMARK    3  A    between atoms: C_2  and  C_3 
REMARK    4  A    between atoms: C_2  and  N_12 
REMARK       I    between atoms: C_3  and  N_4 
REMARK    5  A    between atoms: C_5  and  C_24 
REMARK    6  A    between atoms: C_6  and  C_7 
REMARK    7  A    between atoms: C_7  and  N_8 
REMARK       I    between atoms: N_8  and  C_9 
REMARK       I    between atoms: C_9  and  N_10 
ROOT
HETATM    1  C           1     -22.002  -4.569  -6.769  0.00  0.00     0.275 C 
ENDROOT
BRANCH   1   2
HETATM    2  C           1     -21.081  -5.269  -5.777  0.00  0.00     0.044 C 
BRANCH   2   3
HETATM    3  C           1     -21.834  -6.407  -5.102  0.00  0.00     0.023 C 
BRANCH   3   4
HETATM    4  C           1     -20.839  -7.355  -4.444  0.00  0.00     0.138 C 
BRANCH   4   5
HETATM    5  N           1     -20.067  -8.053  -5.482  0.00  0.00    -0.227 N 
HETATM    6  C           1     -19.152  -8.862  -5.153  0.00  0.00     0.665 C 
HETATM    7  N           1     -18.487  -9.464  -6.047  0.00  0.00    -0.235 N 
HETATM    8  N           1     -18.895  -9.076  -3.897  0.00  0.00    -0.235 N 
HETATM    9  H           1     -17.727 -10.135  -5.774  0.00  0.00     0.174 HD
HETATM   10  H           1     -18.695  -9.291  -7.062  0.00  0.00     0.174 HD
HETATM   11  H           1     -18.138  -9.745  -3.626  0.00  0.00     0.174 HD
HETATM   12  H           1     -19.443  -8.581  -3.159  0.00  0.00     0.174 HD
HETATM   13  H           1     -20.276  -7.880  -6.497  0.00  0.00     0.177 HD
ENDBRANCH   4   5
ENDBRANCH   3   4
ENDBRANCH   2   3
ENDBRANCH   1   2
BRANCH   1  14
HETATM   14  C           1     -21.662  -5.012  -8.171  0.00  0.00     0.251 C 
HETATM   15  N           1     -22.329  -4.476  -9.239  0.00  0.00    -0.336 N 
HETATM   16  C           1     -22.136  -4.782 -10.654  0.00  0.00     0.188 C 
HETATM   17  C           1     -23.390  -3.473  -9.212  0.00  0.00     0.127 C 
HETATM   18  C           1     -23.548  -4.821 -11.212  0.00  0.00     0.038 C 
HETATM   19  C           1     -24.372  -3.955 -10.267  0.00  0.00     0.022 C 
HETATM   20  O           1     -20.800  -5.840  -8.351  0.00  0.00    -0.271 OA
BRANCH  16  21
HETATM   21  C           1     -21.319  -3.708 -11.329  0.00  0.00     0.196 C 
HETATM   22  O           1     -20.241  -3.330 -10.821  0.00  0.00    -0.646 OA
HETATM   23  O           1     -21.721  -3.196 -12.396  0.00  0.00    -0.646 OA
ENDBRANCH  16  21
ENDBRANCH   1  14
BRANCH   1  24
HETATM   24  N           1     -23.427  -4.924  -6.465  0.00  0.00    -0.067 N 
HETATM   25  H           1     -24.047  -4.118  -6.706  0.00  0.00     0.275 HD
HETATM   26  H           1     -23.706  -5.757  -7.029  0.00  0.00     0.275 HD
HETATM   27  H           1     -23.521  -5.143  -5.447  0.00  0.00     0.275 HD
ENDBRANCH   1  24
TORSDOF 7
ENDMDL
MODEL 8
REMARK VINA RESULT:      -5.9      4.263      8.702
REMARK  7 active torsions:
REMARK  status: ('A' for Active; 'I' for Inactive)
REMARK    1  A    between atoms: C_1  and  C_2 
REMARK    2  A    between atoms: C_1  and  C_6 
REMARK    3  A    between atoms: C_2  and  C_3 
REMARK    4  A    between atoms: C_2  and  N_12 
REMARK       I    between atoms: C_3  and  N_4 
REMARK    5  A    between atoms: C_5  and  C_24 
REMARK    6  A    between atoms: C_6  and  C_7 
REMARK    7  A    between atoms: C_7  and  N_8 
REMARK       I    between atoms: N_8  and  C_9 
REMARK       I    between atoms: C_9  and  N_10 
ROOT
HETATM    1  C           1     -21.946  -6.906  -3.127  0.00  0.00     0.275 C 
ENDROOT
BRANCH   1   2
HETATM    2  C           1     -21.634  -6.904  -4.618  0.00  0.00     0.044 C 
BRANCH   2   3
HETATM    3  C           1     -20.847  -5.650  -4.971  0.00  0.00     0.023 C 
BRANCH   3   4
HETATM    4  C           1     -20.995  -5.358  -6.458  0.00  0.00     0.138 C 
BRANCH   4   5
HETATM    5  N           1     -22.363  -4.896  -6.734  0.00  0.00    -0.227 N 
HETATM    6  C           1     -22.646  -4.388  -7.857  0.00  0.00     0.665 C 
HETATM    7  N           1     -23.825  -3.990  -8.094  0.00  0.00    -0.235 N 
HETATM    8  N           1     -21.727  -4.276  -8.769  0.00  0.00    -0.235 N 
HETATM    9  H           1     -24.059  -3.569  -9.028  0.00  0.00     0.174 HD
HETATM   10  H           1     -24.567  -4.081  -7.358  0.00  0.00     0.174 HD
HETATM   11  H           1     -21.960  -3.857  -9.698  0.00  0.00     0.174 HD
HETATM   12  H           1     -20.754  -4.605  -8.575  0.00  0.00     0.174 HD
HETATM   13  H           1     -23.106  -4.987  -5.996  0.00  0.00     0.177 HD
ENDBRANCH   4   5
ENDBRANCH   3   4
ENDBRANCH   2   3
ENDBRANCH   1   2
BRANCH   1  14
HETATM   14  C           1     -21.184  -8.022  -2.454  0.00  0.00     0.251 C 
HETATM   15  N           1     -21.573  -8.470  -1.220  0.00  0.00    -0.336 N 
HETATM   16  C           1     -20.961  -9.531  -0.425  0.00  0.00     0.188 C 
HETATM   17  C           1     -22.691  -7.990  -0.412  0.00  0.00     0.127 C 
HETATM   18  C           1     -20.994  -8.986   0.992  0.00  0.00     0.038 C 
HETATM   19  C           1     -22.135  -7.976   1.002  0.00  0.00     0.022 C 
HETATM   20  O           1     -20.231  -8.521  -3.005  0.00  0.00    -0.271 OA
BRANCH  16  21
HETATM   21  C           1     -21.758 -10.807  -0.530  0.00  0.00     0.196 C 
HETATM   22  O           1     -22.046 -11.451   0.503  0.00  0.00    -0.646 OA
HETATM   23  O           1     -22.130 -11.222  -1.649  0.00  0.00    -0.646 OA
ENDBRANCH  16  21
ENDBRANCH   1  14
BRANCH   1  24
HETATM   24  N           1     -21.537  -5.593  -2.529  0.00  0.00    -0.067 N 
HETATM   25  H           1     -22.383  -4.993  -2.394  0.00  0.00     0.275 HD
HETATM   26  H           1     -21.078  -5.758  -1.606  0.00  0.00     0.275 HD
HETATM   27  H           1     -20.868  -5.111  -3.172  0.00  0.00     0.275 HD
ENDBRANCH   1  24
TORSDOF 7
ENDMDL
MODEL 9
REMARK VINA RESULT:      -5.8      5.267      9.101
REMARK  7 active torsions:
REMARK  status: ('A' for Active; 'I' for Inactive)
REMARK    1  A    between atoms: C_1  and  C_2 
REMARK    2  A    between atoms: C_1  and  C_6 
REMARK    3  A    between atoms: C_2  and  C_3 
REMARK    4  A    between atoms: C_2  and  N_12 
REMARK       I    between atoms: C_3  and  N_4 
REMARK    5  A    between atoms: C_5  and  C_24 
REMARK    6  A    between atoms: C_6  and  C_7 
REMARK    7  A    between atoms: C_7  and  N_8 
REMARK       I    between atoms: N_8  and  C_9 
REMARK       I    between atoms: C_9  and  N_10 
ROOT
HETATM    1  C           1     -21.926  -7.448  -2.106  0.00  0.00     0.275 C 
ENDROOT
BRANCH   1   2
HETATM    2  C           1     -20.449  -7.490  -2.480  0.00  0.00     0.044 C 
BRANCH   2   3
HETATM    3  C           1     -20.261  -8.370  -3.709  0.00  0.00     0.023 C 
BRANCH   3   4
HETATM    4  C           1     -21.425  -8.158  -4.668  0.00  0.00     0.138 C 
BRANCH   4   5
HETATM    5  N           1     -20.922  -7.620  -5.940  0.00  0.00    -0.227 N 
HETATM    6  C           1     -21.252  -6.456  -6.309  0.00  0.00     0.665 C 
HETATM    7  N           1     -20.818  -5.993  -7.405  0.00  0.00    -0.235 N 
HETATM    8  N           1     -22.035  -5.735  -5.564  0.00  0.00    -0.235 N 
HETATM    9  H           1     -21.092  -5.026  -7.712  0.00  0.00     0.174 HD
HETATM   10  H           1     -20.185  -6.575  -8.007  0.00  0.00     0.174 HD
HETATM   11  H           1     -22.307  -4.773  -5.869  0.00  0.00     0.174 HD
HETATM   12  H           1     -22.393  -6.117  -4.659  0.00  0.00     0.174 HD
HETATM   13  H           1     -20.288  -8.203  -6.542  0.00  0.00     0.177 HD
ENDBRANCH   4   5
ENDBRANCH   3   4
ENDBRANCH   2   3
ENDBRANCH   1   2
BRANCH   1  14
HETATM   14  C           1     -22.137  -8.181  -0.804  0.00  0.00     0.251 C 
HETATM   15  N           1     -22.430  -9.518  -0.811  0.00  0.00    -0.336 N 
HETATM   16  C           1     -22.665 -10.383   0.342  0.00  0.00     0.188 C 
HETATM   17  C           1     -22.577 -10.390  -1.973  0.00  0.00     0.127 C 
HETATM   18  C           1     -23.824 -11.262  -0.095  0.00  0.00     0.038 C 
HETATM   19  C           1     -23.763 -11.270  -1.618  0.00  0.00     0.022 C 
HETATM   20  O           1     -22.046  -7.588   0.245  0.00  0.00    -0.271 OA
BRANCH  16  21
HETATM   21  C           1     -21.444 -11.216   0.645  0.00  0.00     0.196 C 
HETATM   22  O           1     -20.323 -10.671   0.738  0.00  0.00    -0.646 OA
HETATM   23  O           1     -21.553 -12.451   0.804  0.00  0.00    -0.646 OA
ENDBRANCH  16  21
ENDBRANCH   1  14
BRANCH   1  24
HETATM   24  N           1     -22.361  -6.021  -1.952  0.00  0.00    -0.067 N 
HETATM   25  H           1     -22.420  -5.782  -0.936  0.00  0.00     0.275 HD
HETATM   26  H           1     -21.669  -5.393  -2.417  0.00  0.00     0.275 HD
HETATM   27  H           1     -23.301  -5.895  -2.393  0.00  0.00     0.275 HD
ENDBRANCH   1  24
TORSDOF 7
ENDMDL
