MODEL 1
REMARK VINA RESULT:      -6.1      0.000      0.000
REMARK  11 active torsions:
REMARK  status: ('A' for Active; 'I' for Inactive)
REMARK    1  A    between atoms: C_2  and  N_19 
REMARK    2  A    between atoms: C_2  and  C_17 
REMARK    3  A    between atoms: C_4  and  C_10 
REMARK    4  A    between atoms: C_4  and  O_5 
REMARK    5  A    between atoms: N_6  and  C_10 
REMARK       I    between atoms: C_7  and  N_8 
REMARK    6  A    between atoms: C_7  and  C_10 
REMARK    7  A    between atoms: N_8  and  C_21 
REMARK    8  A    between atoms: C_9  and  C_17 
REMARK    9  A    between atoms: C_9  and  C_22 
REMARK   10  A    between atoms: C_21  and  C_22 
REMARK   11  A    between atoms: C_21  and  C_24 
ROOT
HETATM    1  C           1     -25.312  -6.769 -19.046  0.00  0.00     0.251 C 
HETATM    2  N           1     -26.444  -6.594 -18.297  0.00  0.00    -0.345 N 
HETATM    3  O           1     -24.237  -6.442 -18.601  0.00  0.00    -0.271 OA
HETATM    4  H           1     -27.344  -6.868 -18.670  0.00  0.00     0.163 HD
ENDROOT
BRANCH   2   5
HETATM    5  C           1     -26.354  -6.019 -16.969  0.00  0.00     0.185 C 
BRANCH   5   6
HETATM    6  C           1     -27.590  -5.172 -16.698  0.00  0.00     0.036 C 
BRANCH   6   7
HETATM    7  C           1     -28.567  -5.314 -17.858  0.00  0.00     0.004 C 
BRANCH   7   8
HETATM    8  C           1     -29.883  -5.885 -17.348  0.00  0.00     0.027 C 
BRANCH   8   9
HETATM    9  C           1     -30.176  -7.201 -18.058  0.00  0.00     0.229 C 
BRANCH   9  10
HETATM   10  N           1     -29.391  -8.303 -17.413  0.00  0.00    -0.079 N 
HETATM   11  H           1     -28.377  -8.052 -17.409  0.00  0.00     0.274 HD
HETATM   12  H           1     -29.721  -8.437 -16.430  0.00  0.00     0.274 HD
HETATM   13  H           1     -29.527  -9.190 -17.950  0.00  0.00     0.274 HD
ENDBRANCH   9  10
ENDBRANCH   8   9
ENDBRANCH   7   8
ENDBRANCH   6   7
ENDBRANCH   5   6
BRANCH   5  14
HETATM   14  C           1     -26.267  -7.126 -15.946  0.00  0.00     0.196 C 
HETATM   15  O           1     -25.159  -7.628 -15.662  0.00  0.00    -0.646 OA
HETATM   16  O           1     -27.303  -7.538 -15.383  0.00  0.00    -0.646 OA
ENDBRANCH   5  14
ENDBRANCH   2   5
BRANCH   1  17
HETATM   17  C           1     -25.406  -7.368 -20.428  0.00  0.00     0.297 C 
BRANCH  17  18
HETATM   18  C           1     -26.839  -7.809 -20.694  0.00  0.00     0.206 C 
BRANCH  18  19
HETATM   19  O           1     -26.840  -8.851 -21.632  0.00  0.00    -0.398 OA
HETATM   20  H           1     -27.731  -8.960 -21.918  0.00  0.00     0.209 HD
ENDBRANCH  18  19
ENDBRANCH  17  18
BRANCH  17  21
HETATM   21  N           1     -24.493  -8.555 -20.521  0.00  0.00    -0.064 N 
HETATM   22  H           1     -24.300  -8.769 -21.526  0.00  0.00     0.275 HD
HETATM   23  H           1     -23.593  -8.341 -20.032  0.00  0.00     0.275 HD
HETATM   24  H           1     -24.947  -9.379 -20.069  0.00  0.00     0.275 HD
ENDBRANCH  17  21
ENDBRANCH   1  17
TORSDOF 11
ENDMDL
MODEL 2
REMARK VINA RESULT:      -5.9     10.431     11.394
REMARK  11 active torsions:
REMARK  status: ('A' for Active; 'I' for Inactive)
REMARK    1  A    between atoms: C_2  and  N_19 
REMARK    2  A    between atoms: C_2  and  C_17 
REMARK    3  A    between atoms: C_4  and  C_10 
REMARK    4  A    between atoms: C_4  and  O_5 
REMARK    5  A    between atoms: N_6  and  C_10 
REMARK       I    between atoms: C_7  and  N_8 
REMARK    6  A    between atoms: C_7  and  C_10 
REMARK    7  A    between atoms: N_8  and  C_21 
REMARK    8  A    between atoms: C_9  and  C_17 
REMARK    9  A    between atoms: C_9  and  C_22 
REMARK   10  A    between atoms: C_21  and  C_22 
REMARK   11  A    between atoms: C_21  and  C_24 
ROOT
HETATM    1  C           1     -35.892  -0.832 -13.724  0.00  0.00     0.251 C 
HETATM    2  N           1     -34.796  -1.514 -13.268  0.00  0.00    -0.345 N 
HETATM    3  O           1     -36.977  -1.037 -13.235  0.00  0.00    -0.271 OA
HETATM    4  H           1     -33.887  -1.343 -13.677  0.00  0.00     0.163 HD
ENDROOT
BRANCH   2   5
HETATM    5  C           1     -34.939  -2.482 -12.197  0.00  0.00     0.185 C 
BRANCH   5   6
HETATM    6  C           1     -34.074  -3.699 -12.495  0.00  0.00     0.036 C 
BRANCH   6   7
HETATM    7  C           1     -34.760  -4.952 -11.965  0.00  0.00     0.004 C 
BRANCH   7   8
HETATM    8  C           1     -33.862  -5.627 -10.938  0.00  0.00     0.027 C 
BRANCH   8   9
HETATM    9  C           1     -34.672  -6.644 -10.144  0.00  0.00     0.229 C 
BRANCH   9  10
HETATM   10  N           1     -34.762  -7.926 -10.917  0.00  0.00    -0.079 N 
HETATM   11  H           1     -33.946  -8.000 -11.565  0.00  0.00     0.274 HD
HETATM   12  H           1     -34.755  -8.734 -10.254  0.00  0.00     0.274 HD
HETATM   13  H           1     -35.647  -7.938 -11.472  0.00  0.00     0.274 HD
ENDBRANCH   9  10
ENDBRANCH   8   9
ENDBRANCH   7   8
ENDBRANCH   6   7
ENDBRANCH   5   6
BRANCH   5  14
HETATM   14  C           1     -34.500  -1.858 -10.894  0.00  0.00     0.196 C 
HETATM   15  O           1     -33.293  -1.871 -10.571  0.00  0.00    -0.646 OA
HETATM   16  O           1     -35.343  -1.330 -10.139  0.00  0.00    -0.646 OA
ENDBRANCH   5  14
ENDBRANCH   2   5
BRANCH   1  17
HETATM   17  C           1     -35.743   0.175 -14.838  0.00  0.00     0.297 C 
BRANCH  17  18
HETATM   18  C           1     -35.989  -0.508 -16.177  0.00  0.00     0.206 C 
BRANCH  18  19
HETATM   19  O           1     -35.775  -1.887 -16.045  0.00  0.00    -0.398 OA
HETATM   20  H           1     -35.908  -2.268 -16.896  0.00  0.00     0.209 HD
ENDBRANCH  18  19
ENDBRANCH  17  18
BRANCH  17  21
HETATM   21  N           1     -34.355   0.743 -14.816  0.00  0.00    -0.064 N 
HETATM   22  H           1     -33.797   0.276 -14.065  0.00  0.00     0.275 HD
HETATM   23  H           1     -33.897   0.580 -15.742  0.00  0.00     0.275 HD
HETATM   24  H           1     -34.402   1.769 -14.627  0.00  0.00     0.275 HD
ENDBRANCH  17  21
ENDBRANCH   1  17
TORSDOF 11
ENDMDL
MODEL 3
REMARK VINA RESULT:      -5.9     10.262     12.516
REMARK  11 active torsions:
REMARK  status: ('A' for Active; 'I' for Inactive)
REMARK    1  A    between atoms: C_2  and  N_19 
REMARK    2  A    between atoms: C_2  and  C_17 
REMARK    3  A    between atoms: C_4  and  C_10 
REMARK    4  A    between atoms: C_4  and  O_5 
REMARK    5  A    between atoms: N_6  and  C_10 
REMARK       I    between atoms: C_7  and  N_8 
REMARK    6  A    between atoms: C_7  and  C_10 
REMARK    7  A    between atoms: N_8  and  C_21 
REMARK    8  A    between atoms: C_9  and  C_17 
REMARK    9  A    between atoms: C_9  and  C_22 
REMARK   10  A    between atoms: C_21  and  C_22 
REMARK   11  A    between atoms: C_21  and  C_24 
ROOT
HETATM    1  C           1     -36.591  -0.265 -13.482  0.00  0.00     0.251 C 
HETATM    2  N           1     -35.890  -0.389 -12.312  0.00  0.00    -0.345 N 
HETATM    3  O           1     -37.702  -0.730 -13.573  0.00  0.00    -0.271 OA
HETATM    4  H           1     -34.959  -0.000 -12.236  0.00  0.00     0.163 HD
ENDROOT
BRANCH   2   5
HETATM    5  C           1     -36.483  -1.078 -11.182  0.00  0.00     0.185 C 
BRANCH   5   6
HETATM    6  C           1     -35.495  -2.101 -10.637  0.00  0.00     0.036 C 
BRANCH   6   7
HETATM    7  C           1     -34.122  -1.857 -11.248  0.00  0.00     0.004 C 
BRANCH   7   8
HETATM    8  C           1     -33.433  -3.192 -11.499  0.00  0.00     0.027 C 
BRANCH   8   9
HETATM    9  C           1     -34.312  -4.058 -12.392  0.00  0.00     0.229 C 
BRANCH   9  10
HETATM   10  N           1     -33.768  -4.050 -13.790  0.00  0.00    -0.079 N 
HETATM   11  H           1     -32.967  -3.382 -13.847  0.00  0.00     0.274 HD
HETATM   12  H           1     -33.440  -5.010 -14.041  0.00  0.00     0.274 HD
HETATM   13  H           1     -34.517  -3.753 -14.455  0.00  0.00     0.274 HD
ENDBRANCH   9  10
ENDBRANCH   8   9
ENDBRANCH   7   8
ENDBRANCH   6   7
ENDBRANCH   5   6
BRANCH   5  14
HETATM   14  C           1     -36.818  -0.076 -10.103  0.00  0.00     0.196 C 
HETATM   15  O           1     -36.203  -0.101  -9.016  0.00  0.00    -0.646 OA
HETATM   16  O           1     -37.710   0.777 -10.298  0.00  0.00    -0.646 OA
ENDBRANCH   5  14
ENDBRANCH   2   5
BRANCH   1  17
HETATM   17  C           1     -35.974   0.451 -14.658  0.00  0.00     0.297 C 
BRANCH  17  18
HETATM   18  C           1     -35.583  -0.565 -15.725  0.00  0.00     0.206 C 
BRANCH  18  19
HETATM   19  O           1     -35.220  -1.771 -15.110  0.00  0.00    -0.398 OA
HETATM   20  H           1     -35.282  -1.633 -14.180  0.00  0.00     0.209 HD
ENDBRANCH  18  19
ENDBRANCH  17  18
BRANCH  17  21
HETATM   21  N           1     -34.751   1.194 -14.206  0.00  0.00    -0.064 N 
HETATM   22  H           1     -34.561   1.985 -14.861  0.00  0.00     0.275 HD
HETATM   23  H           1     -34.909   1.570 -13.243  0.00  0.00     0.275 HD
HETATM   24  H           1     -33.933   0.545 -14.196  0.00  0.00     0.275 HD
ENDBRANCH  17  21
ENDBRANCH   1  17
TORSDOF 11
ENDMDL
MODEL 4
REMARK VINA RESULT:      -5.7      2.490      3.141
REMARK  11 active torsions:
REMARK  status: ('A' for Active; 'I' for Inactive)
REMARK    1  A    between atoms: C_2  and  N_19 
REMARK    2  A    between atoms: C_2  and  C_17 
REMARK    3  A    between atoms: C_4  and  C_10 
REMARK    4  A    between atoms: C_4  and  O_5 
REMARK    5  A    between atoms: N_6  and  C_10 
REMARK       I    between atoms: C_7  and  N_8 
REMARK    6  A    between atoms: C_7  and  C_10 
REMARK    7  A    between atoms: N_8  and  C_21 
REMARK    8  A    between atoms: C_9  and  C_17 
REMARK    9  A    between atoms: C_9  and  C_22 
REMARK   10  A    between atoms: C_21  and  C_22 
REMARK   11  A    between atoms: C_21  and  C_24 
ROOT
HETATM    1  C           1     -26.298  -6.663 -19.008  0.00  0.00     0.251 C 
HETATM    2  N           1     -27.621  -6.897 -19.271  0.00  0.00    -0.345 N 
HETATM    3  O           1     -25.971  -6.141 -17.969  0.00  0.00    -0.271 OA
HETATM    4  H           1     -27.895  -7.334 -20.141  0.00  0.00     0.163 HD
ENDROOT
BRANCH   2   5
HETATM    5  C           1     -28.630  -6.517 -18.301  0.00  0.00     0.185 C 
BRANCH   5   6
HETATM    6  C           1     -29.208  -5.159 -18.676  0.00  0.00     0.036 C 
BRANCH   6   7
HETATM    7  C           1     -29.360  -4.308 -17.422  0.00  0.00     0.004 C 
BRANCH   7   8
HETATM    8  C           1     -30.616  -3.455 -17.536  0.00  0.00     0.027 C 
BRANCH   8   9
HETATM    9  C           1     -31.816  -4.247 -17.030  0.00  0.00     0.229 C 
BRANCH   9  10
HETATM   10  N           1     -33.076  -3.492 -17.333  0.00  0.00    -0.079 N 
HETATM   11  H           1     -33.849  -4.169 -17.524  0.00  0.00     0.274 HD
HETATM   12  H           1     -33.330  -2.895 -16.513  0.00  0.00     0.274 HD
HETATM   13  H           1     -32.928  -2.887 -18.172  0.00  0.00     0.274 HD
ENDBRANCH   9  10
ENDBRANCH   8   9
ENDBRANCH   7   8
ENDBRANCH   6   7
ENDBRANCH   5   6
BRANCH   5  14
HETATM   14  C           1     -29.733  -7.549 -18.292  0.00  0.00     0.196 C 
HETATM   15  O           1     -30.607  -7.521 -17.400  0.00  0.00    -0.646 OA
HETATM   16  O           1     -29.771  -8.429 -19.178  0.00  0.00    -0.646 OA
ENDBRANCH   5  14
ENDBRANCH   2   5
BRANCH   1  17
HETATM   17  C           1     -25.248  -7.058 -20.017  0.00  0.00     0.297 C 
BRANCH  17  18
HETATM   18  C           1     -25.843  -8.050 -21.009  0.00  0.00     0.206 C 
BRANCH  18  19
HETATM   19  O           1     -24.866  -8.419 -21.943  0.00  0.00    -0.398 OA
HETATM   20  H           1     -25.030  -9.319 -22.170  0.00  0.00     0.209 HD
ENDBRANCH  18  19
ENDBRANCH  17  18
BRANCH  17  21
HETATM   21  N           1     -24.089  -7.696 -19.309  0.00  0.00    -0.064 N 
HETATM   22  H           1     -23.318  -7.875 -19.992  0.00  0.00     0.275 HD
HETATM   23  H           1     -23.746  -7.056 -18.556  0.00  0.00     0.275 HD
HETATM   24  H           1     -24.395  -8.600 -18.885  0.00  0.00     0.275 HD
ENDBRANCH  17  21
ENDBRANCH   1  17
TORSDOF 11
ENDMDL
MODEL 5
REMARK VINA RESULT:      -5.7      2.210      2.579
REMARK  11 active torsions:
REMARK  status: ('A' for Active; 'I' for Inactive)
REMARK    1  A    between atoms: C_2  and  N_19 
REMARK    2  A    between atoms: C_2  and  C_17 
REMARK    3  A    between atoms: C_4  and  C_10 
REMARK    4  A    between atoms: C_4  and  O_5 
REMARK    5  A    between atoms: N_6  and  C_10 
REMARK       I    between atoms: C_7  and  N_8 
REMARK    6  A    between atoms: C_7  and  C_10 
REMARK    7  A    between atoms: N_8  and  C_21 
REMARK    8  A    between atoms: C_9  and  C_17 
REMARK    9  A    between atoms: C_9  and  C_22 
REMARK   10  A    between atoms: C_21  and  C_22 
REMARK   11  A    between atoms: C_21  and  C_24 
ROOT
HETATM    1  C           1     -26.495  -6.370 -19.814  0.00  0.00     0.251 C 
HETATM    2  N           1     -26.809  -6.478 -18.486  0.00  0.00    -0.345 N 
HETATM    3  O           1     -27.182  -5.698 -20.545  0.00  0.00    -0.271 OA
HETATM    4  H           1     -26.232  -7.040 -17.873  0.00  0.00     0.163 HD
ENDROOT
BRANCH   2   5
HETATM    5  C           1     -27.967  -5.784 -17.957  0.00  0.00     0.185 C 
BRANCH   5   6
HETATM    6  C           1     -29.032  -6.801 -17.568  0.00  0.00     0.036 C 
BRANCH   6   7
HETATM    7  C           1     -30.412  -6.236 -17.882  0.00  0.00     0.004 C 
BRANCH   7   8
HETATM    8  C           1     -30.904  -5.410 -16.701  0.00  0.00     0.027 C 
BRANCH   8   9
HETATM    9  C           1     -31.681  -4.204 -17.213  0.00  0.00     0.229 C 
BRANCH   9  10
HETATM   10  N           1     -30.721  -3.122 -17.609  0.00  0.00    -0.079 N 
HETATM   11  H           1     -30.909  -2.265 -17.042  0.00  0.00     0.274 HD
HETATM   12  H           1     -29.741  -3.446 -17.437  0.00  0.00     0.274 HD
HETATM   13  H           1     -30.842  -2.902 -18.623  0.00  0.00     0.274 HD
ENDBRANCH   9  10
ENDBRANCH   8   9
ENDBRANCH   7   8
ENDBRANCH   6   7
ENDBRANCH   5   6
BRANCH   5  14
HETATM   14  C           1     -27.563  -4.987 -16.740  0.00  0.00     0.196 C 
HETATM   15  O           1     -26.924  -5.536 -15.817  0.00  0.00    -0.646 OA
HETATM   16  O           1     -27.868  -3.778 -16.656  0.00  0.00    -0.646 OA
ENDBRANCH   5  14
ENDBRANCH   2   5
BRANCH   1  17
HETATM   17  C           1     -25.289  -7.092 -20.364  0.00  0.00     0.297 C 
BRANCH  17  18
HETATM   18  C           1     -25.746  -8.255 -21.235  0.00  0.00     0.206 C 
BRANCH  18  19
HETATM   19  O           1     -27.085  -8.555 -20.949  0.00  0.00    -0.398 OA
HETATM   20  H           1     -27.085  -9.104 -20.184  0.00  0.00     0.209 HD
ENDBRANCH  18  19
ENDBRANCH  17  18
BRANCH  17  21
HETATM   21  N           1     -24.458  -7.614 -19.230  0.00  0.00    -0.064 N 
HETATM   22  H           1     -24.434  -6.909 -18.460  0.00  0.00     0.275 HD
HETATM   23  H           1     -24.876  -8.504 -18.874  0.00  0.00     0.275 HD
HETATM   24  H           1     -23.486  -7.797 -19.566  0.00  0.00     0.275 HD
ENDBRANCH  17  21
ENDBRANCH   1  17
TORSDOF 11
ENDMDL
MODEL 6
REMARK VINA RESULT:      -5.6     10.052     12.423
REMARK  11 active torsions:
REMARK  status: ('A' for Active; 'I' for Inactive)
REMARK    1  A    between atoms: C_2  and  N_19 
REMARK    2  A    between atoms: C_2  and  C_17 
REMARK    3  A    between atoms: C_4  and  C_10 
REMARK    4  A    between atoms: C_4  and  O_5 
REMARK    5  A    between atoms: N_6  and  C_10 
REMARK       I    between atoms: C_7  and  N_8 
REMARK    6  A    between atoms: C_7  and  C_10 
REMARK    7  A    between atoms: N_8  and  C_21 
REMARK    8  A    between atoms: C_9  and  C_17 
REMARK    9  A    between atoms: C_9  and  C_22 
REMARK   10  A    between atoms: C_21  and  C_22 
REMARK   11  A    between atoms: C_21  and  C_24 
ROOT
HETATM    1  C           1     -35.491  -1.678 -10.501  0.00  0.00     0.251 C 
HETATM    2  N           1     -35.768  -2.667 -11.406  0.00  0.00    -0.345 N 
HETATM    3  O           1     -34.346  -1.422 -10.216  0.00  0.00    -0.271 OA
HETATM    4  H           1     -36.727  -2.882 -11.644  0.00  0.00     0.163 HD
ENDROOT
BRANCH   2   5
HETATM    5  C           1     -34.684  -3.407 -12.025  0.00  0.00     0.185 C 
BRANCH   5   6
HETATM    6  C           1     -34.972  -4.899 -11.933  0.00  0.00     0.036 C 
BRANCH   6   7
HETATM    7  C           1     -34.651  -5.393 -10.528  0.00  0.00     0.004 C 
BRANCH   7   8
HETATM    8  C           1     -33.761  -6.626 -10.614  0.00  0.00     0.027 C 
BRANCH   8   9
HETATM    9  C           1     -34.508  -7.832 -10.059  0.00  0.00     0.229 C 
BRANCH   9  10
HETATM   10  N           1     -33.643  -9.052 -10.175  0.00  0.00    -0.079 N 
HETATM   11  H           1     -32.763  -8.908  -9.631  0.00  0.00     0.274 HD
HETATM   12  H           1     -34.157  -9.880  -9.796  0.00  0.00     0.274 HD
HETATM   13  H           1     -33.407  -9.219 -11.180  0.00  0.00     0.274 HD
ENDBRANCH   9  10
ENDBRANCH   8   9
ENDBRANCH   7   8
ENDBRANCH   6   7
ENDBRANCH   5   6
BRANCH   5  14
HETATM   14  C           1     -34.565  -3.005 -13.475  0.00  0.00     0.196 C 
HETATM   15  O           1     -34.121  -3.818 -14.314  0.00  0.00    -0.646 OA
HETATM   16  O           1     -34.911  -1.860 -13.837  0.00  0.00    -0.646 OA
ENDBRANCH   5  14
ENDBRANCH   2   5
BRANCH   1  17
HETATM   17  C           1     -36.619  -0.909  -9.857  0.00  0.00     0.297 C 
BRANCH  17  18
HETATM   18  C           1     -37.300  -0.035 -10.902  0.00  0.00     0.206 C 
BRANCH  18  19
HETATM   19  O           1     -36.478   0.068 -12.033  0.00  0.00    -0.398 OA
HETATM   20  H           1     -36.723  -0.631 -12.614  0.00  0.00     0.209 HD
ENDBRANCH  18  19
ENDBRANCH  17  18
BRANCH  17  21
HETATM   21  N           1     -36.071  -0.042  -8.762  0.00  0.00    -0.064 N 
HETATM   22  H           1     -35.906   0.923  -9.129  0.00  0.00     0.275 HD
HETATM   23  H           1     -36.758  -0.001  -7.974  0.00  0.00     0.275 HD
HETATM   24  H           1     -35.170  -0.443  -8.418  0.00  0.00     0.275 HD
ENDBRANCH  17  21
ENDBRANCH   1  17
TORSDOF 11
ENDMDL
MODEL 7
REMARK VINA RESULT:      -5.4      2.921      5.377
REMARK  11 active torsions:
REMARK  status: ('A' for Active; 'I' for Inactive)
REMARK    1  A    between atoms: C_2  and  N_19 
REMARK    2  A    between atoms: C_2  and  C_17 
REMARK    3  A    between atoms: C_4  and  C_10 
REMARK    4  A    between atoms: C_4  and  O_5 
REMARK    5  A    between atoms: N_6  and  C_10 
REMARK       I    between atoms: C_7  and  N_8 
REMARK    6  A    between atoms: C_7  and  C_10 
REMARK    7  A    between atoms: N_8  and  C_21 
REMARK    8  A    between atoms: C_9  and  C_17 
REMARK    9  A    between atoms: C_9  and  C_22 
REMARK   10  A    between atoms: C_21  and  C_22 
REMARK   11  A    between atoms: C_21  and  C_24 
ROOT
HETATM    1  C           1     -30.082  -5.292 -17.155  0.00  0.00     0.251 C 
HETATM    2  N           1     -28.731  -5.195 -16.957  0.00  0.00    -0.345 N 
HETATM    3  O           1     -30.569  -6.346 -17.490  0.00  0.00    -0.271 OA
HETATM    4  H           1     -28.323  -4.312 -16.677  0.00  0.00     0.163 HD
ENDROOT
BRANCH   2   5
HETATM    5  C           1     -27.884  -6.356 -17.147  0.00  0.00     0.185 C 
BRANCH   5   6
HETATM    6  C           1     -26.806  -6.036 -18.174  0.00  0.00     0.036 C 
BRANCH   6   7
HETATM    7  C           1     -27.268  -6.486 -19.554  0.00  0.00     0.004 C 
BRANCH   7   8
HETATM    8  C           1     -26.059  -6.870 -20.394  0.00  0.00     0.027 C 
BRANCH   8   9
HETATM    9  C           1     -24.829  -6.973 -19.501  0.00  0.00     0.229 C 
BRANCH   9  10
HETATM   10  N           1     -23.858  -7.948 -20.096  0.00  0.00    -0.079 N 
HETATM   11  H           1     -24.357  -8.569 -20.771  0.00  0.00     0.274 HD
HETATM   12  H           1     -23.102  -7.426 -20.595  0.00  0.00     0.274 HD
HETATM   13  H           1     -23.436  -8.529 -19.336  0.00  0.00     0.274 HD
ENDBRANCH   9  10
ENDBRANCH   8   9
ENDBRANCH   7   8
ENDBRANCH   6   7
ENDBRANCH   5   6
BRANCH   5  14
HETATM   14  C           1     -27.236  -6.727 -15.835  0.00  0.00     0.196 C 
HETATM   15  O           1     -26.122  -6.249 -15.532  0.00  0.00    -0.646 OA
HETATM   16  O           1     -27.814  -7.511 -15.053  0.00  0.00    -0.646 OA
ENDBRANCH   5  14
ENDBRANCH   2   5
BRANCH   1  17
HETATM   17  C           1     -30.962  -4.083 -16.957  0.00  0.00     0.297 C 
BRANCH  17  18
HETATM   18  C           1     -32.417  -4.524 -16.852  0.00  0.00     0.206 C 
BRANCH  18  19
HETATM   19  O           1     -33.252  -3.485 -17.282  0.00  0.00    -0.398 OA
HETATM   20  H           1     -34.020  -3.886 -17.652  0.00  0.00     0.209 HD
ENDBRANCH  18  19
ENDBRANCH  17  18
BRANCH  17  21
HETATM   21  N           1     -30.806  -3.154 -18.125  0.00  0.00    -0.064 N 
HETATM   22  H           1     -31.017  -2.176 -17.823  0.00  0.00     0.275 HD
HETATM   23  H           1     -29.824  -3.205 -18.480  0.00  0.00     0.275 HD
HETATM   24  H           1     -31.467  -3.435 -18.883  0.00  0.00     0.275 HD
ENDBRANCH  17  21
ENDBRANCH   1  17
TORSDOF 11
ENDMDL
MODEL 8
REMARK VINA RESULT:      -5.3      7.390      9.527
REMARK  11 active torsions:
REMARK  status: ('A' for Active; 'I' for Inactive)
REMARK    1  A    between atoms: C_2  and  N_19 
REMARK    2  A    between atoms: C_2  and  C_17 
REMARK    3  A    between atoms: C_4  and  C_10 
REMARK    4  A    between atoms: C_4  and  O_5 
REMARK    5  A    between atoms: N_6  and  C_10 
REMARK       I    between atoms: C_7  and  N_8 
REMARK    6  A    between atoms: C_7  and  C_10 
REMARK    7  A    between atoms: N_8  and  C_21 
REMARK    8  A    between atoms: C_9  and  C_17 
REMARK    9  A    between atoms: C_9  and  C_22 
REMARK   10  A    between atoms: C_21  and  C_22 
REMARK   11  A    between atoms: C_21  and  C_24 
ROOT
HETATM    1  C           1     -34.270  -4.525 -15.185  0.00  0.00     0.251 C 
HETATM    2  N           1     -33.755  -3.829 -14.124  0.00  0.00    -0.345 N 
HETATM    3  O           1     -35.142  -5.342 -15.006  0.00  0.00    -0.271 OA
HETATM    4  H           1     -33.025  -3.146 -14.274  0.00  0.00     0.163 HD
ENDROOT
BRANCH   2   5
HETATM    5  C           1     -34.257  -4.072 -12.786  0.00  0.00     0.185 C 
BRANCH   5   6
HETATM    6  C           1     -33.109  -4.506 -11.884  0.00  0.00     0.036 C 
BRANCH   6   7
HETATM    7  C           1     -33.662  -5.283 -10.697  0.00  0.00     0.004 C 
BRANCH   7   8
HETATM    8  C           1     -34.551  -6.414 -11.198  0.00  0.00     0.027 C 
BRANCH   8   9
HETATM    9  C           1     -34.665  -7.486 -10.122  0.00  0.00     0.229 C 
BRANCH   9  10
HETATM   10  N           1     -33.637  -8.551 -10.367  0.00  0.00    -0.079 N 
HETATM   11  H           1     -33.529  -9.134  -9.507  0.00  0.00     0.274 HD
HETATM   12  H           1     -33.946  -9.156 -11.163  0.00  0.00     0.274 HD
HETATM   13  H           1     -32.722  -8.106 -10.603  0.00  0.00     0.274 HD
ENDBRANCH   9  10
ENDBRANCH   8   9
ENDBRANCH   7   8
ENDBRANCH   6   7
ENDBRANCH   5   6
BRANCH   5  14
HETATM   14  C           1     -34.873  -2.805 -12.242  0.00  0.00     0.196 C 
HETATM   15  O           1     -35.827  -2.870 -11.438  0.00  0.00    -0.646 OA
HETATM   16  O           1     -34.428  -1.693 -12.596  0.00  0.00    -0.646 OA
ENDBRANCH   5  14
ENDBRANCH   2   5
BRANCH   1  17
HETATM   17  C           1     -33.747  -4.273 -16.578  0.00  0.00     0.297 C 
BRANCH  17  18
HETATM   18  C           1     -32.228  -4.391 -16.580  0.00  0.00     0.206 C 
BRANCH  18  19
HETATM   19  O           1     -31.680  -3.354 -17.347  0.00  0.00    -0.398 OA
HETATM   20  H           1     -32.276  -3.196 -18.059  0.00  0.00     0.209 HD
ENDBRANCH  18  19
ENDBRANCH  17  18
BRANCH  17  21
HETATM   21  N           1     -34.140  -2.893 -17.017  0.00  0.00    -0.064 N 
HETATM   22  H           1     -35.150  -2.886 -17.286  0.00  0.00     0.275 HD
HETATM   23  H           1     -33.986  -2.221 -16.231  0.00  0.00     0.275 HD
HETATM   24  H           1     -33.559  -2.610 -17.837  0.00  0.00     0.275 HD
ENDBRANCH  17  21
ENDBRANCH   1  17
TORSDOF 11
ENDMDL
MODEL 9
REMARK VINA RESULT:      -5.1     10.420     12.435
REMARK  11 active torsions:
REMARK  status: ('A' for Active; 'I' for Inactive)
REMARK    1  A    between atoms: C_2  and  N_19 
REMARK    2  A    between atoms: C_2  and  C_17 
REMARK    3  A    between atoms: C_4  and  C_10 
REMARK    4  A    between atoms: C_4  and  O_5 
REMARK    5  A    between atoms: N_6  and  C_10 
REMARK       I    between atoms: C_7  and  N_8 
REMARK    6  A    between atoms: C_7  and  C_10 
REMARK    7  A    between atoms: N_8  and  C_21 
REMARK    8  A    between atoms: C_9  and  C_17 
REMARK    9  A    between atoms: C_9  and  C_22 
REMARK   10  A    between atoms: C_21  and  C_22 
REMARK   11  A    between atoms: C_21  and  C_24 
ROOT
HETATM    1  C           1     -22.963  -4.278  -8.859  0.00  0.00     0.251 C 
HETATM    2  N           1     -22.076  -5.114  -8.236  0.00  0.00    -0.345 N 
HETATM    3  O           1     -22.876  -3.083  -8.708  0.00  0.00    -0.271 OA
HETATM    4  H           1     -22.149  -6.115  -8.363  0.00  0.00     0.163 HD
ENDROOT
BRANCH   2   5
HETATM    5  C           1     -21.031  -4.564  -7.395  0.00  0.00     0.185 C 
BRANCH   5   6
HETATM    6  C           1     -20.813  -5.477  -6.195  0.00  0.00     0.036 C 
BRANCH   6   7
HETATM    7  C           1     -22.160  -5.926  -5.647  0.00  0.00     0.004 C 
BRANCH   7   8
HETATM    8  C           1     -21.945  -6.972  -4.561  0.00  0.00     0.027 C 
BRANCH   8   9
HETATM    9  C           1     -21.373  -6.303  -3.317  0.00  0.00     0.229 C 
BRANCH   9  10
HETATM   10  N           1     -22.490  -5.949  -2.381  0.00  0.00    -0.079 N 
HETATM   11  H           1     -22.887  -5.021  -2.648  0.00  0.00     0.274 HD
HETATM   12  H           1     -23.237  -6.678  -2.440  0.00  0.00     0.274 HD
HETATM   13  H           1     -22.125  -5.903  -1.403  0.00  0.00     0.274 HD
ENDBRANCH   9  10
ENDBRANCH   8   9
ENDBRANCH   7   8
ENDBRANCH   6   7
ENDBRANCH   5   6
BRANCH   5  14
HETATM   14  C           1     -19.750  -4.460  -8.188  0.00  0.00     0.196 C 
HETATM   15  O           1     -19.788  -4.453  -9.437  0.00  0.00    -0.646 OA
HETATM   16  O           1     -18.654  -4.379  -7.595  0.00  0.00    -0.646 OA
ENDBRANCH   5  14
ENDBRANCH   2   5
BRANCH   1  17
HETATM   17  C           1     -24.051  -4.851  -9.734  0.00  0.00     0.297 C 
BRANCH  17  18
HETATM   18  C           1     -23.586  -4.860 -11.185  0.00  0.00     0.206 C 
BRANCH  18  19
HETATM   19  O           1     -22.235  -4.491 -11.244  0.00  0.00    -0.398 OA
HETATM   20  H           1     -22.207  -3.550 -11.231  0.00  0.00     0.209 HD
ENDBRANCH  18  19
ENDBRANCH  17  18
BRANCH  17  21
HETATM   21  N           1     -25.286  -4.007  -9.613  0.00  0.00    -0.064 N 
HETATM   22  H           1     -25.025  -2.997  -9.653  0.00  0.00     0.275 HD
HETATM   23  H           1     -25.938  -4.230 -10.400  0.00  0.00     0.275 HD
HETATM   24  H           1     -25.757  -4.210  -8.703  0.00  0.00     0.275 HD
ENDBRANCH  17  21
ENDBRANCH   1  17
TORSDOF 11
ENDMDL
