MODEL 1
REMARK VINA RESULT:      -6.3      0.000      0.000
REMARK  6 active torsions:
REMARK  status: ('A' for Active; 'I' for Inactive)
REMARK    1  A    between atoms: N_5  and  C_15 
REMARK       I    between atoms: N_5  and  C_17 
REMARK       I    between atoms: C_7  and  N_20 
REMARK    2  A    between atoms: C_7  and  C_12 
REMARK    3  A    between atoms: N_9  and  C_11 
REMARK    4  A    between atoms: C_11  and  C_17 
REMARK    5  A    between atoms: C_12  and  C_15 
REMARK    6  A    between atoms: C_13  and  C_15 
ROOT
HETATM    1  N           1     -27.715  -6.337 -18.975  0.00  0.00    -0.344 N 
HETATM    2  H           1     -27.967  -6.508 -19.940  0.00  0.00     0.163 HD
HETATM    3  C           1     -26.404  -6.405 -18.588  0.00  0.00     0.248 C 
HETATM    4  O           1     -26.104  -6.200 -17.436  0.00  0.00    -0.271 OA
ENDROOT
BRANCH   1   5
HETATM    5  C           1     -28.743  -6.022 -18.003  0.00  0.00     0.194 C 
BRANCH   5   6
HETATM    6  C           1     -29.394  -4.694 -18.365  0.00  0.00     0.138 C 
BRANCH   6   7
HETATM    7  C           1     -28.890  -3.616 -17.436  0.00  0.00     0.217 C 
HETATM    8  O           1     -27.999  -3.857 -16.658  0.00  0.00    -0.274 OA
HETATM    9  N           1     -29.444  -2.364 -17.477  0.00  0.00    -0.370 N 
HETATM   10  H           1     -29.107  -1.642 -16.854  0.00  0.00     0.159 HD
HETATM   11  H           1     -30.191  -2.162 -18.129  0.00  0.00     0.159 HD
ENDBRANCH   6   7
ENDBRANCH   5   6
BRANCH   5  12
HETATM   12  C           1     -29.787  -7.111 -18.003  0.00  0.00     0.197 C 
HETATM   13  O           1     -30.828  -6.980 -17.323  0.00  0.00    -0.646 OA
HETATM   14  O           1     -29.612  -8.145 -18.684  0.00  0.00    -0.646 OA
ENDBRANCH   5  12
ENDBRANCH   1   5
BRANCH   3  15
HETATM   15  C           1     -25.334  -6.732 -19.601  0.00  0.00     0.270 C 
HETATM   16  C           1     -25.945  -7.534 -20.743  0.00  0.00     0.050 C 
BRANCH  15  17
HETATM   17  N           1     -24.255  -7.541 -18.945  0.00  0.00    -0.067 N 
HETATM   18  H           1     -24.142  -8.447 -19.452  0.00  0.00     0.275 HD
HETATM   19  H           1     -24.517  -7.728 -17.951  0.00  0.00     0.275 HD
HETATM   20  H           1     -23.355  -7.011 -18.973  0.00  0.00     0.275 HD
ENDBRANCH  15  17
ENDBRANCH   3  15
TORSDOF 6
ENDMDL
MODEL 2
REMARK VINA RESULT:      -6.2      8.924     10.422
REMARK  6 active torsions:
REMARK  status: ('A' for Active; 'I' for Inactive)
REMARK    1  A    between atoms: N_5  and  C_15 
REMARK       I    between atoms: N_5  and  C_17 
REMARK       I    between atoms: C_7  and  N_20 
REMARK    2  A    between atoms: C_7  and  C_12 
REMARK    3  A    between atoms: N_9  and  C_11 
REMARK    4  A    between atoms: C_11  and  C_17 
REMARK    5  A    between atoms: C_12  and  C_15 
REMARK    6  A    between atoms: C_13  and  C_15 
ROOT
HETATM    1  N           1     -35.175  -1.567 -13.582  0.00  0.00    -0.344 N 
HETATM    2  H           1     -35.248  -2.118 -14.427  0.00  0.00     0.163 HD
HETATM    3  C           1     -34.621  -2.112 -12.455  0.00  0.00     0.248 C 
HETATM    4  O           1     -34.534  -1.455 -11.446  0.00  0.00    -0.271 OA
ENDROOT
BRANCH   1   5
HETATM    5  C           1     -35.659  -0.200 -13.563  0.00  0.00     0.194 C 
BRANCH   5   6
HETATM    6  C           1     -35.490   0.417 -14.944  0.00  0.00     0.138 C 
BRANCH   6   7
HETATM    7  C           1     -35.652  -0.653 -15.997  0.00  0.00     0.217 C 
HETATM    8  O           1     -34.723  -1.372 -16.275  0.00  0.00    -0.274 OA
HETATM    9  N           1     -36.853  -0.807 -16.636  0.00  0.00    -0.370 N 
HETATM   10  H           1     -36.962  -1.524 -17.342  0.00  0.00     0.159 HD
HETATM   11  H           1     -37.632  -0.204 -16.403  0.00  0.00     0.159 HD
ENDBRANCH   6   7
ENDBRANCH   5   6
BRANCH   5  12
HETATM   12  C           1     -37.119  -0.189 -13.181  0.00  0.00     0.197 C 
HETATM   13  O           1     -37.970  -0.685 -13.952  0.00  0.00    -0.646 OA
HETATM   14  O           1     -37.478   0.314 -12.095  0.00  0.00    -0.646 OA
ENDBRANCH   5  12
ENDBRANCH   1   5
BRANCH   3  15
HETATM   15  C           1     -34.116  -3.535 -12.476  0.00  0.00     0.270 C 
HETATM   16  C           1     -32.852  -3.637 -11.633  0.00  0.00     0.050 C 
BRANCH  15  17
HETATM   17  N           1     -33.810  -3.937 -13.888  0.00  0.00    -0.067 N 
HETATM   18  H           1     -32.781  -4.084 -13.992  0.00  0.00     0.275 HD
HETATM   19  H           1     -34.123  -3.182 -14.539  0.00  0.00     0.275 HD
HETATM   20  H           1     -34.313  -4.824 -14.115  0.00  0.00     0.275 HD
ENDBRANCH  15  17
ENDBRANCH   3  15
TORSDOF 6
ENDMDL
MODEL 3
REMARK VINA RESULT:      -6.0      1.758      3.087
REMARK  6 active torsions:
REMARK  status: ('A' for Active; 'I' for Inactive)
REMARK    1  A    between atoms: N_5  and  C_15 
REMARK       I    between atoms: N_5  and  C_17 
REMARK       I    between atoms: C_7  and  N_20 
REMARK    2  A    between atoms: C_7  and  C_12 
REMARK    3  A    between atoms: N_9  and  C_11 
REMARK    4  A    between atoms: C_11  and  C_17 
REMARK    5  A    between atoms: C_12  and  C_15 
REMARK    6  A    between atoms: C_13  and  C_15 
ROOT
HETATM    1  N           1     -26.842  -6.376 -18.179  0.00  0.00    -0.344 N 
HETATM    2  H           1     -26.315  -6.447 -17.318  0.00  0.00     0.163 HD
HETATM    3  C           1     -26.215  -6.552 -19.383  0.00  0.00     0.248 C 
HETATM    4  O           1     -26.845  -6.468 -20.410  0.00  0.00    -0.271 OA
ENDROOT
BRANCH   1   5
HETATM    5  C           1     -28.262  -6.085 -18.137  0.00  0.00     0.194 C 
BRANCH   5   6
HETATM    6  C           1     -28.970  -7.138 -17.294  0.00  0.00     0.138 C 
BRANCH   6   7
HETATM    7  C           1     -30.365  -7.356 -17.829  0.00  0.00     0.217 C 
HETATM    8  O           1     -30.545  -8.104 -18.760  0.00  0.00    -0.274 OA
HETATM    9  N           1     -31.426  -6.705 -17.258  0.00  0.00    -0.370 N 
HETATM   10  H           1     -32.361  -6.851 -17.616  0.00  0.00     0.159 HD
HETATM   11  H           1     -31.275  -6.078 -16.478  0.00  0.00     0.159 HD
ENDBRANCH   6   7
ENDBRANCH   5   6
BRANCH   5  12
HETATM   12  C           1     -28.479  -4.723 -17.528  0.00  0.00     0.197 C 
HETATM   13  O           1     -27.680  -4.287 -16.670  0.00  0.00    -0.646 OA
HETATM   14  O           1     -29.456  -4.028 -17.880  0.00  0.00    -0.646 OA
ENDBRANCH   5  12
ENDBRANCH   1   5
BRANCH   3  15
HETATM   15  C           1     -24.737  -6.854 -19.426  0.00  0.00     0.270 C 
HETATM   16  C           1     -24.449  -7.821 -20.567  0.00  0.00     0.050 C 
BRANCH  15  17
HETATM   17  N           1     -24.315  -7.476 -18.127  0.00  0.00    -0.067 N 
HETATM   18  H           1     -24.983  -8.237 -17.872  0.00  0.00     0.275 HD
HETATM   19  H           1     -24.314  -6.747 -17.379  0.00  0.00     0.275 HD
HETATM   20  H           1     -23.354  -7.874 -18.227  0.00  0.00     0.275 HD
ENDBRANCH  15  17
ENDBRANCH   3  15
TORSDOF 6
ENDMDL
MODEL 4
REMARK VINA RESULT:      -5.8      1.922      2.754
REMARK  6 active torsions:
REMARK  status: ('A' for Active; 'I' for Inactive)
REMARK    1  A    between atoms: N_5  and  C_15 
REMARK       I    between atoms: N_5  and  C_17 
REMARK       I    between atoms: C_7  and  N_20 
REMARK    2  A    between atoms: C_7  and  C_12 
REMARK    3  A    between atoms: N_9  and  C_11 
REMARK    4  A    between atoms: C_11  and  C_17 
REMARK    5  A    between atoms: C_12  and  C_15 
REMARK    6  A    between atoms: C_13  and  C_15 
ROOT
HETATM    1  N           1     -26.768  -6.554 -18.138  0.00  0.00    -0.344 N 
HETATM    2  H           1     -27.656  -6.808 -18.553  0.00  0.00     0.163 HD
HETATM    3  C           1     -25.604  -6.781 -18.820  0.00  0.00     0.248 C 
HETATM    4  O           1     -24.545  -6.477 -18.325  0.00  0.00    -0.271 OA
ENDROOT
BRANCH   1   5
HETATM    5  C           1     -26.731  -5.953 -16.819  0.00  0.00     0.194 C 
BRANCH   5   6
HETATM    6  C           1     -27.994  -5.131 -16.600  0.00  0.00     0.138 C 
BRANCH   6   7
HETATM    7  C           1     -28.971  -5.401 -17.720  0.00  0.00     0.217 C 
HETATM    8  O           1     -29.539  -6.465 -17.782  0.00  0.00    -0.274 OA
HETATM    9  N           1     -29.211  -4.439 -18.664  0.00  0.00    -0.370 N 
HETATM   10  H           1     -29.865  -4.620 -19.415  0.00  0.00     0.159 HD
HETATM   11  H           1     -28.735  -3.548 -18.612  0.00  0.00     0.159 HD
ENDBRANCH   6   7
ENDBRANCH   5   6
BRANCH   5  12
HETATM   12  C           1     -26.647  -7.037 -15.774  0.00  0.00     0.197 C 
HETATM   13  O           1     -27.691  -7.475 -15.242  0.00  0.00    -0.646 OA
HETATM   14  O           1     -25.535  -7.499 -15.439  0.00  0.00    -0.646 OA
ENDBRANCH   5  12
ENDBRANCH   1   5
BRANCH   3  15
HETATM   15  C           1     -25.643  -7.407 -20.193  0.00  0.00     0.270 C 
HETATM   16  C           1     -25.150  -6.401 -21.224  0.00  0.00     0.050 C 
BRANCH  15  17
HETATM   17  N           1     -27.051  -7.807 -20.520  0.00  0.00    -0.067 N 
HETATM   18  H           1     -27.090  -8.836 -20.694  0.00  0.00     0.275 HD
HETATM   19  H           1     -27.368  -7.296 -21.374  0.00  0.00     0.275 HD
HETATM   20  H           1     -27.677  -7.566 -19.719  0.00  0.00     0.275 HD
ENDBRANCH  15  17
ENDBRANCH   3  15
TORSDOF 6
ENDMDL
MODEL 5
REMARK VINA RESULT:      -5.8     10.618     11.639
REMARK  6 active torsions:
REMARK  status: ('A' for Active; 'I' for Inactive)
REMARK    1  A    between atoms: N_5  and  C_15 
REMARK       I    between atoms: N_5  and  C_17 
REMARK       I    between atoms: C_7  and  N_20 
REMARK    2  A    between atoms: C_7  and  C_12 
REMARK    3  A    between atoms: N_9  and  C_11 
REMARK    4  A    between atoms: C_11  and  C_17 
REMARK    5  A    between atoms: C_12  and  C_15 
REMARK    6  A    between atoms: C_13  and  C_15 
ROOT
HETATM    1  N           1     -22.592  -4.779  -8.329  0.00  0.00    -0.344 N 
HETATM    2  H           1     -23.062  -5.671  -8.237  0.00  0.00     0.163 HD
HETATM    3  C           1     -21.663  -4.396  -7.400  0.00  0.00     0.248 C 
HETATM    4  O           1     -21.102  -3.332  -7.509  0.00  0.00    -0.271 OA
ENDROOT
BRANCH   1   5
HETATM    5  C           1     -22.906  -3.906  -9.443  0.00  0.00     0.194 C 
BRANCH   5   6
HETATM    6  C           1     -22.269  -4.455 -10.713  0.00  0.00     0.138 C 
BRANCH   6   7
HETATM    7  C           1     -21.431  -3.380 -11.362  0.00  0.00     0.217 C 
HETATM    8  O           1     -21.927  -2.315 -11.643  0.00  0.00    -0.274 OA
HETATM    9  N           1     -20.109  -3.613 -11.631  0.00  0.00    -0.370 N 
HETATM   10  H           1     -19.547  -2.893 -12.066  0.00  0.00     0.159 HD
HETATM   11  H           1     -19.693  -4.505 -11.395  0.00  0.00     0.159 HD
ENDBRANCH   6   7
ENDBRANCH   5   6
BRANCH   5  12
HETATM   12  C           1     -24.402  -3.834  -9.620  0.00  0.00     0.197 C 
HETATM   13  O           1     -25.067  -4.885  -9.750  0.00  0.00    -0.646 OA
HETATM   14  O           1     -24.977  -2.725  -9.636  0.00  0.00    -0.646 OA
ENDBRANCH   5  12
ENDBRANCH   1   5
BRANCH   3  15
HETATM   15  C           1     -21.336  -5.305  -6.240  0.00  0.00     0.270 C 
HETATM   16  C           1     -20.192  -4.708  -5.433  0.00  0.00     0.050 C 
BRANCH  15  17
HETATM   17  N           1     -20.931  -6.653  -6.760  0.00  0.00    -0.067 N 
HETATM   18  H           1     -19.897  -6.767  -6.662  0.00  0.00     0.275 HD
HETATM   19  H           1     -21.198  -6.731  -7.767  0.00  0.00     0.275 HD
HETATM   20  H           1     -21.417  -7.398  -6.213  0.00  0.00     0.275 HD
ENDBRANCH  15  17
ENDBRANCH   3  15
TORSDOF 6
ENDMDL
MODEL 6
REMARK VINA RESULT:      -5.7      1.966      2.322
REMARK  6 active torsions:
REMARK  status: ('A' for Active; 'I' for Inactive)
REMARK    1  A    between atoms: N_5  and  C_15 
REMARK       I    between atoms: N_5  and  C_17 
REMARK       I    between atoms: C_7  and  N_20 
REMARK    2  A    between atoms: C_7  and  C_12 
REMARK    3  A    between atoms: N_9  and  C_11 
REMARK    4  A    between atoms: C_11  and  C_17 
REMARK    5  A    between atoms: C_12  and  C_15 
REMARK    6  A    between atoms: C_13  and  C_15 
ROOT
HETATM    1  N           1     -28.131  -6.687 -17.379  0.00  0.00    -0.344 N 
HETATM    2  H           1     -27.918  -7.394 -18.071  0.00  0.00     0.163 HD
HETATM    3  C           1     -27.203  -6.359 -16.428  0.00  0.00     0.248 C 
HETATM    4  O           1     -27.457  -5.516 -15.601  0.00  0.00    -0.271 OA
ENDROOT
BRANCH   1   5
HETATM    5  C           1     -29.419  -6.023 -17.393  0.00  0.00     0.194 C 
BRANCH   5   6
HETATM    6  C           1     -29.399  -4.899 -18.420  0.00  0.00     0.138 C 
BRANCH   6   7
HETATM    7  C           1     -29.691  -3.586 -17.735  0.00  0.00     0.217 C 
HETATM    8  O           1     -28.796  -2.963 -17.215  0.00  0.00    -0.274 OA
HETATM    9  N           1     -30.972  -3.101 -17.703  0.00  0.00    -0.370 N 
HETATM   10  H           1     -31.168  -2.221 -17.244  0.00  0.00     0.159 HD
HETATM   11  H           1     -31.722  -3.622 -18.139  0.00  0.00     0.159 HD
ENDBRANCH   6   7
ENDBRANCH   5   6
BRANCH   5  12
HETATM   12  C           1     -30.494  -7.018 -17.757  0.00  0.00     0.197 C 
HETATM   13  O           1     -30.200  -8.046 -18.405  0.00  0.00    -0.646 OA
HETATM   14  O           1     -31.677  -6.815 -17.410  0.00  0.00    -0.646 OA
ENDBRANCH   5  12
ENDBRANCH   1   5
BRANCH   3  15
HETATM   15  C           1     -25.861  -7.051 -16.413  0.00  0.00     0.270 C 
HETATM   16  C           1     -24.970  -6.408 -15.358  0.00  0.00     0.050 C 
BRANCH  15  17
HETATM   17  N           1     -25.215  -6.918 -17.760  0.00  0.00    -0.067 N 
HETATM   18  H           1     -24.228  -6.595 -17.643  0.00  0.00     0.275 HD
HETATM   19  H           1     -25.745  -6.223 -18.332  0.00  0.00     0.275 HD
HETATM   20  H           1     -25.224  -7.844 -18.244  0.00  0.00     0.275 HD
ENDBRANCH  15  17
ENDBRANCH   3  15
TORSDOF 6
ENDMDL
MODEL 7
REMARK VINA RESULT:      -5.7      2.338      4.643
REMARK  6 active torsions:
REMARK  status: ('A' for Active; 'I' for Inactive)
REMARK    1  A    between atoms: N_5  and  C_15 
REMARK       I    between atoms: N_5  and  C_17 
REMARK       I    between atoms: C_7  and  N_20 
REMARK    2  A    between atoms: C_7  and  C_12 
REMARK    3  A    between atoms: N_9  and  C_11 
REMARK    4  A    between atoms: C_11  and  C_17 
REMARK    5  A    between atoms: C_12  and  C_15 
REMARK    6  A    between atoms: C_13  and  C_15 
ROOT
HETATM    1  N           1     -27.204  -6.967 -18.952  0.00  0.00    -0.344 N 
HETATM    2  H           1     -26.761  -7.698 -18.409  0.00  0.00     0.163 HD
HETATM    3  C           1     -28.076  -6.101 -18.350  0.00  0.00     0.248 C 
HETATM    4  O           1     -28.604  -5.229 -18.998  0.00  0.00    -0.271 OA
ENDROOT
BRANCH   1   5
HETATM    5  C           1     -26.916  -6.840 -20.367  0.00  0.00     0.194 C 
BRANCH   5   6
HETATM    6  C           1     -25.497  -6.318 -20.552  0.00  0.00     0.138 C 
BRANCH   6   7
HETATM    7  C           1     -24.589  -6.956 -19.529  0.00  0.00     0.217 C 
HETATM    8  O           1     -24.557  -6.530 -18.399  0.00  0.00    -0.274 OA
HETATM    9  N           1     -23.801  -8.020 -19.882  0.00  0.00    -0.370 N 
HETATM   10  H           1     -23.193  -8.447 -19.197  0.00  0.00     0.159 HD
HETATM   11  H           1     -23.828  -8.377 -20.828  0.00  0.00     0.159 HD
ENDBRANCH   6   7
ENDBRANCH   5   6
BRANCH   5  12
HETATM   12  C           1     -27.047  -8.189 -21.030  0.00  0.00     0.197 C 
HETATM   13  O           1     -28.101  -8.849 -20.901  0.00  0.00    -0.646 OA
HETATM   14  O           1     -26.103  -8.646 -21.710  0.00  0.00    -0.646 OA
ENDBRANCH   5  12
ENDBRANCH   1   5
BRANCH   3  15
HETATM   15  C           1     -28.374  -6.234 -16.877  0.00  0.00     0.270 C 
HETATM   16  C           1     -28.401  -4.852 -16.237  0.00  0.00     0.050 C 
BRANCH  15  17
HETATM   17  N           1     -27.311  -7.066 -16.223  0.00  0.00    -0.067 N 
HETATM   18  H           1     -26.644  -7.412 -16.950  0.00  0.00     0.275 HD
HETATM   19  H           1     -27.754  -7.879 -15.740  0.00  0.00     0.275 HD
HETATM   20  H           1     -26.794  -6.485 -15.525  0.00  0.00     0.275 HD
ENDBRANCH  15  17
ENDBRANCH   3  15
TORSDOF 6
ENDMDL
MODEL 8
REMARK VINA RESULT:      -5.5      2.139      4.900
REMARK  6 active torsions:
REMARK  status: ('A' for Active; 'I' for Inactive)
REMARK    1  A    between atoms: N_5  and  C_15 
REMARK       I    between atoms: N_5  and  C_17 
REMARK       I    between atoms: C_7  and  N_20 
REMARK    2  A    between atoms: C_7  and  C_12 
REMARK    3  A    between atoms: N_9  and  C_11 
REMARK    4  A    between atoms: C_11  and  C_17 
REMARK    5  A    between atoms: C_12  and  C_15 
REMARK    6  A    between atoms: C_13  and  C_15 
ROOT
HETATM    1  N           1     -28.511  -5.412 -16.631  0.00  0.00    -0.344 N 
HETATM    2  H           1     -28.263  -4.741 -15.915  0.00  0.00     0.163 HD
HETATM    3  C           1     -29.688  -5.279 -17.315  0.00  0.00     0.248 C 
HETATM    4  O           1     -29.983  -6.081 -18.170  0.00  0.00    -0.271 OA
ENDROOT
BRANCH   1   5
HETATM    5  C           1     -27.619  -6.516 -16.929  0.00  0.00     0.194 C 
BRANCH   5   6
HETATM    6  C           1     -26.372  -5.987 -17.625  0.00  0.00     0.138 C 
BRANCH   6   7
HETATM    7  C           1     -26.271  -6.593 -19.004  0.00  0.00     0.217 C 
HETATM    8  O           1     -25.193  -6.705 -19.537  0.00  0.00    -0.274 OA
HETATM    9  N           1     -27.402  -7.016 -19.651  0.00  0.00    -0.370 N 
HETATM   10  H           1     -27.334  -7.423 -20.575  0.00  0.00     0.159 HD
HETATM   11  H           1     -28.305  -6.923 -19.204  0.00  0.00     0.159 HD
ENDBRANCH   6   7
ENDBRANCH   5   6
BRANCH   5  12
HETATM   12  C           1     -27.225  -7.205 -15.646  0.00  0.00     0.197 C 
HETATM   13  O           1     -28.107  -7.607 -14.856  0.00  0.00    -0.646 OA
HETATM   14  O           1     -26.017  -7.375 -15.372  0.00  0.00    -0.646 OA
ENDBRANCH   5  12
ENDBRANCH   1   5
BRANCH   3  15
HETATM   15  C           1     -30.616  -4.130 -17.005  0.00  0.00     0.270 C 
HETATM   16  C           1     -32.029  -4.660 -16.801  0.00  0.00     0.050 C 
BRANCH  15  17
HETATM   17  N           1     -30.607  -3.158 -18.147  0.00  0.00    -0.067 N 
HETATM   18  H           1     -29.843  -2.460 -18.004  0.00  0.00     0.275 HD
HETATM   19  H           1     -31.528  -2.666 -18.190  0.00  0.00     0.275 HD
HETATM   20  H           1     -30.446  -3.672 -19.042  0.00  0.00     0.275 HD
ENDBRANCH  15  17
ENDBRANCH   3  15
TORSDOF 6
ENDMDL
MODEL 9
REMARK VINA RESULT:      -5.4      2.034      3.367
REMARK  6 active torsions:
REMARK  status: ('A' for Active; 'I' for Inactive)
REMARK    1  A    between atoms: N_5  and  C_15 
REMARK       I    between atoms: N_5  and  C_17 
REMARK       I    between atoms: C_7  and  N_20 
REMARK    2  A    between atoms: C_7  and  C_12 
REMARK    3  A    between atoms: N_9  and  C_11 
REMARK    4  A    between atoms: C_11  and  C_17 
REMARK    5  A    between atoms: C_12  and  C_15 
REMARK    6  A    between atoms: C_13  and  C_15 
ROOT
HETATM    1  N           1     -27.245  -6.405 -17.214  0.00  0.00    -0.344 N 
HETATM    2  H           1     -27.658  -6.672 -16.330  0.00  0.00     0.163 HD
HETATM    3  C           1     -25.927  -6.675 -17.463  0.00  0.00     0.248 C 
HETATM    4  O           1     -25.434  -6.356 -18.519  0.00  0.00    -0.271 OA
ENDROOT
BRANCH   1   5
HETATM    5  C           1     -28.050  -5.735 -18.217  0.00  0.00     0.194 C 
BRANCH   5   6
HETATM    6  C           1     -29.176  -6.657 -18.663  0.00  0.00     0.138 C 
BRANCH   6   7
HETATM    7  C           1     -29.858  -7.242 -17.450  0.00  0.00     0.217 C 
HETATM    8  O           1     -29.415  -8.238 -16.929  0.00  0.00    -0.274 OA
HETATM    9  N           1     -30.980  -6.644 -16.940  0.00  0.00    -0.370 N 
HETATM   10  H           1     -31.437  -7.036 -16.127  0.00  0.00     0.159 HD
HETATM   11  H           1     -31.352  -5.810 -17.377  0.00  0.00     0.159 HD
ENDBRANCH   6   7
ENDBRANCH   5   6
BRANCH   5  12
HETATM   12  C           1     -28.634  -4.473 -17.631  0.00  0.00     0.197 C 
HETATM   13  O           1     -28.050  -3.891 -16.691  0.00  0.00    -0.646 OA
HETATM   14  O           1     -29.701  -4.008 -18.086  0.00  0.00    -0.646 OA
ENDBRANCH   5  12
ENDBRANCH   1   5
BRANCH   3  15
HETATM   15  C           1     -25.089  -7.373 -16.419  0.00  0.00     0.270 C 
HETATM   16  C           1     -24.974  -6.488 -15.185  0.00  0.00     0.050 C 
BRANCH  15  17
HETATM   17  N           1     -23.720  -7.639 -16.972  0.00  0.00    -0.067 N 
HETATM   18  H           1     -23.272  -6.735 -17.243  0.00  0.00     0.275 HD
HETATM   19  H           1     -23.799  -8.255 -17.812  0.00  0.00     0.275 HD
HETATM   20  H           1     -23.137  -8.113 -16.246  0.00  0.00     0.275 HD
ENDBRANCH  15  17
ENDBRANCH   3  15
TORSDOF 6
ENDMDL
