MODEL 1
REMARK VINA RESULT:      -6.8      0.000      0.000
REMARK  10 active torsions:
REMARK  status: ('A' for Active; 'I' for Inactive)
REMARK    1  A    between atoms: O_1  and  C_15 
REMARK    2  A    between atoms: C_7  and  C_12 
REMARK    3  A    between atoms: C_7  and  C_8 
REMARK    4  A    between atoms: C_8  and  C_24 
REMARK    5  A    between atoms: C_8  and  N_10 
REMARK       I    between atoms: C_9  and  N_10 
REMARK    6  A    between atoms: C_9  and  C_14 
REMARK    7  A    between atoms: C_12  and  C_20 
REMARK    8  A    between atoms: C_14  and  C_15 
REMARK    9  A    between atoms: C_14  and  N_19 
REMARK       I    between atoms: N_18  and  C_25 
REMARK   10  A    between atoms: C_20  and  N_28 
REMARK       I    between atoms: N_23  and  C_25 
ROOT
HETATM    1  C           1     -28.606  -6.290 -18.320  0.00  0.00     0.185 C 
ENDROOT
BRANCH   1   2
HETATM    2  C           1     -29.194  -4.942 -18.718  0.00  0.00     0.038 C 
BRANCH   2   3
HETATM    3  C           1     -28.994  -3.947 -17.582  0.00  0.00     0.023 C 
BRANCH   3   4
HETATM    4  C           1     -30.333  -3.320 -17.215  0.00  0.00     0.138 C 
BRANCH   4   5
HETATM    5  N           1     -31.254  -4.368 -16.750  0.00  0.00    -0.227 N 
HETATM    6  H           1     -30.877  -5.227 -16.280  0.00  0.00     0.177 HD
HETATM    7  C           1     -32.502  -4.234 -16.917  0.00  0.00     0.665 C 
HETATM    8  N           1     -32.957  -3.197 -17.485  0.00  0.00    -0.235 N 
HETATM    9  N           1     -33.316  -5.160 -16.506  0.00  0.00    -0.235 N 
HETATM   10  H           1     -33.991  -3.086 -17.623  0.00  0.00     0.174 HD
HETATM   11  H           1     -32.299  -2.449 -17.816  0.00  0.00     0.174 HD
HETATM   12  H           1     -34.345  -5.049 -16.644  0.00  0.00     0.174 HD
HETATM   13  H           1     -32.940  -6.015 -16.038  0.00  0.00     0.174 HD
ENDBRANCH   4   5
ENDBRANCH   3   4
ENDBRANCH   2   3
ENDBRANCH   1   2
BRANCH   1  14
HETATM   14  C           1     -29.705  -7.322 -18.266  0.00  0.00     0.196 C 
HETATM   15  O           1     -29.602  -8.381 -18.921  0.00  0.00    -0.646 OA
HETATM   16  O           1     -30.720  -7.116 -17.566  0.00  0.00    -0.646 OA
ENDBRANCH   1  14
BRANCH   1  17
HETATM   17  N           1     -27.615  -6.692 -19.301  0.00  0.00    -0.345 N 
HETATM   18  C           1     -26.282  -6.619 -18.996  0.00  0.00     0.251 C 
HETATM   19  O           1     -25.931  -6.221 -17.911  0.00  0.00    -0.271 OA
HETATM   20  H           1     -27.909  -7.026 -20.210  0.00  0.00     0.163 HD
BRANCH  18  21
HETATM   21  C           1     -25.252  -7.037 -20.016  0.00  0.00     0.297 C 
BRANCH  21  22
HETATM   22  C           1     -25.878  -8.015 -21.001  0.00  0.00     0.206 C 
BRANCH  22  23
HETATM   23  O           1     -24.873  -8.599 -21.783  0.00  0.00    -0.398 OA
HETATM   24  H           1     -25.074  -9.518 -21.845  0.00  0.00     0.209 HD
ENDBRANCH  22  23
ENDBRANCH  21  22
BRANCH  21  25
HETATM   25  N           1     -24.100  -7.698 -19.320  0.00  0.00    -0.064 N 
HETATM   26  H           1     -23.901  -7.202 -18.423  0.00  0.00     0.275 HD
HETATM   27  H           1     -24.340  -8.696 -19.119  0.00  0.00     0.275 HD
HETATM   28  H           1     -23.254  -7.660 -19.934  0.00  0.00     0.275 HD
ENDBRANCH  21  25
ENDBRANCH  18  21
ENDBRANCH   1  17
TORSDOF 10
ENDMDL
MODEL 2
REMARK VINA RESULT:      -6.7      1.923      2.555
REMARK  10 active torsions:
REMARK  status: ('A' for Active; 'I' for Inactive)
REMARK    1  A    between atoms: O_1  and  C_15 
REMARK    2  A    between atoms: C_7  and  C_12 
REMARK    3  A    between atoms: C_7  and  C_8 
REMARK    4  A    between atoms: C_8  and  C_24 
REMARK    5  A    between atoms: C_8  and  N_10 
REMARK       I    between atoms: C_9  and  N_10 
REMARK    6  A    between atoms: C_9  and  C_14 
REMARK    7  A    between atoms: C_12  and  C_20 
REMARK    8  A    between atoms: C_14  and  C_15 
REMARK    9  A    between atoms: C_14  and  N_19 
REMARK       I    between atoms: N_18  and  C_25 
REMARK   10  A    between atoms: C_20  and  N_28 
REMARK       I    between atoms: N_23  and  C_25 
ROOT
HETATM    1  C           1     -26.125  -6.099 -17.067  0.00  0.00     0.185 C 
ENDROOT
BRANCH   1   2
HETATM    2  C           1     -27.434  -5.363 -16.813  0.00  0.00     0.038 C 
BRANCH   2   3
HETATM    3  C           1     -28.355  -5.534 -18.014  0.00  0.00     0.023 C 
BRANCH   3   4
HETATM    4  C           1     -29.441  -4.466 -17.979  0.00  0.00     0.138 C 
BRANCH   4   5
HETATM    5  N           1     -30.531  -4.904 -17.095  0.00  0.00    -0.227 N 
HETATM    6  H           1     -30.447  -5.806 -16.566  0.00  0.00     0.177 HD
HETATM    7  C           1     -31.570  -4.192 -16.971  0.00  0.00     0.665 C 
HETATM    8  N           1     -31.671  -3.103 -17.610  0.00  0.00    -0.235 N 
HETATM    9  N           1     -32.534  -4.579 -16.189  0.00  0.00    -0.235 N 
HETATM   10  H           1     -32.533  -2.512 -17.507  0.00  0.00     0.174 HD
HETATM   11  H           1     -30.893  -2.790 -18.241  0.00  0.00     0.174 HD
HETATM   12  H           1     -33.391  -3.991 -16.088  0.00  0.00     0.174 HD
HETATM   13  H           1     -32.450  -5.477 -15.663  0.00  0.00     0.174 HD
ENDBRANCH   4   5
ENDBRANCH   3   4
ENDBRANCH   2   3
ENDBRANCH   1   2
BRANCH   1  14
HETATM   14  C           1     -25.952  -7.187 -16.035  0.00  0.00     0.196 C 
HETATM   15  O           1     -26.919  -7.537 -15.327  0.00  0.00    -0.646 OA
HETATM   16  O           1     -24.838  -7.735 -15.889  0.00  0.00    -0.646 OA
ENDBRANCH   1  14
BRANCH   1  17
HETATM   17  N           1     -26.154  -6.691 -18.391  0.00  0.00    -0.345 N 
HETATM   18  C           1     -25.004  -6.776 -19.128  0.00  0.00     0.251 C 
HETATM   19  O           1     -23.964  -6.359 -18.676  0.00  0.00    -0.271 OA
HETATM   20  H           1     -27.025  -7.041 -18.770  0.00  0.00     0.163 HD
BRANCH  18  21
HETATM   21  C           1     -25.034  -7.391 -20.505  0.00  0.00     0.297 C 
BRANCH  21  22
HETATM   22  C           1     -26.460  -7.798 -20.849  0.00  0.00     0.206 C 
BRANCH  22  23
HETATM   23  O           1     -26.437  -8.919 -21.690  0.00  0.00    -0.398 OA
HETATM   24  H           1     -25.785  -8.752 -22.350  0.00  0.00     0.209 HD
ENDBRANCH  22  23
ENDBRANCH  21  22
BRANCH  21  25
HETATM   25  N           1     -24.148  -8.601 -20.531  0.00  0.00    -0.064 N 
HETATM   26  H           1     -24.518  -9.289 -21.224  0.00  0.00     0.275 HD
HETATM   27  H           1     -23.180  -8.319 -20.804  0.00  0.00     0.275 HD
HETATM   28  H           1     -24.130  -9.039 -19.582  0.00  0.00     0.275 HD
ENDBRANCH  21  25
ENDBRANCH  18  21
ENDBRANCH   1  17
TORSDOF 10
ENDMDL
MODEL 3
REMARK VINA RESULT:      -5.7     13.890     14.934
REMARK  10 active torsions:
REMARK  status: ('A' for Active; 'I' for Inactive)
REMARK    1  A    between atoms: O_1  and  C_15 
REMARK    2  A    between atoms: C_7  and  C_12 
REMARK    3  A    between atoms: C_7  and  C_8 
REMARK    4  A    between atoms: C_8  and  C_24 
REMARK    5  A    between atoms: C_8  and  N_10 
REMARK       I    between atoms: C_9  and  N_10 
REMARK    6  A    between atoms: C_9  and  C_14 
REMARK    7  A    between atoms: C_12  and  C_20 
REMARK    8  A    between atoms: C_14  and  C_15 
REMARK    9  A    between atoms: C_14  and  N_19 
REMARK       I    between atoms: N_18  and  C_25 
REMARK   10  A    between atoms: C_20  and  N_28 
REMARK       I    between atoms: N_23  and  C_25 
ROOT
HETATM    1  C           1     -20.498  -6.751  -5.454  0.00  0.00     0.185 C 
ENDROOT
BRANCH   1   2
HETATM    2  C           1     -20.304  -6.006  -6.768  0.00  0.00     0.038 C 
BRANCH   2   3
HETATM    3  C           1     -20.034  -4.534  -6.483  0.00  0.00     0.023 C 
BRANCH   3   4
HETATM    4  C           1     -20.635  -3.683  -7.594  0.00  0.00     0.138 C 
BRANCH   4   5
HETATM    5  N           1     -22.099  -3.661  -7.458  0.00  0.00    -0.227 N 
HETATM    6  H           1     -22.538  -3.341  -6.560  0.00  0.00     0.177 HD
HETATM    7  C           1     -22.830  -4.029  -8.423  0.00  0.00     0.665 C 
HETATM    8  N           1     -22.300  -4.415  -9.507  0.00  0.00    -0.235 N 
HETATM    9  N           1     -24.124  -4.010  -8.303  0.00  0.00    -0.235 N 
HETATM   10  H           1     -22.907  -4.720 -10.308  0.00  0.00     0.174 HD
HETATM   11  H           1     -21.255  -4.431  -9.604  0.00  0.00     0.174 HD
HETATM   12  H           1     -24.727  -4.313  -9.100  0.00  0.00     0.174 HD
HETATM   13  H           1     -24.560  -3.691  -7.409  0.00  0.00     0.174 HD
ENDBRANCH   4   5
ENDBRANCH   3   4
ENDBRANCH   2   3
ENDBRANCH   1   2
BRANCH   1  14
HETATM   14  C           1     -21.751  -6.254  -4.775  0.00  0.00     0.196 C 
HETATM   15  O           1     -22.781  -6.033  -5.447  0.00  0.00    -0.646 OA
HETATM   16  O           1     -21.758  -6.061  -3.540  0.00  0.00    -0.646 OA
ENDBRANCH   1  14
BRANCH   1  17
HETATM   17  N           1     -20.624  -8.171  -5.718  0.00  0.00    -0.345 N 
HETATM   18  C           1     -19.948  -9.074  -4.942  0.00  0.00     0.251 C 
HETATM   19  O           1     -19.247  -8.688  -4.037  0.00  0.00    -0.271 OA
HETATM   20  H           1     -21.212  -8.495  -6.476  0.00  0.00     0.163 HD
BRANCH  18  21
HETATM   21  C           1     -20.078 -10.552  -5.217  0.00  0.00     0.297 C 
BRANCH  21  22
HETATM   22  C           1     -18.788 -11.069  -5.840  0.00  0.00     0.206 C 
BRANCH  22  23
HETATM   23  O           1     -18.121 -10.014  -6.477  0.00  0.00    -0.398 OA
HETATM   24  H           1     -17.748  -9.476  -5.799  0.00  0.00     0.209 HD
ENDBRANCH  22  23
ENDBRANCH  21  22
BRANCH  21  25
HETATM   25  N           1     -21.219 -10.785  -6.162  0.00  0.00    -0.064 N 
HETATM   26  H           1     -22.110 -10.861  -5.623  0.00  0.00     0.275 HD
HETATM   27  H           1     -21.284  -9.987  -6.833  0.00  0.00     0.275 HD
HETATM   28  H           1     -21.056 -11.673  -6.691  0.00  0.00     0.275 HD
ENDBRANCH  21  25
ENDBRANCH  18  21
ENDBRANCH   1  17
TORSDOF 10
ENDMDL
MODEL 4
REMARK VINA RESULT:      -5.6     12.886     14.221
REMARK  10 active torsions:
REMARK  status: ('A' for Active; 'I' for Inactive)
REMARK    1  A    between atoms: O_1  and  C_15 
REMARK    2  A    between atoms: C_7  and  C_12 
REMARK    3  A    between atoms: C_7  and  C_8 
REMARK    4  A    between atoms: C_8  and  C_24 
REMARK    5  A    between atoms: C_8  and  N_10 
REMARK       I    between atoms: C_9  and  N_10 
REMARK    6  A    between atoms: C_9  and  C_14 
REMARK    7  A    between atoms: C_12  and  C_20 
REMARK    8  A    between atoms: C_14  and  C_15 
REMARK    9  A    between atoms: C_14  and  N_19 
REMARK       I    between atoms: N_18  and  C_25 
REMARK   10  A    between atoms: C_20  and  N_28 
REMARK       I    between atoms: N_23  and  C_25 
ROOT
HETATM    1  C           1     -21.113  -4.846  -7.742  0.00  0.00     0.185 C 
ENDROOT
BRANCH   1   2
HETATM    2  C           1     -20.802  -6.023  -6.827  0.00  0.00     0.038 C 
BRANCH   2   3
HETATM    3  C           1     -21.049  -5.620  -5.379  0.00  0.00     0.023 C 
BRANCH   3   4
HETATM    4  C           1     -21.904  -6.679  -4.695  0.00  0.00     0.138 C 
BRANCH   4   5
HETATM    5  N           1     -22.309  -6.199  -3.366  0.00  0.00    -0.227 N 
HETATM    6  H           1     -22.967  -5.386  -3.280  0.00  0.00     0.177 HD
HETATM    7  C           1     -21.864  -6.766  -2.326  0.00  0.00     0.665 C 
HETATM    8  N           1     -21.070  -7.747  -2.430  0.00  0.00    -0.235 N 
HETATM    9  N           1     -22.222  -6.342  -1.150  0.00  0.00    -0.235 N 
HETATM   10  H           1     -20.701  -8.217  -1.567  0.00  0.00     0.174 HD
HETATM   11  H           1     -20.781  -8.090  -3.379  0.00  0.00     0.174 HD
HETATM   12  H           1     -21.854  -6.810  -0.292  0.00  0.00     0.174 HD
HETATM   13  H           1     -22.877  -5.532  -1.065  0.00  0.00     0.174 HD
ENDBRANCH   4   5
ENDBRANCH   3   4
ENDBRANCH   2   3
ENDBRANCH   1   2
BRANCH   1  14
HETATM   14  C           1     -19.876  -4.477  -8.524  0.00  0.00     0.196 C 
HETATM   15  O           1     -18.823  -4.175  -7.924  0.00  0.00    -0.646 OA
HETATM   16  O           1     -19.907  -4.471  -9.774  0.00  0.00    -0.646 OA
ENDBRANCH   1  14
BRANCH   1  17
HETATM   17  N           1     -22.172  -5.215  -8.661  0.00  0.00    -0.345 N 
HETATM   18  C           1     -23.128  -4.298  -9.007  0.00  0.00     0.251 C 
HETATM   19  O           1     -23.089  -3.182  -8.549  0.00  0.00    -0.271 OA
HETATM   20  H           1     -22.205  -6.151  -9.046  0.00  0.00     0.163 HD
BRANCH  18  21
HETATM   21  C           1     -24.231  -4.683  -9.963  0.00  0.00     0.297 C 
BRANCH  21  22
HETATM   22  C           1     -23.670  -4.774 -11.376  0.00  0.00     0.206 C 
BRANCH  22  23
HETATM   23  O           1     -22.493  -4.018 -11.462  0.00  0.00    -0.398 OA
HETATM   24  H           1     -21.994  -4.199 -10.683  0.00  0.00     0.209 HD
ENDBRANCH  22  23
ENDBRANCH  21  22
BRANCH  21  25
HETATM   25  N           1     -25.313  -3.645  -9.921  0.00  0.00    -0.064 N 
HETATM   26  H           1     -24.930  -2.758  -9.524  0.00  0.00     0.275 HD
HETATM   27  H           1     -25.665  -3.470 -10.889  0.00  0.00     0.275 HD
HETATM   28  H           1     -26.098  -3.985  -9.320  0.00  0.00     0.275 HD
ENDBRANCH  21  25
ENDBRANCH  18  21
ENDBRANCH   1  17
TORSDOF 10
ENDMDL
MODEL 5
REMARK VINA RESULT:      -5.4     15.424     16.438
REMARK  10 active torsions:
REMARK  status: ('A' for Active; 'I' for Inactive)
REMARK    1  A    between atoms: O_1  and  C_15 
REMARK    2  A    between atoms: C_7  and  C_12 
REMARK    3  A    between atoms: C_7  and  C_8 
REMARK    4  A    between atoms: C_8  and  C_24 
REMARK    5  A    between atoms: C_8  and  N_10 
REMARK       I    between atoms: C_9  and  N_10 
REMARK    6  A    between atoms: C_9  and  C_14 
REMARK    7  A    between atoms: C_12  and  C_20 
REMARK    8  A    between atoms: C_14  and  C_15 
REMARK    9  A    between atoms: C_14  and  N_19 
REMARK       I    between atoms: N_18  and  C_25 
REMARK   10  A    between atoms: C_20  and  N_28 
REMARK       I    between atoms: N_23  and  C_25 
ROOT
HETATM    1  C           1     -21.051  -6.527  -4.761  0.00  0.00     0.185 C 
ENDROOT
BRANCH   1   2
HETATM    2  C           1     -22.087  -6.677  -3.653  0.00  0.00     0.038 C 
BRANCH   2   3
HETATM    3  C           1     -21.532  -6.098  -2.358  0.00  0.00     0.023 C 
BRANCH   3   4
HETATM    4  C           1     -22.337  -6.628  -1.178  0.00  0.00     0.138 C 
BRANCH   4   5
HETATM    5  N           1     -22.071  -8.064  -1.009  0.00  0.00    -0.227 N 
HETATM    6  H           1     -21.368  -8.544  -1.624  0.00  0.00     0.177 HD
HETATM    7  C           1     -22.689  -8.723  -0.123  0.00  0.00     0.665 C 
HETATM    8  N           1     -23.538  -8.144   0.619  0.00  0.00    -0.235 N 
HETATM    9  N           1     -22.454  -9.992   0.027  0.00  0.00    -0.235 N 
HETATM   10  H           1     -24.051  -8.690   1.354  0.00  0.00     0.174 HD
HETATM   11  H           1     -23.728  -7.119   0.498  0.00  0.00     0.174 HD
HETATM   12  H           1     -22.965 -10.535   0.758  0.00  0.00     0.174 HD
HETATM   13  H           1     -21.754 -10.469  -0.585  0.00  0.00     0.174 HD
ENDBRANCH   4   5
ENDBRANCH   3   4
ENDBRANCH   2   3
ENDBRANCH   1   2
BRANCH   1  14
HETATM   14  C           1     -20.644  -7.893  -5.255  0.00  0.00     0.196 C 
HETATM   15  O           1     -21.368  -8.884  -5.023  0.00  0.00    -0.646 OA
HETATM   16  O           1     -19.580  -8.033  -5.897  0.00  0.00    -0.646 OA
ENDBRANCH   1  14
BRANCH   1  17
HETATM   17  N           1     -21.624  -5.768  -5.856  0.00  0.00    -0.345 N 
HETATM   18  C           1     -20.930  -4.720  -6.397  0.00  0.00     0.251 C 
HETATM   19  O           1     -19.841  -4.426  -5.964  0.00  0.00    -0.271 OA
HETATM   20  H           1     -22.535  -6.014  -6.220  0.00  0.00     0.163 HD
BRANCH  18  21
HETATM   21  C           1     -21.525  -3.930  -7.537  0.00  0.00     0.297 C 
BRANCH  21  22
HETATM   22  C           1     -22.885  -4.510  -7.902  0.00  0.00     0.206 C 
BRANCH  22  23
HETATM   23  O           1     -23.787  -4.283  -6.854  0.00  0.00    -0.398 OA
HETATM   24  H           1     -23.908  -5.107  -6.414  0.00  0.00     0.209 HD
ENDBRANCH  22  23
ENDBRANCH  21  22
BRANCH  21  25
HETATM   25  N           1     -20.614  -4.005  -8.726  0.00  0.00    -0.064 N 
HETATM   26  H           1     -19.775  -4.580  -8.488  0.00  0.00     0.275 HD
HETATM   27  H           1     -21.121  -4.445  -9.527  0.00  0.00     0.275 HD
HETATM   28  H           1     -20.311  -3.040  -8.994  0.00  0.00     0.275 HD
ENDBRANCH  21  25
ENDBRANCH  18  21
ENDBRANCH   1  17
TORSDOF 10
ENDMDL
MODEL 6
REMARK VINA RESULT:      -5.2     12.229     13.923
REMARK  10 active torsions:
REMARK  status: ('A' for Active; 'I' for Inactive)
REMARK    1  A    between atoms: O_1  and  C_15 
REMARK    2  A    between atoms: C_7  and  C_12 
REMARK    3  A    between atoms: C_7  and  C_8 
REMARK    4  A    between atoms: C_8  and  C_24 
REMARK    5  A    between atoms: C_8  and  N_10 
REMARK       I    between atoms: C_9  and  N_10 
REMARK    6  A    between atoms: C_9  and  C_14 
REMARK    7  A    between atoms: C_12  and  C_20 
REMARK    8  A    between atoms: C_14  and  C_15 
REMARK    9  A    between atoms: C_14  and  N_19 
REMARK       I    between atoms: N_18  and  C_25 
REMARK   10  A    between atoms: C_20  and  N_28 
REMARK       I    between atoms: N_23  and  C_25 
ROOT
HETATM    1  C           1     -21.245  -4.838  -7.584  0.00  0.00     0.185 C 
ENDROOT
BRANCH   1   2
HETATM    2  C           1     -21.160  -6.187  -6.881  0.00  0.00     0.038 C 
BRANCH   2   3
HETATM    3  C           1     -21.865  -6.102  -5.533  0.00  0.00     0.023 C 
BRANCH   3   4
HETATM    4  C           1     -21.595  -7.374  -4.738  0.00  0.00     0.138 C 
BRANCH   4   5
HETATM    5  N           1     -21.116  -8.427  -5.645  0.00  0.00    -0.227 N 
HETATM    6  H           1     -20.806  -8.181  -6.617  0.00  0.00     0.177 HD
HETATM    7  C           1     -21.078  -9.630  -5.253  0.00  0.00     0.665 C 
HETATM    8  N           1     -21.452  -9.926  -4.080  0.00  0.00    -0.235 N 
HETATM    9  N           1     -20.655 -10.561  -6.055  0.00  0.00    -0.235 N 
HETATM   10  H           1     -21.421 -10.924  -3.756  0.00  0.00     0.174 HD
HETATM   11  H           1     -21.794  -9.174  -3.433  0.00  0.00     0.174 HD
HETATM   12  H           1     -20.623 -11.554  -5.732  0.00  0.00     0.174 HD
HETATM   13  H           1     -20.346 -10.316  -7.023  0.00  0.00     0.174 HD
ENDBRANCH   4   5
ENDBRANCH   3   4
ENDBRANCH   2   3
ENDBRANCH   1   2
BRANCH   1  14
HETATM   14  C           1     -19.852  -4.317  -7.841  0.00  0.00     0.196 C 
HETATM   15  O           1     -19.622  -3.621  -8.852  0.00  0.00    -0.646 OA
HETATM   16  O           1     -18.929  -4.583  -7.041  0.00  0.00    -0.646 OA
ENDBRANCH   1  14
BRANCH   1  17
HETATM   17  N           1     -21.942  -4.995  -8.846  0.00  0.00    -0.345 N 
HETATM   18  C           1     -23.218  -4.519  -8.987  0.00  0.00     0.251 C 
HETATM   19  O           1     -23.763  -3.968  -8.061  0.00  0.00    -0.271 OA
HETATM   20  H           1     -21.484  -5.456  -9.622  0.00  0.00     0.163 HD
BRANCH  18  21
HETATM   21  C           1     -23.943  -4.682 -10.300  0.00  0.00     0.297 C 
BRANCH  21  22
HETATM   22  C           1     -22.940  -4.623 -11.446  0.00  0.00     0.206 C 
BRANCH  22  23
HETATM   23  O           1     -23.602  -4.856 -12.659  0.00  0.00    -0.398 OA
HETATM   24  H           1     -24.141  -5.619 -12.535  0.00  0.00     0.209 HD
ENDBRANCH  22  23
ENDBRANCH  21  22
BRANCH  21  25
HETATM   25  N           1     -24.946  -3.579 -10.458  0.00  0.00    -0.064 N 
HETATM   26  H           1     -25.659  -3.644  -9.697  0.00  0.00     0.275 HD
HETATM   27  H           1     -24.460  -2.655 -10.401  0.00  0.00     0.275 HD
HETATM   28  H           1     -25.418  -3.668 -11.386  0.00  0.00     0.275 HD
ENDBRANCH  21  25
ENDBRANCH  18  21
ENDBRANCH   1  17
TORSDOF 10
ENDMDL
MODEL 7
REMARK VINA RESULT:      -5.2     17.716     18.871
REMARK  10 active torsions:
REMARK  status: ('A' for Active; 'I' for Inactive)
REMARK    1  A    between atoms: O_1  and  C_15 
REMARK    2  A    between atoms: C_7  and  C_12 
REMARK    3  A    between atoms: C_7  and  C_8 
REMARK    4  A    between atoms: C_8  and  C_24 
REMARK    5  A    between atoms: C_8  and  N_10 
REMARK       I    between atoms: C_9  and  N_10 
REMARK    6  A    between atoms: C_9  and  C_14 
REMARK    7  A    between atoms: C_12  and  C_20 
REMARK    8  A    between atoms: C_14  and  C_15 
REMARK    9  A    between atoms: C_14  and  N_19 
REMARK       I    between atoms: N_18  and  C_25 
REMARK   10  A    between atoms: C_20  and  N_28 
REMARK       I    between atoms: N_23  and  C_25 
ROOT
HETATM    1  C           1     -21.244  -8.125  -1.014  0.00  0.00     0.185 C 
ENDROOT
BRANCH   1   2
HETATM    2  C           1     -20.465  -7.798  -2.281  0.00  0.00     0.038 C 
BRANCH   2   3
HETATM    3  C           1     -20.881  -8.751  -3.394  0.00  0.00     0.023 C 
BRANCH   3   4
HETATM    4  C           1     -21.597  -7.971  -4.489  0.00  0.00     0.138 C 
BRANCH   4   5
HETATM    5  N           1     -21.161  -6.568  -4.457  0.00  0.00    -0.227 N 
HETATM    6  H           1     -21.209  -6.024  -3.561  0.00  0.00     0.177 HD
HETATM    7  C           1     -20.728  -6.016  -5.510  0.00  0.00     0.665 C 
HETATM    8  N           1     -20.670  -6.672  -6.592  0.00  0.00    -0.235 N 
HETATM    9  N           1     -20.342  -4.775  -5.482  0.00  0.00    -0.235 N 
HETATM   10  H           1     -20.310  -6.214  -7.466  0.00  0.00     0.174 HD
HETATM   11  H           1     -20.981  -7.675  -6.615  0.00  0.00     0.174 HD
HETATM   12  H           1     -19.984  -4.319  -6.352  0.00  0.00     0.174 HD
HETATM   13  H           1     -20.389  -4.233  -4.590  0.00  0.00     0.174 HD
ENDBRANCH   4   5
ENDBRANCH   3   4
ENDBRANCH   2   3
ENDBRANCH   1   2
BRANCH   1  14
HETATM   14  C           1     -22.383  -7.147  -0.857  0.00  0.00     0.196 C 
HETATM   15  O           1     -23.260  -7.343   0.011  0.00  0.00    -0.646 OA
HETATM   16  O           1     -22.449  -6.143  -1.598  0.00  0.00    -0.646 OA
ENDBRANCH   1  14
BRANCH   1  17
HETATM   17  N           1     -21.774  -9.472  -1.108  0.00  0.00    -0.345 N 
HETATM   18  C           1     -21.652 -10.331  -0.050  0.00  0.00     0.251 C 
HETATM   19  O           1     -21.102  -9.969   0.963  0.00  0.00    -0.271 OA
HETATM   20  H           1     -22.235  -9.776  -1.957  0.00  0.00     0.163 HD
BRANCH  18  21
HETATM   21  C           1     -22.203 -11.733  -0.148  0.00  0.00     0.297 C 
BRANCH  21  22
HETATM   22  C           1     -23.725 -11.685  -0.105  0.00  0.00     0.206 C 
BRANCH  22  23
HETATM   23  O           1     -24.145 -10.364   0.102  0.00  0.00    -0.398 OA
HETATM   24  H           1     -23.797  -9.851  -0.607  0.00  0.00     0.209 HD
ENDBRANCH  22  23
ENDBRANCH  21  22
BRANCH  21  25
HETATM   25  N           1     -21.696 -12.551   1.002  0.00  0.00    -0.064 N 
HETATM   26  H           1     -21.505 -11.927   1.817  0.00  0.00     0.275 HD
HETATM   27  H           1     -22.416 -13.260   1.269  0.00  0.00     0.275 HD
HETATM   28  H           1     -20.814 -13.037   0.722  0.00  0.00     0.275 HD
ENDBRANCH  21  25
ENDBRANCH  18  21
ENDBRANCH   1  17
TORSDOF 10
ENDMDL
MODEL 8
REMARK VINA RESULT:      -4.9     16.436     17.437
REMARK  10 active torsions:
REMARK  status: ('A' for Active; 'I' for Inactive)
REMARK    1  A    between atoms: O_1  and  C_15 
REMARK    2  A    between atoms: C_7  and  C_12 
REMARK    3  A    between atoms: C_7  and  C_8 
REMARK    4  A    between atoms: C_8  and  C_24 
REMARK    5  A    between atoms: C_8  and  N_10 
REMARK       I    between atoms: C_9  and  N_10 
REMARK    6  A    between atoms: C_9  and  C_14 
REMARK    7  A    between atoms: C_12  and  C_20 
REMARK    8  A    between atoms: C_14  and  C_15 
REMARK    9  A    between atoms: C_14  and  N_19 
REMARK       I    between atoms: N_18  and  C_25 
REMARK   10  A    between atoms: C_20  and  N_28 
REMARK       I    between atoms: N_23  and  C_25 
ROOT
HETATM    1  C           1     -21.201  -7.097  -5.109  0.00  0.00     0.185 C 
ENDROOT
BRANCH   1   2
HETATM    2  C           1     -22.013  -6.330  -4.073  0.00  0.00     0.038 C 
BRANCH   2   3
HETATM    3  C           1     -21.271  -6.333  -2.743  0.00  0.00     0.023 C 
BRANCH   3   4
HETATM    4  C           1     -22.228  -6.734  -1.628  0.00  0.00     0.138 C 
BRANCH   4   5
HETATM    5  N           1     -21.946  -8.116  -1.213  0.00  0.00    -0.227 N 
HETATM    6  H           1     -21.226  -8.681  -1.727  0.00  0.00     0.177 HD
HETATM    7  C           1     -22.571  -8.624  -0.237  0.00  0.00     0.665 C 
HETATM    8  N           1     -23.439  -7.942   0.383  0.00  0.00    -0.235 N 
HETATM    9  N           1     -22.321  -9.846   0.129  0.00  0.00    -0.235 N 
HETATM   10  H           1     -23.958  -8.364   1.193  0.00  0.00     0.174 HD
HETATM   11  H           1     -23.641  -6.955   0.087  0.00  0.00     0.174 HD
HETATM   12  H           1     -22.838 -10.265   0.935  0.00  0.00     0.174 HD
HETATM   13  H           1     -21.605 -10.409  -0.383  0.00  0.00     0.174 HD
ENDBRANCH   4   5
ENDBRANCH   3   4
ENDBRANCH   2   3
ENDBRANCH   1   2
BRANCH   1  14
HETATM   14  C           1     -20.427  -6.122  -5.963  0.00  0.00     0.196 C 
HETATM   15  O           1     -20.284  -4.939  -5.589  0.00  0.00    -0.646 OA
HETATM   16  O           1     -19.931  -6.500  -7.046  0.00  0.00    -0.646 OA
ENDBRANCH   1  14
BRANCH   1  17
HETATM   17  N           1     -20.276  -7.987  -4.434  0.00  0.00    -0.345 N 
HETATM   18  C           1     -20.169  -9.292  -4.833  0.00  0.00     0.251 C 
HETATM   19  O           1     -20.844  -9.703  -5.746  0.00  0.00    -0.271 OA
HETATM   20  H           1     -19.710  -7.643  -3.669  0.00  0.00     0.163 HD
BRANCH  18  21
HETATM   21  C           1     -19.207 -10.219  -4.130  0.00  0.00     0.297 C 
BRANCH  21  22
HETATM   22  C           1     -19.877 -10.807  -2.896  0.00  0.00     0.206 C 
BRANCH  22  23
HETATM   23  O           1     -21.229 -10.439  -2.877  0.00  0.00    -0.398 OA
HETATM   24  H           1     -21.704 -11.117  -3.328  0.00  0.00     0.209 HD
ENDBRANCH  22  23
ENDBRANCH  21  22
BRANCH  21  25
HETATM   25  N           1     -17.986  -9.452  -3.718  0.00  0.00    -0.064 N 
HETATM   26  H           1     -18.174  -8.428  -3.796  0.00  0.00     0.275 HD
HETATM   27  H           1     -17.744  -9.687  -2.729  0.00  0.00     0.275 HD
HETATM   28  H           1     -17.187  -9.708  -4.343  0.00  0.00     0.275 HD
ENDBRANCH  21  25
ENDBRANCH  18  21
ENDBRANCH   1  17
TORSDOF 10
ENDMDL
MODEL 9
REMARK VINA RESULT:      -4.9     16.254     17.287
REMARK  10 active torsions:
REMARK  status: ('A' for Active; 'I' for Inactive)
REMARK    1  A    between atoms: O_1  and  C_15 
REMARK    2  A    between atoms: C_7  and  C_12 
REMARK    3  A    between atoms: C_7  and  C_8 
REMARK    4  A    between atoms: C_8  and  C_24 
REMARK    5  A    between atoms: C_8  and  N_10 
REMARK       I    between atoms: C_9  and  N_10 
REMARK    6  A    between atoms: C_9  and  C_14 
REMARK    7  A    between atoms: C_12  and  C_20 
REMARK    8  A    between atoms: C_14  and  C_15 
REMARK    9  A    between atoms: C_14  and  N_19 
REMARK       I    between atoms: N_18  and  C_25 
REMARK   10  A    between atoms: C_20  and  N_28 
REMARK       I    between atoms: N_23  and  C_25 
ROOT
HETATM    1  C           1     -21.173  -7.658  -3.118  0.00  0.00     0.185 C 
ENDROOT
BRANCH   1   2
HETATM    2  C           1     -21.923  -7.537  -4.438  0.00  0.00     0.038 C 
BRANCH   2   3
HETATM    3  C           1     -20.974  -7.030  -5.516  0.00  0.00     0.023 C 
BRANCH   3   4
HETATM    4  C           1     -21.099  -5.516  -5.631  0.00  0.00     0.138 C 
BRANCH   4   5
HETATM    5  N           1     -22.427  -5.172  -6.159  0.00  0.00    -0.227 N 
HETATM    6  H           1     -23.291  -5.484  -5.650  0.00  0.00     0.177 HD
HETATM    7  C           1     -22.530  -4.499  -7.226  0.00  0.00     0.665 C 
HETATM    8  N           1     -21.488  -4.122  -7.839  0.00  0.00    -0.235 N 
HETATM    9  N           1     -23.705  -4.195  -7.692  0.00  0.00    -0.235 N 
HETATM   10  H           1     -21.573  -3.564  -8.724  0.00  0.00     0.174 HD
HETATM   11  H           1     -20.539  -4.367  -7.463  0.00  0.00     0.174 HD
HETATM   12  H           1     -23.789  -3.640  -8.573  0.00  0.00     0.174 HD
HETATM   13  H           1     -24.564  -4.506  -7.186  0.00  0.00     0.174 HD
ENDBRANCH   4   5
ENDBRANCH   3   4
ENDBRANCH   2   3
ENDBRANCH   1   2
BRANCH   1  14
HETATM   14  C           1     -21.901  -6.875  -2.053  0.00  0.00     0.196 C 
HETATM   15  O           1     -22.264  -7.440  -0.999  0.00  0.00    -0.646 OA
HETATM   16  O           1     -22.142  -5.661  -2.226  0.00  0.00    -0.646 OA
ENDBRANCH   1  14
BRANCH   1  17
HETATM   17  N           1     -21.104  -9.054  -2.728  0.00  0.00    -0.345 N 
HETATM   18  C           1     -19.893  -9.626  -2.445  0.00  0.00     0.251 C 
HETATM   19  O           1     -18.882  -8.969  -2.518  0.00  0.00    -0.271 OA
HETATM   20  H           1     -21.951  -9.604  -2.666  0.00  0.00     0.163 HD
BRANCH  18  21
HETATM   21  C           1     -19.821 -11.078  -2.040  0.00  0.00     0.297 C 
BRANCH  21  22
HETATM   22  C           1     -20.077 -11.202  -0.543  0.00  0.00     0.206 C 
BRANCH  22  23
HETATM   23  O           1     -21.023 -10.245  -0.150  0.00  0.00    -0.398 OA
HETATM   24  H           1     -21.321 -10.491   0.709  0.00  0.00     0.209 HD
ENDBRANCH  22  23
ENDBRANCH  21  22
BRANCH  21  25
HETATM   25  N           1     -18.460 -11.619  -2.360  0.00  0.00    -0.064 N 
HETATM   26  H           1     -18.026 -12.009  -1.494  0.00  0.00     0.275 HD
HETATM   27  H           1     -18.545 -12.375  -3.077  0.00  0.00     0.275 HD
HETATM   28  H           1     -17.859 -10.850  -2.735  0.00  0.00     0.275 HD
ENDBRANCH  21  25
ENDBRANCH  18  21
ENDBRANCH   1  17
TORSDOF 10
ENDMDL
