MODEL 1
REMARK VINA RESULT:      -7.0      0.000      0.000
REMARK  9 active torsions:
REMARK  status: ('A' for Active; 'I' for Inactive)
REMARK    1  A    between atoms: N_2  and  C_25 
REMARK       I    between atoms: N_2  and  C_10 
REMARK       I    between atoms: N_4  and  C_16 
REMARK    2  A    between atoms: N_6  and  C_11 
REMARK    3  A    between atoms: C_10  and  C_11 
REMARK    4  A    between atoms: C_11  and  C_18 
REMARK    5  A    between atoms: C_16  and  C_17 
REMARK    6  A    between atoms: C_17  and  C_18 
REMARK    7  A    between atoms: C_23  and  C_25 
REMARK    8  A    between atoms: C_25  and  C_26 
REMARK    9  A    between atoms: C_26  and  C_27 
ROOT
HETATM    1  H           1     -21.534  -8.542  -6.070  0.00  0.00     0.163 HD
HETATM    2  N           1     -20.807  -8.003  -5.618  0.00  0.00    -0.344 N 
HETATM    3  O           1     -19.567  -6.707  -6.950  0.00  0.00    -0.271 OA
HETATM    4  C           1     -20.445  -6.783  -6.123  0.00  0.00     0.249 C 
ENDROOT
BRANCH   4   5
HETATM    5  C           1     -21.142  -5.532  -5.647  0.00  0.00     0.275 C 
BRANCH   5   6
HETATM    6  N           1     -20.145  -4.418  -5.532  0.00  0.00    -0.066 N 
HETATM    7  H           1     -20.647  -3.502  -5.509  0.00  0.00     0.275 HD
HETATM    8  H           1     -19.594  -4.534  -4.652  0.00  0.00     0.275 HD
HETATM    9  H           1     -19.501  -4.441  -6.354  0.00  0.00     0.275 HD
ENDBRANCH   5   6
BRANCH   5  10
HETATM   10  C           1     -22.225  -5.143  -6.645  0.00  0.00     0.052 C 
BRANCH  10  11
HETATM   11  C           1     -21.722  -4.005  -7.522  0.00  0.00     0.105 C 
BRANCH  11  12
HETATM   12  C           1     -22.694  -3.774  -8.653  0.00  0.00     0.215 C 
HETATM   13  N           1     -24.041  -3.875  -8.431  0.00  0.00    -0.370 N 
HETATM   14  H           1     -24.692  -3.721  -9.190  0.00  0.00     0.159 HD
HETATM   15  H           1     -24.385  -4.106  -7.507  0.00  0.00     0.159 HD
HETATM   16  O           1     -22.283  -3.499  -9.756  0.00  0.00    -0.274 OA
ENDBRANCH  11  12
ENDBRANCH  10  11
ENDBRANCH   5  10
ENDBRANCH   4   5
BRANCH   2  17
HETATM   17  C           1     -20.147  -8.523  -4.436  0.00  0.00     0.189 C 
BRANCH  17  18
HETATM   18  C           1     -18.927  -9.310  -4.847  0.00  0.00     0.197 C 
HETATM   19  O           1     -17.935  -9.366  -4.088  0.00  0.00    -0.646 OA
HETATM   20  O           1     -18.908  -9.906  -5.945  0.00  0.00    -0.646 OA
ENDBRANCH  17  18
BRANCH  17  21
HETATM   21  C           1     -21.107  -9.432  -3.679  0.00  0.00     0.074 C 
BRANCH  21  22
HETATM   22  C           1     -21.609  -8.723  -2.458  0.00  0.00    -0.056 A 
HETATM   23  C           1     -21.685  -7.331  -2.442  0.00  0.00     0.007 A 
HETATM   24  C           1     -22.152  -6.671  -1.305  0.00  0.00     0.001 A 
HETATM   25  C           1     -22.543  -7.404  -0.186  0.00  0.00     0.000 A 
HETATM   26  C           1     -22.468  -8.797  -0.201  0.00  0.00     0.001 A 
HETATM   27  C           1     -22.001  -9.456  -1.338  0.00  0.00     0.007 A 
ENDBRANCH  21  22
ENDBRANCH  17  21
ENDBRANCH   2  17
TORSDOF 9
ENDMDL
MODEL 2
REMARK VINA RESULT:      -6.8      2.442      7.286
REMARK  9 active torsions:
REMARK  status: ('A' for Active; 'I' for Inactive)
REMARK    1  A    between atoms: N_2  and  C_25 
REMARK       I    between atoms: N_2  and  C_10 
REMARK       I    between atoms: N_4  and  C_16 
REMARK    2  A    between atoms: N_6  and  C_11 
REMARK    3  A    between atoms: C_10  and  C_11 
REMARK    4  A    between atoms: C_11  and  C_18 
REMARK    5  A    between atoms: C_16  and  C_17 
REMARK    6  A    between atoms: C_17  and  C_18 
REMARK    7  A    between atoms: C_23  and  C_25 
REMARK    8  A    between atoms: C_25  and  C_26 
REMARK    9  A    between atoms: C_26  and  C_27 
ROOT
HETATM    1  H           1     -23.323  -5.516  -5.602  0.00  0.00     0.163 HD
HETATM    2  N           1     -22.349  -5.786  -5.650  0.00  0.00    -0.344 N 
HETATM    3  O           1     -21.202  -5.682  -3.736  0.00  0.00    -0.271 OA
HETATM    4  C           1     -21.746  -6.369  -4.568  0.00  0.00     0.249 C 
ENDROOT
BRANCH   4   5
HETATM    5  C           1     -21.762  -7.870  -4.413  0.00  0.00     0.275 C 
BRANCH   5   6
HETATM    6  N           1     -21.281  -8.508  -5.682  0.00  0.00    -0.066 N 
HETATM    7  H           1     -21.997  -9.189  -6.024  0.00  0.00     0.275 HD
HETATM    8  H           1     -21.131  -7.770  -6.407  0.00  0.00     0.275 HD
HETATM    9  H           1     -20.383  -9.009  -5.501  0.00  0.00     0.275 HD
ENDBRANCH   5   6
BRANCH   5  10
HETATM   10  C           1     -20.847  -8.273  -3.264  0.00  0.00     0.052 C 
BRANCH  10  11
HETATM   11  C           1     -21.679  -8.873  -2.139  0.00  0.00     0.105 C 
BRANCH  11  12
HETATM   12  C           1     -21.679  -7.933  -0.958  0.00  0.00     0.215 C 
HETATM   13  N           1     -22.339  -6.736  -1.035  0.00  0.00    -0.370 N 
HETATM   14  H           1     -22.339  -6.106  -0.243  0.00  0.00     0.159 HD
HETATM   15  H           1     -22.825  -6.480  -1.886  0.00  0.00     0.159 HD
HETATM   16  O           1     -21.099  -8.238   0.057  0.00  0.00    -0.274 OA
ENDBRANCH  11  12
ENDBRANCH  10  11
ENDBRANCH   5  10
ENDBRANCH   4   5
BRANCH   2  17
HETATM   17  C           1     -21.591  -5.554  -6.864  0.00  0.00     0.189 C 
BRANCH  17  18
HETATM   18  C           1     -20.115  -5.591  -6.549  0.00  0.00     0.197 C 
HETATM   19  O           1     -19.453  -6.627  -6.776  0.00  0.00    -0.646 OA
HETATM   20  O           1     -19.555  -4.585  -6.062  0.00  0.00    -0.646 OA
ENDBRANCH  17  18
BRANCH  17  21
HETATM   21  C           1     -21.954  -4.190  -7.436  0.00  0.00     0.074 C 
BRANCH  21  22
HETATM   22  C           1     -21.903  -4.245  -8.931  0.00  0.00    -0.056 A 
HETATM   23  C           1     -20.698  -4.020  -9.597  0.00  0.00     0.007 A 
HETATM   24  C           1     -20.650  -4.072 -10.989  0.00  0.00     0.001 A 
HETATM   25  C           1     -21.806  -4.349 -11.717  0.00  0.00     0.000 A 
HETATM   26  C           1     -23.012  -4.574 -11.052  0.00  0.00     0.001 A 
HETATM   27  C           1     -23.060  -4.523  -9.659  0.00  0.00     0.007 A 
ENDBRANCH  21  22
ENDBRANCH  17  21
ENDBRANCH   2  17
TORSDOF 9
ENDMDL
MODEL 3
REMARK VINA RESULT:      -6.6      2.887      6.971
REMARK  9 active torsions:
REMARK  status: ('A' for Active; 'I' for Inactive)
REMARK    1  A    between atoms: N_2  and  C_25 
REMARK       I    between atoms: N_2  and  C_10 
REMARK       I    between atoms: N_4  and  C_16 
REMARK    2  A    between atoms: N_6  and  C_11 
REMARK    3  A    between atoms: C_10  and  C_11 
REMARK    4  A    between atoms: C_11  and  C_18 
REMARK    5  A    between atoms: C_16  and  C_17 
REMARK    6  A    between atoms: C_17  and  C_18 
REMARK    7  A    between atoms: C_23  and  C_25 
REMARK    8  A    between atoms: C_25  and  C_26 
REMARK    9  A    between atoms: C_26  and  C_27 
ROOT
HETATM    1  H           1     -23.551  -6.334  -3.988  0.00  0.00     0.163 HD
HETATM    2  N           1     -22.545  -6.441  -3.943  0.00  0.00    -0.344 N 
HETATM    3  O           1     -21.504  -5.305  -2.326  0.00  0.00    -0.271 OA
HETATM    4  C           1     -21.903  -6.369  -2.736  0.00  0.00     0.249 C 
ENDROOT
BRANCH   4   5
HETATM    5  C           1     -21.692  -7.619  -1.918  0.00  0.00     0.275 C 
BRANCH   5   6
HETATM    6  N           1     -20.223  -7.860  -1.742  0.00  0.00    -0.066 N 
HETATM    7  H           1     -19.748  -6.960  -1.501  0.00  0.00     0.275 HD
HETATM    8  H           1     -20.073  -8.549  -0.970  0.00  0.00     0.275 HD
HETATM    9  H           1     -19.823  -8.237  -2.630  0.00  0.00     0.275 HD
ENDBRANCH   5   6
BRANCH   5  10
HETATM   10  C           1     -22.346  -7.449  -0.552  0.00  0.00     0.052 C 
BRANCH  10  11
HETATM   11  C           1     -21.886  -8.568   0.374  0.00  0.00     0.105 C 
BRANCH  11  12
HETATM   12  C           1     -22.555  -9.860  -0.027  0.00  0.00     0.215 C 
HETATM   13  N           1     -21.797 -10.937  -0.398  0.00  0.00    -0.370 N 
HETATM   14  H           1     -22.245 -11.803  -0.667  0.00  0.00     0.159 HD
HETATM   15  H           1     -20.787 -10.866  -0.406  0.00  0.00     0.159 HD
HETATM   16  O           1     -23.760  -9.944  -0.018  0.00  0.00    -0.274 OA
ENDBRANCH  11  12
ENDBRANCH  10  11
ENDBRANCH   5  10
ENDBRANCH   4   5
BRANCH   2  17
HETATM   17  C           1     -21.785  -6.670  -5.156  0.00  0.00     0.189 C 
BRANCH  17  18
HETATM   18  C           1     -20.989  -7.945  -5.017  0.00  0.00     0.197 C 
HETATM   19  O           1     -19.747  -7.895  -4.894  0.00  0.00    -0.646 OA
HETATM   20  O           1     -21.573  -9.050  -5.025  0.00  0.00    -0.646 OA
ENDBRANCH  17  18
BRANCH  17  21
HETATM   21  C           1     -20.836  -5.501  -5.386  0.00  0.00     0.074 C 
BRANCH  21  22
HETATM   22  C           1     -20.973  -5.016  -6.796  0.00  0.00    -0.056 A 
HETATM   23  C           1     -22.179  -4.466  -7.230  0.00  0.00     0.007 A 
HETATM   24  C           1     -22.307  -4.014  -8.544  0.00  0.00     0.001 A 
HETATM   25  C           1     -21.229  -4.112  -9.422  0.00  0.00     0.000 A 
HETATM   26  C           1     -20.023  -4.662  -8.989  0.00  0.00     0.001 A 
HETATM   27  C           1     -19.895  -5.113  -7.676  0.00  0.00     0.007 A 
ENDBRANCH  21  22
ENDBRANCH  17  21
ENDBRANCH   2  17
TORSDOF 9
ENDMDL
MODEL 4
REMARK VINA RESULT:      -6.6      3.734      5.369
REMARK  9 active torsions:
REMARK  status: ('A' for Active; 'I' for Inactive)
REMARK    1  A    between atoms: N_2  and  C_25 
REMARK       I    between atoms: N_2  and  C_10 
REMARK       I    between atoms: N_4  and  C_16 
REMARK    2  A    between atoms: N_6  and  C_11 
REMARK    3  A    between atoms: C_10  and  C_11 
REMARK    4  A    between atoms: C_11  and  C_18 
REMARK    5  A    between atoms: C_16  and  C_17 
REMARK    6  A    between atoms: C_17  and  C_18 
REMARK    7  A    between atoms: C_23  and  C_25 
REMARK    8  A    between atoms: C_25  and  C_26 
REMARK    9  A    between atoms: C_26  and  C_27 
ROOT
HETATM    1  H           1     -23.456 -11.302  -3.620  0.00  0.00     0.163 HD
HETATM    2  N           1     -22.656 -11.568  -3.060  0.00  0.00    -0.344 N 
HETATM    3  O           1     -20.872 -12.313  -4.180  0.00  0.00    -0.271 OA
HETATM    4  C           1     -21.390 -11.415  -3.558  0.00  0.00     0.249 C 
ENDROOT
BRANCH   4   5
HETATM    5  C           1     -20.641 -10.125  -3.332  0.00  0.00     0.275 C 
BRANCH   5   6
HETATM    6  N           1     -19.607  -9.953  -4.405  0.00  0.00    -0.066 N 
HETATM    7  H           1     -18.677  -9.766  -3.966  0.00  0.00     0.275 HD
HETATM    8  H           1     -19.551 -10.826  -4.977  0.00  0.00     0.275 HD
HETATM    9  H           1     -19.871  -9.149  -5.017  0.00  0.00     0.275 HD
ENDBRANCH   5   6
BRANCH   5  10
HETATM   10  C           1     -21.616  -8.956  -3.376  0.00  0.00     0.052 C 
BRANCH  10  11
HETATM   11  C           1     -21.038  -7.783  -2.596  0.00  0.00     0.105 C 
BRANCH  11  12
HETATM   12  C           1     -21.798  -6.526  -2.942  0.00  0.00     0.215 C 
HETATM   13  N           1     -21.819  -6.072  -4.233  0.00  0.00    -0.370 N 
HETATM   14  H           1     -22.328  -5.228  -4.466  0.00  0.00     0.159 HD
HETATM   15  H           1     -21.324  -6.579  -4.956  0.00  0.00     0.159 HD
HETATM   16  O           1     -22.389  -5.920  -2.080  0.00  0.00    -0.274 OA
ENDBRANCH  11  12
ENDBRANCH  10  11
ENDBRANCH   5  10
ENDBRANCH   4   5
BRANCH   2  17
HETATM   17  C           1     -22.850 -12.113  -1.730  0.00  0.00     0.189 C 
BRANCH  17  18
HETATM   18  C           1     -23.501 -13.470  -1.834  0.00  0.00     0.197 C 
HETATM   19  O           1     -23.137 -14.271  -2.721  0.00  0.00    -0.646 OA
HETATM   20  O           1     -24.404 -13.794  -1.031  0.00  0.00    -0.646 OA
ENDBRANCH  17  18
BRANCH  17  21
HETATM   21  C           1     -23.747 -11.179  -0.927  0.00  0.00     0.074 C 
BRANCH  21  22
HETATM   22  C           1     -22.901 -10.212  -0.158  0.00  0.00    -0.056 A 
HETATM   23  C           1     -23.380  -8.932   0.118  0.00  0.00     0.007 A 
HETATM   24  C           1     -22.592  -8.031   0.833  0.00  0.00     0.001 A 
HETATM   25  C           1     -21.325  -8.411   1.274  0.00  0.00     0.000 A 
HETATM   26  C           1     -20.845  -9.691   0.998  0.00  0.00     0.001 A 
HETATM   27  C           1     -21.633 -10.592   0.283  0.00  0.00     0.007 A 
ENDBRANCH  21  22
ENDBRANCH  17  21
ENDBRANCH   2  17
TORSDOF 9
ENDMDL
MODEL 5
REMARK VINA RESULT:      -6.5      1.685      2.122
REMARK  9 active torsions:
REMARK  status: ('A' for Active; 'I' for Inactive)
REMARK    1  A    between atoms: N_2  and  C_25 
REMARK       I    between atoms: N_2  and  C_10 
REMARK       I    between atoms: N_4  and  C_16 
REMARK    2  A    between atoms: N_6  and  C_11 
REMARK    3  A    between atoms: C_10  and  C_11 
REMARK    4  A    between atoms: C_11  and  C_18 
REMARK    5  A    between atoms: C_16  and  C_17 
REMARK    6  A    between atoms: C_17  and  C_18 
REMARK    7  A    between atoms: C_23  and  C_25 
REMARK    8  A    between atoms: C_25  and  C_26 
REMARK    9  A    between atoms: C_26  and  C_27 
ROOT
HETATM    1  H           1     -19.368  -7.596  -7.393  0.00  0.00     0.163 HD
HETATM    2  N           1     -19.704  -7.002  -6.645  0.00  0.00    -0.344 N 
HETATM    3  O           1     -19.130  -4.847  -6.763  0.00  0.00    -0.271 OA
HETATM    4  C           1     -19.990  -5.686  -6.892  0.00  0.00     0.249 C 
ENDROOT
BRANCH   4   5
HETATM    5  C           1     -21.377  -5.283  -7.325  0.00  0.00     0.275 C 
BRANCH   5   6
HETATM    6  N           1     -22.172  -4.859  -6.126  0.00  0.00    -0.066 N 
HETATM    7  H           1     -21.799  -5.336  -5.274  0.00  0.00     0.275 HD
HETATM    8  H           1     -22.095  -3.824  -6.007  0.00  0.00     0.275 HD
HETATM    9  H           1     -23.174  -5.122  -6.262  0.00  0.00     0.275 HD
ENDBRANCH   5   6
BRANCH   5  10
HETATM   10  C           1     -21.287  -4.124  -8.309  0.00  0.00     0.052 C 
BRANCH  10  11
HETATM   11  C           1     -21.040  -4.666  -9.711  0.00  0.00     0.105 C 
BRANCH  11  12
HETATM   12  C           1     -21.472  -3.641 -10.730  0.00  0.00     0.215 C 
HETATM   13  N           1     -20.541  -3.039 -11.533  0.00  0.00    -0.370 N 
HETATM   14  H           1     -20.831  -2.350 -12.217  0.00  0.00     0.159 HD
HETATM   15  H           1     -19.562  -3.280 -11.442  0.00  0.00     0.159 HD
HETATM   16  O           1     -22.640  -3.351 -10.839  0.00  0.00    -0.274 OA
ENDBRANCH  11  12
ENDBRANCH  10  11
ENDBRANCH   5  10
ENDBRANCH   4   5
BRANCH   2  17
HETATM   17  C           1     -19.884  -7.545  -5.313  0.00  0.00     0.189 C 
BRANCH  17  18
HETATM   18  C           1     -19.155  -8.862  -5.205  0.00  0.00     0.197 C 
HETATM   19  O           1     -18.241  -9.003  -4.364  0.00  0.00    -0.646 OA
HETATM   20  O           1     -19.466  -9.812  -5.955  0.00  0.00    -0.646 OA
ENDBRANCH  17  18
BRANCH  17  21
HETATM   21  C           1     -21.368  -7.763  -5.050  0.00  0.00     0.074 C 
BRANCH  21  22
HETATM   22  C           1     -21.643  -7.615  -3.585  0.00  0.00    -0.056 A 
HETATM   23  C           1     -21.593  -8.731  -2.750  0.00  0.00     0.007 A 
HETATM   24  C           1     -21.850  -8.593  -1.386  0.00  0.00     0.001 A 
HETATM   25  C           1     -22.155  -7.339  -0.858  0.00  0.00     0.000 A 
HETATM   26  C           1     -22.205  -6.223  -1.692  0.00  0.00     0.001 A 
HETATM   27  C           1     -21.949  -6.361  -3.056  0.00  0.00     0.007 A 
ENDBRANCH  21  22
ENDBRANCH  17  21
ENDBRANCH   2  17
TORSDOF 9
ENDMDL
MODEL 6
REMARK VINA RESULT:      -6.5      2.455      3.999
REMARK  9 active torsions:
REMARK  status: ('A' for Active; 'I' for Inactive)
REMARK    1  A    between atoms: N_2  and  C_25 
REMARK       I    between atoms: N_2  and  C_10 
REMARK       I    between atoms: N_4  and  C_16 
REMARK    2  A    between atoms: N_6  and  C_11 
REMARK    3  A    between atoms: C_10  and  C_11 
REMARK    4  A    between atoms: C_11  and  C_18 
REMARK    5  A    between atoms: C_16  and  C_17 
REMARK    6  A    between atoms: C_17  and  C_18 
REMARK    7  A    between atoms: C_23  and  C_25 
REMARK    8  A    between atoms: C_25  and  C_26 
REMARK    9  A    between atoms: C_26  and  C_27 
ROOT
HETATM    1  H           1     -21.210  -5.794  -2.298  0.00  0.00     0.163 HD
HETATM    2  N           1     -21.425  -6.556  -2.930  0.00  0.00    -0.344 N 
HETATM    3  O           1     -22.896  -6.109  -4.550  0.00  0.00    -0.271 OA
HETATM    4  C           1     -21.744  -6.294  -4.235  0.00  0.00     0.249 C 
ENDROOT
BRANCH   4   5
HETATM    5  C           1     -20.658  -6.236  -5.280  0.00  0.00     0.275 C 
BRANCH   5   6
HETATM    6  N           1     -20.868  -7.333  -6.281  0.00  0.00    -0.066 N 
HETATM    7  H           1     -21.516  -8.049  -5.882  0.00  0.00     0.275 HD
HETATM    8  H           1     -21.284  -6.934  -7.152  0.00  0.00     0.275 HD
HETATM    9  H           1     -19.950  -7.780  -6.505  0.00  0.00     0.275 HD
ENDBRANCH   5   6
BRANCH   5  10
HETATM   10  C           1     -20.705  -4.888  -5.988  0.00  0.00     0.052 C 
BRANCH  10  11
HETATM   11  C           1     -21.104  -5.092  -7.443  0.00  0.00     0.105 C 
BRANCH  11  12
HETATM   12  C           1     -22.356  -4.303  -7.737  0.00  0.00     0.215 C 
HETATM   13  N           1     -23.455  -4.439  -6.933  0.00  0.00    -0.370 N 
HETATM   14  H           1     -24.296  -3.910  -7.131  0.00  0.00     0.159 HD
HETATM   15  H           1     -23.428  -5.070  -6.142  0.00  0.00     0.159 HD
HETATM   16  O           1     -22.389  -3.551  -8.682  0.00  0.00    -0.274 OA
ENDBRANCH  11  12
ENDBRANCH  10  11
ENDBRANCH   5  10
ENDBRANCH   4   5
BRANCH   2  17
HETATM   17  C           1     -21.395  -7.924  -2.452  0.00  0.00     0.189 C 
BRANCH  17  18
HETATM   18  C           1     -22.090  -8.004  -1.114  0.00  0.00     0.197 C 
HETATM   19  O           1     -22.477  -9.109  -0.676  0.00  0.00    -0.646 OA
HETATM   20  O           1     -22.276  -6.966  -0.443  0.00  0.00    -0.646 OA
ENDBRANCH  17  18
BRANCH  17  21
HETATM   21  C           1     -19.949  -8.377  -2.301  0.00  0.00     0.074 C 
BRANCH  21  22
HETATM   22  C           1     -19.581  -9.267  -3.448  0.00  0.00    -0.056 A 
HETATM   23  C           1     -18.265  -9.302  -3.910  0.00  0.00     0.007 A 
HETATM   24  C           1     -17.924 -10.131  -4.978  0.00  0.00     0.001 A 
HETATM   25  C           1     -18.897 -10.924  -5.584  0.00  0.00     0.000 A 
HETATM   26  C           1     -20.213 -10.889  -5.123  0.00  0.00     0.001 A 
HETATM   27  C           1     -20.555 -10.060  -4.055  0.00  0.00     0.007 A 
ENDBRANCH  21  22
ENDBRANCH  17  21
ENDBRANCH   2  17
TORSDOF 9
ENDMDL
MODEL 7
REMARK VINA RESULT:      -6.4      3.552      4.730
REMARK  9 active torsions:
REMARK  status: ('A' for Active; 'I' for Inactive)
REMARK    1  A    between atoms: N_2  and  C_25 
REMARK       I    between atoms: N_2  and  C_10 
REMARK       I    between atoms: N_4  and  C_16 
REMARK    2  A    between atoms: N_6  and  C_11 
REMARK    3  A    between atoms: C_10  and  C_11 
REMARK    4  A    between atoms: C_11  and  C_18 
REMARK    5  A    between atoms: C_16  and  C_17 
REMARK    6  A    between atoms: C_17  and  C_18 
REMARK    7  A    between atoms: C_23  and  C_25 
REMARK    8  A    between atoms: C_25  and  C_26 
REMARK    9  A    between atoms: C_26  and  C_27 
ROOT
HETATM    1  H           1     -20.839 -11.702  -2.553  0.00  0.00     0.163 HD
HETATM    2  N           1     -19.980 -11.194  -2.387  0.00  0.00    -0.344 N 
HETATM    3  O           1     -18.499 -11.186  -4.060  0.00  0.00    -0.271 OA
HETATM    4  C           1     -19.334 -10.582  -3.428  0.00  0.00     0.249 C 
ENDROOT
BRANCH   4   5
HETATM    5  C           1     -19.664  -9.155  -3.787  0.00  0.00     0.275 C 
BRANCH   5   6
HETATM    6  N           1     -19.727  -9.017  -5.279  0.00  0.00    -0.066 N 
HETATM    7  H           1     -18.765  -8.858  -5.656  0.00  0.00     0.275 HD
HETATM    8  H           1     -20.122  -9.891  -5.693  0.00  0.00     0.275 HD
HETATM    9  H           1     -20.337  -8.205  -5.528  0.00  0.00     0.275 HD
ENDBRANCH   5   6
BRANCH   5  10
HETATM   10  C           1     -21.011  -8.778  -3.186  0.00  0.00     0.052 C 
BRANCH  10  11
HETATM   11  C           1     -20.855  -7.526  -2.333  0.00  0.00     0.105 C 
BRANCH  11  12
HETATM   12  C           1     -21.833  -6.475  -2.798  0.00  0.00     0.215 C 
HETATM   13  N           1     -21.889  -6.127  -4.120  0.00  0.00    -0.370 N 
HETATM   14  H           1     -22.545  -5.422  -4.432  0.00  0.00     0.159 HD
HETATM   15  H           1     -21.272  -6.574  -4.787  0.00  0.00     0.159 HD
HETATM   16  O           1     -22.569  -5.941  -2.002  0.00  0.00    -0.274 OA
ENDBRANCH  11  12
ENDBRANCH  10  11
ENDBRANCH   5  10
ENDBRANCH   4   5
BRANCH   2  17
HETATM   17  C           1     -19.432 -11.113  -1.047  0.00  0.00     0.189 C 
BRANCH  17  18
HETATM   18  C           1     -18.255 -12.052  -0.929  0.00  0.00     0.197 C 
HETATM   19  O           1     -17.099 -11.592  -0.807  0.00  0.00    -0.646 OA
HETATM   20  O           1     -18.437 -13.288  -0.952  0.00  0.00    -0.646 OA
ENDBRANCH  17  18
BRANCH  17  21
HETATM   21  C           1     -20.501 -11.510  -0.038  0.00  0.00     0.074 C 
BRANCH  21  22
HETATM   22  C           1     -21.396 -10.339   0.228  0.00  0.00    -0.056 A 
HETATM   23  C           1     -20.907  -9.230   0.918  0.00  0.00     0.007 A 
HETATM   24  C           1     -21.740  -8.139   1.166  0.00  0.00     0.001 A 
HETATM   25  C           1     -23.061  -8.158   0.723  0.00  0.00     0.000 A 
HETATM   26  C           1     -23.552  -9.266   0.033  0.00  0.00     0.001 A 
HETATM   27  C           1     -22.719 -10.357  -0.215  0.00  0.00     0.007 A 
ENDBRANCH  21  22
ENDBRANCH  17  21
ENDBRANCH   2  17
TORSDOF 9
ENDMDL
MODEL 8
REMARK VINA RESULT:      -6.4      2.897      6.243
REMARK  9 active torsions:
REMARK  status: ('A' for Active; 'I' for Inactive)
REMARK    1  A    between atoms: N_2  and  C_25 
REMARK       I    between atoms: N_2  and  C_10 
REMARK       I    between atoms: N_4  and  C_16 
REMARK    2  A    between atoms: N_6  and  C_11 
REMARK    3  A    between atoms: C_10  and  C_11 
REMARK    4  A    between atoms: C_11  and  C_18 
REMARK    5  A    between atoms: C_16  and  C_17 
REMARK    6  A    between atoms: C_17  and  C_18 
REMARK    7  A    between atoms: C_23  and  C_25 
REMARK    8  A    between atoms: C_25  and  C_26 
REMARK    9  A    between atoms: C_26  and  C_27 
ROOT
HETATM    1  H           1     -19.049  -7.590  -4.939  0.00  0.00     0.163 HD
HETATM    2  N           1     -19.542  -8.272  -4.377  0.00  0.00    -0.344 N 
HETATM    3  O           1     -18.969 -10.408  -4.691  0.00  0.00    -0.271 OA
HETATM    4  C           1     -18.913  -9.425  -3.991  0.00  0.00     0.249 C 
ENDROOT
BRANCH   4   5
HETATM    5  C           1     -18.148  -9.468  -2.691  0.00  0.00     0.275 C 
BRANCH   5   6
HETATM    6  N           1     -18.464 -10.743  -1.967  0.00  0.00    -0.066 N 
HETATM    7  H           1     -18.531 -10.555  -0.941  0.00  0.00     0.275 HD
HETATM    8  H           1     -19.375 -11.122  -2.311  0.00  0.00     0.275 HD
HETATM    9  H           1     -17.706 -11.440  -2.145  0.00  0.00     0.275 HD
ENDBRANCH   5   6
BRANCH   5  10
HETATM   10  C           1     -16.654  -9.404  -2.977  0.00  0.00     0.052 C 
BRANCH  10  11
HETATM   11  C           1     -15.979 -10.658  -2.440  0.00  0.00     0.105 C 
BRANCH  11  12
HETATM   12  C           1     -15.374 -11.434  -3.584  0.00  0.00     0.215 C 
HETATM   13  N           1     -15.906 -11.328  -4.840  0.00  0.00    -0.370 N 
HETATM   14  H           1     -15.500 -11.848  -5.608  0.00  0.00     0.159 HD
HETATM   15  H           1     -16.706 -10.729  -5.002  0.00  0.00     0.159 HD
HETATM   16  O           1     -14.419 -12.149  -3.391  0.00  0.00    -0.274 OA
ENDBRANCH  11  12
ENDBRANCH  10  11
ENDBRANCH   5  10
ENDBRANCH   4   5
BRANCH   2  17
HETATM   17  C           1     -20.916  -8.029  -3.982  0.00  0.00     0.189 C 
BRANCH  17  18
HETATM   18  C           1     -21.611  -7.223  -5.052  0.00  0.00     0.197 C 
HETATM   19  O           1     -22.502  -6.405  -4.737  0.00  0.00    -0.646 OA
HETATM   20  O           1     -21.295  -7.373  -6.252  0.00  0.00    -0.646 OA
ENDBRANCH  17  18
BRANCH  17  21
HETATM   21  C           1     -20.936  -7.256  -2.670  0.00  0.00     0.074 C 
BRANCH  21  22
HETATM   22  C           1     -21.750  -8.006  -1.661  0.00  0.00    -0.056 A 
HETATM   23  C           1     -22.330  -7.328  -0.588  0.00  0.00     0.007 A 
HETATM   24  C           1     -23.088  -8.026   0.351  0.00  0.00     0.001 A 
HETATM   25  C           1     -23.266  -9.403   0.218  0.00  0.00     0.000 A 
HETATM   26  C           1     -22.687 -10.082  -0.854  0.00  0.00     0.001 A 
HETATM   27  C           1     -21.930  -9.383  -1.794  0.00  0.00     0.007 A 
ENDBRANCH  21  22
ENDBRANCH  17  21
ENDBRANCH   2  17
TORSDOF 9
ENDMDL
MODEL 9
REMARK VINA RESULT:      -6.4      2.340      3.513
REMARK  9 active torsions:
REMARK  status: ('A' for Active; 'I' for Inactive)
REMARK    1  A    between atoms: N_2  and  C_25 
REMARK       I    between atoms: N_2  and  C_10 
REMARK       I    between atoms: N_4  and  C_16 
REMARK    2  A    between atoms: N_6  and  C_11 
REMARK    3  A    between atoms: C_10  and  C_11 
REMARK    4  A    between atoms: C_11  and  C_18 
REMARK    5  A    between atoms: C_16  and  C_17 
REMARK    6  A    between atoms: C_17  and  C_18 
REMARK    7  A    between atoms: C_23  and  C_25 
REMARK    8  A    between atoms: C_25  and  C_26 
REMARK    9  A    between atoms: C_26  and  C_27 
ROOT
HETATM    1  H           1     -21.513  -7.410  -7.411  0.00  0.00     0.163 HD
HETATM    2  N           1     -21.393  -6.618  -6.793  0.00  0.00    -0.344 N 
HETATM    3  O           1     -19.396  -5.619  -6.844  0.00  0.00    -0.271 OA
HETATM    4  C           1     -20.564  -5.588  -7.150  0.00  0.00     0.249 C 
ENDROOT
BRANCH   4   5
HETATM    5  C           1     -21.110  -4.416  -7.928  0.00  0.00     0.275 C 
BRANCH   5   6
HETATM    6  N           1     -21.265  -3.239  -7.012  0.00  0.00    -0.066 N 
HETATM    7  H           1     -21.138  -3.547  -6.022  0.00  0.00     0.275 HD
HETATM    8  H           1     -20.545  -2.519  -7.246  0.00  0.00     0.275 HD
HETATM    9  H           1     -22.219  -2.830  -7.130  0.00  0.00     0.275 HD
ENDBRANCH   5   6
BRANCH   5  10
HETATM   10  C           1     -20.147  -4.060  -9.053  0.00  0.00     0.052 C 
BRANCH  10  11
HETATM   11  C           1     -20.539  -4.817 -10.315  0.00  0.00     0.105 C 
BRANCH  11  12
HETATM   12  C           1     -21.341  -3.911 -11.217  0.00  0.00     0.215 C 
HETATM   13  N           1     -20.807  -2.727 -11.649  0.00  0.00    -0.370 N 
HETATM   14  H           1     -21.346  -2.120 -12.253  0.00  0.00     0.159 HD
HETATM   15  H           1     -19.875  -2.458 -11.361  0.00  0.00     0.159 HD
HETATM   16  O           1     -22.455  -4.232 -11.560  0.00  0.00    -0.274 OA
ENDBRANCH  11  12
ENDBRANCH  10  11
ENDBRANCH   5  10
ENDBRANCH   4   5
BRANCH   2  17
HETATM   17  C           1     -22.098  -6.573  -5.526  0.00  0.00     0.189 C 
BRANCH  17  18
HETATM   18  C           1     -23.393  -5.816  -5.699  0.00  0.00     0.197 C 
HETATM   19  O           1     -24.386  -6.110  -4.999  0.00  0.00    -0.646 OA
HETATM   20  O           1     -23.471  -4.896  -6.541  0.00  0.00    -0.646 OA
ENDBRANCH  17  18
BRANCH  17  21
HETATM   21  C           1     -21.233  -5.869  -4.489  0.00  0.00     0.074 C 
BRANCH  21  22
HETATM   22  C           1     -21.335  -6.590  -3.180  0.00  0.00    -0.056 A 
HETATM   23  C           1     -20.602  -7.758  -2.968  0.00  0.00     0.007 A 
HETATM   24  C           1     -20.698  -8.429  -1.749  0.00  0.00     0.001 A 
HETATM   25  C           1     -21.526  -7.932  -0.743  0.00  0.00     0.000 A 
HETATM   26  C           1     -22.259  -6.764  -0.955  0.00  0.00     0.001 A 
HETATM   27  C           1     -22.163  -6.093  -2.174  0.00  0.00     0.007 A 
ENDBRANCH  21  22
ENDBRANCH  17  21
ENDBRANCH   2  17
TORSDOF 9
ENDMDL
