MODEL 1
REMARK VINA RESULT:      -5.4      0.000      0.000
REMARK  5 active torsions:
REMARK  status: ('A' for Active; 'I' for Inactive)
REMARK    1  A    between atoms: C_3  and  C_4 
REMARK    2  A    between atoms: C_4  and  C_5 
REMARK    3  A    between atoms: C_4  and  N_19 
REMARK    4  A    between atoms: C_5  and  C_7 
REMARK    5  A    between atoms: C_8  and  C_18 
REMARK       I    between atoms: C_18  and  N_19 
ROOT
HETATM    1  H           1     -36.451  -2.451 -11.592  0.00  0.00     0.163 HD
HETATM    2  O           1     -33.644  -1.423 -10.640  0.00  0.00    -0.271 OA
HETATM    3  C           1     -34.524  -2.218 -10.873  0.00  0.00     0.249 C 
HETATM    4  N           1     -35.714  -1.786 -11.396  0.00  0.00    -0.345 N 
ENDROOT
BRANCH   3   5
HETATM    5  C           1     -34.312  -3.684 -10.589  0.00  0.00     0.274 C 
HETATM    6  C           1     -33.021  -4.148 -11.248  0.00  0.00     0.042 C 
HETATM    7  C           1     -33.111  -3.931 -12.754  0.00  0.00     0.003 C 
HETATM    8 Se           1     -34.609  -4.954 -13.469  0.00  0.00     0.000 Se
HETATM    9  C           1     -34.328  -4.385 -15.312  0.00  0.00     0.000 C 
HETATM   10  H           1     -35.526  -4.321 -12.172  0.00  0.00     0.275 HD
HETATM   11  N           1     -35.465  -4.471 -11.140  0.00  0.00    -0.067 N 
HETATM   12  H           1     -35.319  -5.487 -10.943  0.00  0.00     0.275 HD
HETATM   13  H           1     -36.351  -4.153 -10.686  0.00  0.00     0.275 HD
ENDBRANCH   3   5
BRANCH   4  14
HETATM   14  C           1     -35.917  -0.377 -11.669  0.00  0.00     0.185 C 
BRANCH  14  15
HETATM   15  C           1     -36.849   0.206 -10.635  0.00  0.00     0.196 C 
HETATM   16  O           1     -36.433   0.441  -9.481  0.00  0.00    -0.646 OA
HETATM   17  O           1     -38.038   0.453 -10.935  0.00  0.00    -0.646 OA
ENDBRANCH  14  15
BRANCH  14  18
HETATM   18  C           1     -36.527  -0.213 -13.055  0.00  0.00     0.040 C 
BRANCH  18  19
HETATM   19  C           1     -35.416  -0.127 -14.093  0.00  0.00    -0.020 C 
HETATM   20  C           1     -36.029  -0.053 -15.486  0.00  0.00     0.009 C 
HETATM   21  C           1     -34.580   1.120 -13.840  0.00  0.00     0.009 C 
ENDBRANCH  18  19
ENDBRANCH  14  18
ENDBRANCH   4  14
TORSDOF 5
ENDMDL
MODEL 2
REMARK VINA RESULT:      -5.2     17.527     19.115
REMARK  5 active torsions:
REMARK  status: ('A' for Active; 'I' for Inactive)
REMARK    1  A    between atoms: C_3  and  C_4 
REMARK    2  A    between atoms: C_4  and  C_5 
REMARK    3  A    between atoms: C_4  and  N_19 
REMARK    4  A    between atoms: C_5  and  C_7 
REMARK    5  A    between atoms: C_8  and  C_18 
REMARK       I    between atoms: C_18  and  N_19 
ROOT
HETATM    1  H           1     -20.248  -7.959  -3.769  0.00  0.00     0.163 HD
HETATM    2  O           1     -22.284 -10.327  -3.474  0.00  0.00    -0.271 OA
HETATM    3  C           1     -21.383  -9.679  -3.953  0.00  0.00     0.249 C 
HETATM    4  N           1     -21.002  -8.501  -3.368  0.00  0.00    -0.345 N 
ENDROOT
BRANCH   3   5
HETATM    5  C           1     -20.681 -10.167  -5.196  0.00  0.00     0.274 C 
HETATM    6  C           1     -19.932 -11.455  -4.884  0.00  0.00     0.042 C 
HETATM    7  C           1     -18.904 -11.193  -3.790  0.00  0.00     0.003 C 
HETATM    8 Se           1     -17.641  -9.838  -4.394  0.00  0.00     0.000 Se
HETATM    9  C           1     -16.591  -9.850  -2.752  0.00  0.00     0.000 C 
HETATM   10  H           1     -19.004  -8.945  -4.910  0.00  0.00     0.275 HD
HETATM   11  N           1     -19.708  -9.123  -5.661  0.00  0.00    -0.067 N 
HETATM   12  H           1     -19.221  -9.460  -6.523  0.00  0.00     0.275 HD
HETATM   13  H           1     -20.223  -8.239  -5.876  0.00  0.00     0.275 HD
ENDBRANCH   3   5
BRANCH   4  14
HETATM   14  C           1     -21.677  -8.033  -2.173  0.00  0.00     0.185 C 
BRANCH  14  15
HETATM   15  C           1     -22.059  -6.584  -2.347  0.00  0.00     0.196 C 
HETATM   16  O           1     -22.059  -6.070  -3.486  0.00  0.00    -0.646 OA
HETATM   17  O           1     -22.373  -5.897  -1.351  0.00  0.00    -0.646 OA
ENDBRANCH  14  15
BRANCH  14  18
HETATM   18  C           1     -20.746  -8.174  -0.977  0.00  0.00     0.040 C 
BRANCH  18  19
HETATM   19  C           1     -21.360  -9.131   0.037  0.00  0.00    -0.020 C 
HETATM   20  C           1     -21.133  -8.593   1.444  0.00  0.00     0.009 C 
HETATM   21  C           1     -22.855  -9.255  -0.224  0.00  0.00     0.009 C 
ENDBRANCH  18  19
ENDBRANCH  14  18
ENDBRANCH   4  14
TORSDOF 5
ENDMDL
MODEL 3
REMARK VINA RESULT:      -5.2     15.600     17.529
REMARK  5 active torsions:
REMARK  status: ('A' for Active; 'I' for Inactive)
REMARK    1  A    between atoms: C_3  and  C_4 
REMARK    2  A    between atoms: C_4  and  C_5 
REMARK    3  A    between atoms: C_4  and  N_19 
REMARK    4  A    between atoms: C_5  and  C_7 
REMARK    5  A    between atoms: C_8  and  C_18 
REMARK       I    between atoms: C_18  and  N_19 
ROOT
HETATM    1  H           1     -21.480  -8.559  -6.363  0.00  0.00     0.163 HD
HETATM    2  O           1     -19.326  -8.613  -4.083  0.00  0.00    -0.271 OA
HETATM    3  C           1     -20.087  -9.051  -4.914  0.00  0.00     0.249 C 
HETATM    4  N           1     -20.843  -8.193  -5.668  0.00  0.00    -0.345 N 
ENDROOT
BRANCH   3   5
HETATM    5  C           1     -20.204 -10.541  -5.120  0.00  0.00     0.274 C 
HETATM    6  C           1     -21.639 -10.978  -4.861  0.00  0.00     0.042 C 
HETATM    7  C           1     -22.025 -10.633  -3.428  0.00  0.00     0.003 C 
HETATM    8 Se           1     -20.832 -11.555  -2.193  0.00  0.00     0.000 Se
HETATM    9  C           1     -21.676 -10.841  -0.588  0.00  0.00     0.000 C 
HETATM   10  H           1     -19.551 -11.012  -3.187  0.00  0.00     0.275 HD
HETATM   11  N           1     -19.285 -11.250  -4.170  0.00  0.00    -0.067 N 
HETATM   12  H           1     -19.365 -12.282  -4.312  0.00  0.00     0.275 HD
HETATM   13  H           1     -18.300 -10.950  -4.348  0.00  0.00     0.275 HD
ENDBRANCH   3   5
BRANCH   4  14
HETATM   14  C           1     -20.730  -6.761  -5.469  0.00  0.00     0.185 C 
BRANCH  14  15
HETATM   15  C           1     -21.861  -6.285  -4.592  0.00  0.00     0.196 C 
HETATM   16  O           1     -21.638  -5.957  -3.407  0.00  0.00    -0.646 OA
HETATM   17  O           1     -23.022  -6.220  -5.051  0.00  0.00    -0.646 OA
ENDBRANCH  14  15
BRANCH  14  18
HETATM   18  C           1     -20.800  -6.056  -6.817  0.00  0.00     0.040 C 
BRANCH  18  19
HETATM   19  C           1     -20.300  -4.625  -6.670  0.00  0.00    -0.020 C 
HETATM   20  C           1     -18.992  -4.464  -7.433  0.00  0.00     0.009 C 
HETATM   21  C           1     -21.338  -3.665  -7.232  0.00  0.00     0.009 C 
ENDBRANCH  18  19
ENDBRANCH  14  18
ENDBRANCH   4  14
TORSDOF 5
ENDMDL
MODEL 4
REMARK VINA RESULT:      -5.2      2.733      5.388
REMARK  5 active torsions:
REMARK  status: ('A' for Active; 'I' for Inactive)
REMARK    1  A    between atoms: C_3  and  C_4 
REMARK    2  A    between atoms: C_4  and  C_5 
REMARK    3  A    between atoms: C_4  and  N_19 
REMARK    4  A    between atoms: C_5  and  C_7 
REMARK    5  A    between atoms: C_8  and  C_18 
REMARK       I    between atoms: C_18  and  N_19 
ROOT
HETATM    1  H           1     -35.590  -1.910 -13.783  0.00  0.00     0.163 HD
HETATM    2  O           1     -33.876  -1.290 -11.230  0.00  0.00    -0.271 OA
HETATM    3  C           1     -34.652  -1.085 -12.133  0.00  0.00     0.249 C 
HETATM    4  N           1     -34.940  -2.081 -13.027  0.00  0.00    -0.345 N 
ENDROOT
BRANCH   3   5
HETATM    5  C           1     -35.302   0.269 -12.277  0.00  0.00     0.274 C 
HETATM    6  C           1     -36.762   0.092 -12.674  0.00  0.00     0.042 C 
HETATM    7  C           1     -36.841  -0.652 -14.001  0.00  0.00     0.003 C 
HETATM    8 Se           1     -35.914   0.371 -15.376  0.00  0.00     0.000 Se
HETATM    9  C           1     -36.272  -0.910 -16.801  0.00  0.00     0.000 C 
HETATM   10  H           1     -34.644   0.545 -14.245  0.00  0.00     0.275 HD
HETATM   11  N           1     -34.588   1.056 -13.336  0.00  0.00    -0.067 N 
HETATM   12  H           1     -35.038   1.994 -13.435  0.00  0.00     0.275 HD
HETATM   13  H           1     -33.587   1.178 -13.063  0.00  0.00     0.275 HD
ENDBRANCH   3   5
BRANCH   4  14
HETATM   14  C           1     -34.315  -3.383 -12.888  0.00  0.00     0.185 C 
BRANCH  14  15
HETATM   15  C           1     -34.516  -4.174 -14.158  0.00  0.00     0.196 C 
HETATM   16  O           1     -35.050  -5.302 -14.114  0.00  0.00    -0.646 OA
HETATM   17  O           1     -34.146  -3.698 -15.254  0.00  0.00    -0.646 OA
ENDBRANCH  14  15
BRANCH  14  18
HETATM   18  C           1     -34.949  -4.126 -11.720  0.00  0.00     0.040 C 
BRANCH  18  19
HETATM   19  C           1     -33.857  -4.776 -10.879  0.00  0.00    -0.020 C 
HETATM   20  C           1     -34.201  -6.241 -10.646  0.00  0.00     0.009 C 
HETATM   21  C           1     -32.526  -4.676 -11.610  0.00  0.00     0.009 C 
ENDBRANCH  18  19
ENDBRANCH  14  18
ENDBRANCH   4  14
TORSDOF 5
ENDMDL
MODEL 5
REMARK VINA RESULT:      -5.2      2.671      4.434
REMARK  5 active torsions:
REMARK  status: ('A' for Active; 'I' for Inactive)
REMARK    1  A    between atoms: C_3  and  C_4 
REMARK    2  A    between atoms: C_4  and  C_5 
REMARK    3  A    between atoms: C_4  and  N_19 
REMARK    4  A    between atoms: C_5  and  C_7 
REMARK    5  A    between atoms: C_8  and  C_18 
REMARK       I    between atoms: C_18  and  N_19 
ROOT
HETATM    1  H           1     -34.748  -0.077  -9.840  0.00  0.00     0.163 HD
HETATM    2  O           1     -36.544  -2.414 -10.915  0.00  0.00    -0.271 OA
HETATM    3  C           1     -35.562  -1.719 -10.802  0.00  0.00     0.249 C 
HETATM    4  N           1     -35.570  -0.659  -9.935  0.00  0.00    -0.345 N 
ENDROOT
BRANCH   3   5
HETATM    5  C           1     -34.327  -2.019 -11.615  0.00  0.00     0.274 C 
HETATM    6  C           1     -34.650  -3.083 -12.655  0.00  0.00     0.042 C 
HETATM    7  C           1     -35.117  -4.353 -11.955  0.00  0.00     0.003 C 
HETATM    8 Se           1     -33.706  -5.003 -10.778  0.00  0.00     0.000 Se
HETATM    9  C           1     -34.718  -6.546 -10.149  0.00  0.00     0.000 C 
HETATM   10  H           1     -33.563  -3.390 -10.229  0.00  0.00     0.275 HD
HETATM   11  N           1     -33.242  -2.519 -10.708  0.00  0.00    -0.067 N 
HETATM   12  H           1     -32.386  -2.727 -11.271  0.00  0.00     0.275 HD
HETATM   13  H           1     -33.020  -1.788  -9.995  0.00  0.00     0.275 HD
ENDBRANCH   3   5
BRANCH   4  14
HETATM   14  C           1     -36.757  -0.371  -9.153  0.00  0.00     0.185 C 
BRANCH  14  15
HETATM   15  C           1     -37.573   0.690  -9.850  0.00  0.00     0.196 C 
HETATM   16  O           1     -37.751   1.800  -9.305  0.00  0.00    -0.646 OA
HETATM   17  O           1     -38.070   0.457 -10.974  0.00  0.00    -0.646 OA
ENDBRANCH  14  15
BRANCH  14  18
HETATM   18  C           1     -36.346   0.127  -7.774  0.00  0.00     0.040 C 
BRANCH  18  19
HETATM   19  C           1     -37.586   0.301  -6.906  0.00  0.00    -0.020 C 
HETATM   20  C           1     -38.069  -1.064  -6.433  0.00  0.00     0.009 C 
HETATM   21  C           1     -37.243   1.164  -5.699  0.00  0.00     0.009 C 
ENDBRANCH  18  19
ENDBRANCH  14  18
ENDBRANCH   4  14
TORSDOF 5
ENDMDL
MODEL 6
REMARK VINA RESULT:      -5.1     17.702     19.581
REMARK  5 active torsions:
REMARK  status: ('A' for Active; 'I' for Inactive)
REMARK    1  A    between atoms: C_3  and  C_4 
REMARK    2  A    between atoms: C_4  and  C_5 
REMARK    3  A    between atoms: C_4  and  N_19 
REMARK    4  A    between atoms: C_5  and  C_7 
REMARK    5  A    between atoms: C_8  and  C_18 
REMARK       I    between atoms: C_18  and  N_19 
ROOT
HETATM    1  H           1     -19.154  -7.816  -2.168  0.00  0.00     0.163 HD
HETATM    2  O           1     -20.487 -10.637  -2.492  0.00  0.00    -0.271 OA
HETATM    3  C           1     -19.598  -9.825  -2.385  0.00  0.00     0.249 C 
HETATM    4  N           1     -19.898  -8.495  -2.258  0.00  0.00    -0.345 N 
ENDROOT
BRANCH   3   5
HETATM    5  C           1     -18.159 -10.277  -2.391  0.00  0.00     0.274 C 
HETATM    6  C           1     -17.412  -9.578  -3.518  0.00  0.00     0.042 C 
HETATM    7  C           1     -18.059  -9.929  -4.852  0.00  0.00     0.003 C 
HETATM    8 Se           1     -17.985 -11.858  -5.123  0.00  0.00     0.000 Se
HETATM    9  C           1     -18.880 -11.813  -6.854  0.00  0.00     0.000 C 
HETATM   10  H           1     -18.547 -12.001  -3.514  0.00  0.00     0.275 HD
HETATM   11  N           1     -18.102 -11.762  -2.599  0.00  0.00    -0.067 N 
HETATM   12  H           1     -17.105 -12.075  -2.603  0.00  0.00     0.275 HD
HETATM   13  H           1     -18.614 -12.241  -1.825  0.00  0.00     0.275 HD
ENDBRANCH   3   5
BRANCH   4  14
HETATM   14  C           1     -21.282  -8.062  -2.251  0.00  0.00     0.185 C 
BRANCH  14  15
HETATM   15  C           1     -21.490  -7.030  -3.333  0.00  0.00     0.196 C 
HETATM   16  O           1     -20.887  -7.136  -4.422  0.00  0.00    -0.646 OA
HETATM   17  O           1     -22.265  -6.068  -3.137  0.00  0.00    -0.646 OA
ENDBRANCH  14  15
BRANCH  14  18
HETATM   18  C           1     -21.615  -7.453  -0.896  0.00  0.00     0.040 C 
BRANCH  18  19
HETATM   19  C           1     -22.081  -8.549   0.054  0.00  0.00    -0.020 C 
HETATM   20  C           1     -21.101  -8.664   1.214  0.00  0.00     0.009 C 
HETATM   21  C           1     -23.463  -8.203   0.589  0.00  0.00     0.009 C 
ENDBRANCH  18  19
ENDBRANCH  14  18
ENDBRANCH   4  14
TORSDOF 5
ENDMDL
MODEL 7
REMARK VINA RESULT:      -5.1     17.516     19.504
REMARK  5 active torsions:
REMARK  status: ('A' for Active; 'I' for Inactive)
REMARK    1  A    between atoms: C_3  and  C_4 
REMARK    2  A    between atoms: C_4  and  C_5 
REMARK    3  A    between atoms: C_4  and  N_19 
REMARK    4  A    between atoms: C_5  and  C_7 
REMARK    5  A    between atoms: C_8  and  C_18 
REMARK       I    between atoms: C_18  and  N_19 
ROOT
HETATM    1  H           1     -22.596 -10.484  -2.337  0.00  0.00     0.163 HD
HETATM    2  O           1     -19.640 -10.810  -1.340  0.00  0.00    -0.271 OA
HETATM    3  C           1     -20.555 -10.750  -2.128  0.00  0.00     0.249 C 
HETATM    4  N           1     -21.830 -10.534  -1.679  0.00  0.00    -0.345 N 
ENDROOT
BRANCH   3   5
HETATM    5  C           1     -20.292 -10.913  -3.604  0.00  0.00     0.274 C 
HETATM    6  C           1     -19.233  -9.913  -4.046  0.00  0.00     0.042 C 
HETATM    7  C           1     -19.724  -8.497  -3.772  0.00  0.00     0.003 C 
HETATM    8 Se           1     -21.371  -8.178  -4.763  0.00  0.00     0.000 Se
HETATM    9  C           1     -21.592  -6.349  -4.126  0.00  0.00     0.000 C 
HETATM   10  H           1     -21.897  -9.696  -4.178  0.00  0.00     0.275 HD
HETATM   11  N           1     -21.560 -10.667  -4.367  0.00  0.00    -0.067 N 
HETATM   12  H           1     -21.380 -10.781  -5.390  0.00  0.00     0.275 HD
HETATM   13  H           1     -22.287 -11.355  -4.064  0.00  0.00     0.275 HD
ENDBRANCH   3   5
BRANCH   4  14
HETATM   14  C           1     -22.082 -10.376  -0.259  0.00  0.00     0.185 C 
BRANCH  14  15
HETATM   15  C           1     -22.482 -11.707   0.330  0.00  0.00     0.196 C 
HETATM   16  O           1     -23.665 -12.098   0.245  0.00  0.00    -0.646 OA
HETATM   17  O           1     -21.627 -12.417   0.905  0.00  0.00    -0.646 OA
ENDBRANCH  14  15
BRANCH  14  18
HETATM   18  C           1     -23.206  -9.370  -0.053  0.00  0.00     0.040 C 
BRANCH  18  19
HETATM   19  C           1     -22.632  -8.070   0.494  0.00  0.00    -0.020 C 
HETATM   20  C           1     -21.321  -8.359   1.214  0.00  0.00     0.009 C 
HETATM   21  C           1     -22.378  -7.104  -0.654  0.00  0.00     0.009 C 
ENDBRANCH  18  19
ENDBRANCH  14  18
ENDBRANCH   4  14
TORSDOF 5
ENDMDL
MODEL 8
REMARK VINA RESULT:      -5.0      2.810      4.749
REMARK  5 active torsions:
REMARK  status: ('A' for Active; 'I' for Inactive)
REMARK    1  A    between atoms: C_3  and  C_4 
REMARK    2  A    between atoms: C_4  and  C_5 
REMARK    3  A    between atoms: C_4  and  N_19 
REMARK    4  A    between atoms: C_5  and  C_7 
REMARK    5  A    between atoms: C_8  and  C_18 
REMARK       I    between atoms: C_18  and  N_19 
ROOT
HETATM    1  H           1     -34.966  -0.103  -9.282  0.00  0.00     0.163 HD
HETATM    2  O           1     -37.070  -2.209 -10.270  0.00  0.00    -0.271 OA
HETATM    3  C           1     -35.995  -1.667 -10.164  0.00  0.00     0.249 C 
HETATM    4  N           1     -35.865  -0.557  -9.372  0.00  0.00    -0.345 N 
ENDROOT
BRANCH   3   5
HETATM    5  C           1     -34.798  -2.212 -10.903  0.00  0.00     0.274 C 
HETATM    6  C           1     -33.993  -1.058 -11.484  0.00  0.00     0.042 C 
HETATM    7  C           1     -34.865  -0.264 -12.448  0.00  0.00     0.003 C 
HETATM    8 Se           1     -35.467  -1.427 -13.891  0.00  0.00     0.000 Se
HETATM    9  C           1     -36.484  -0.039 -14.806  0.00  0.00     0.000 C 
HETATM   10  H           1     -35.861  -2.562 -12.673  0.00  0.00     0.275 HD
HETATM   11  N           1     -35.262  -3.108 -12.013  0.00  0.00    -0.067 N 
HETATM   12  H           1     -34.433  -3.486 -12.525  0.00  0.00     0.275 HD
HETATM   13  H           1     -35.814  -3.900 -11.613  0.00  0.00     0.275 HD
ENDBRANCH   3   5
BRANCH   4  14
HETATM   14  C           1     -37.016  -0.035  -8.661  0.00  0.00     0.185 C 
BRANCH  14  15
HETATM   15  C           1     -37.727   0.973  -9.530  0.00  0.00     0.196 C 
HETATM   16  O           1     -38.072   2.076  -9.054  0.00  0.00    -0.646 OA
HETATM   17  O           1     -37.971   0.704 -10.726  0.00  0.00    -0.646 OA
ENDBRANCH  14  15
BRANCH  14  18
HETATM   18  C           1     -36.554   0.638  -7.375  0.00  0.00     0.040 C 
BRANCH  18  19
HETATM   19  C           1     -37.617   0.460  -6.298  0.00  0.00    -0.020 C 
HETATM   20  C           1     -38.069  -0.994  -6.267  0.00  0.00     0.009 C 
HETATM   21  C           1     -37.035   0.840  -4.944  0.00  0.00     0.009 C 
ENDBRANCH  18  19
ENDBRANCH  14  18
ENDBRANCH   4  14
TORSDOF 5
ENDMDL
MODEL 9
REMARK VINA RESULT:      -5.0      9.821     12.399
REMARK  5 active torsions:
REMARK  status: ('A' for Active; 'I' for Inactive)
REMARK    1  A    between atoms: C_3  and  C_4 
REMARK    2  A    between atoms: C_4  and  C_5 
REMARK    3  A    between atoms: C_4  and  N_19 
REMARK    4  A    between atoms: C_5  and  C_7 
REMARK    5  A    between atoms: C_8  and  C_18 
REMARK       I    between atoms: C_18  and  N_19 
ROOT
HETATM    1  H           1     -26.324  -7.398 -18.400  0.00  0.00     0.163 HD
HETATM    2  O           1     -28.434  -5.145 -18.956  0.00  0.00    -0.271 OA
HETATM    3  C           1     -27.725  -5.878 -18.308  0.00  0.00     0.249 C 
HETATM    4  N           1     -26.918  -6.784 -18.942  0.00  0.00    -0.345 N 
ENDROOT
BRANCH   3   5
HETATM    5  C           1     -27.730  -5.795 -16.802  0.00  0.00     0.274 C 
HETATM    6  C           1     -28.702  -6.823 -16.240  0.00  0.00     0.042 C 
HETATM    7  C           1     -30.103  -6.540 -16.767  0.00  0.00     0.003 C 
HETATM    8 Se           1     -30.656  -4.754 -16.216  0.00  0.00     0.000 Se
HETATM    9  C           1     -32.402  -4.852 -17.077  0.00  0.00     0.000 C 
HETATM   10  H           1     -29.116  -4.227 -16.741  0.00  0.00     0.275 HD
HETATM   11  N           1     -28.155  -4.421 -16.378  0.00  0.00    -0.067 N 
HETATM   12  H           1     -28.158  -4.362 -15.335  0.00  0.00     0.275 HD
HETATM   13  H           1     -27.487  -3.715 -16.764  0.00  0.00     0.275 HD
ENDBRANCH   3   5
BRANCH   4  14
HETATM   14  C           1     -26.913  -6.862 -20.390  0.00  0.00     0.185 C 
BRANCH  14  15
HETATM   15  C           1     -27.464  -8.199 -20.822  0.00  0.00     0.196 C 
HETATM   16  O           1     -26.877  -8.861 -21.705  0.00  0.00    -0.646 OA
HETATM   17  O           1     -28.508  -8.643 -20.297  0.00  0.00    -0.646 OA
ENDBRANCH  14  15
BRANCH  14  18
HETATM   18  C           1     -25.487  -6.711 -20.901  0.00  0.00     0.040 C 
BRANCH  18  19
HETATM   19  C           1     -24.575  -7.679 -20.158  0.00  0.00    -0.020 C 
HETATM   20  C           1     -23.548  -8.251 -21.126  0.00  0.00     0.009 C 
HETATM   21  C           1     -23.859  -6.941 -19.035  0.00  0.00     0.009 C 
ENDBRANCH  18  19
ENDBRANCH  14  18
ENDBRANCH   4  14
TORSDOF 5
ENDMDL
