MODEL 1
REMARK VINA RESULT:      -7.0      0.000      0.000
REMARK  9 active torsions:
REMARK  status: ('A' for Active; 'I' for Inactive)
REMARK    1  A    between atoms: N_2  and  C_19 
REMARK       I    between atoms: N_2  and  C_3 
REMARK    2  A    between atoms: C_3  and  C_10 
REMARK    3  A    between atoms: N_7  and  C_10 
REMARK    4  A    between atoms: Se_8  and  C_9 
REMARK    5  A    between atoms: C_9  and  C_10 
REMARK    6  A    between atoms: O_11  and  C_12 
REMARK    7  A    between atoms: C_15  and  C_18 
REMARK    8  A    between atoms: C_18  and  C_19 
REMARK    9  A    between atoms: C_19  and  C_20 
ROOT
HETATM    1  C           1     -36.115  -0.917 -11.776  0.00  0.00     0.189 C 
ENDROOT
BRANCH   1   2
HETATM    2  N           1     -36.073  -0.140 -13.000  0.00  0.00    -0.344 N 
HETATM    3  C           1     -37.117  -0.196 -13.883  0.00  0.00     0.249 C 
HETATM    4  O           1     -38.075  -0.892 -13.643  0.00  0.00    -0.271 OA
HETATM    5  H           1     -35.270   0.443 -13.201  0.00  0.00     0.163 HD
BRANCH   3   6
HETATM    6  C           1     -37.072   0.612 -15.157  0.00  0.00     0.274 C 
BRANCH   6   7
HETATM    7  N           1     -35.781   1.372 -15.220  0.00  0.00    -0.067 N 
HETATM    8  H           1     -35.981   2.397 -15.263  0.00  0.00     0.275 HD
HETATM    9  H           1     -35.211   1.164 -14.369  0.00  0.00     0.275 HD
HETATM   10  H           1     -35.250   1.085 -16.074  0.00  0.00     0.275 HD
ENDBRANCH   6   7
BRANCH   6  11
HETATM   11  C           1     -37.172  -0.321 -16.355  0.00  0.00     0.045 C 
BRANCH  11  12
HETATM   12 Se           1     -35.511  -1.325 -16.537  0.00  0.00     0.000 Se
HETATM   13  H           1     -34.649  -0.191 -16.163  0.00  0.00     0.000 HD
ENDBRANCH  11  12
ENDBRANCH   6  11
ENDBRANCH   3   6
ENDBRANCH   1   2
BRANCH   1  14
HETATM   14  C           1     -34.698  -1.148 -11.272  0.00  0.00     0.074 C 
BRANCH  14  15
HETATM   15  C           1     -34.410  -2.616 -11.241  0.00  0.00    -0.056 A 
HETATM   16  C           1     -33.131  -3.084 -11.542  0.00  0.00     0.010 A 
HETATM   17  C           1     -32.864  -4.452 -11.512  0.00  0.00     0.037 A 
HETATM   18  C           1     -33.875  -5.354 -11.182  0.00  0.00     0.065 A 
HETATM   19  C           1     -35.154  -4.886 -10.880  0.00  0.00     0.037 A 
HETATM   20  C           1     -35.422  -3.518 -10.909  0.00  0.00     0.010 A 
BRANCH  18  21
HETATM   21  O           1     -33.616  -6.683 -11.153  0.00  0.00    -0.361 OA
HETATM   22  H           1     -33.852  -7.017 -10.270  0.00  0.00     0.217 HD
ENDBRANCH  18  21
ENDBRANCH  14  15
ENDBRANCH   1  14
BRANCH   1  23
HETATM   23  C           1     -36.905  -0.166 -10.732  0.00  0.00     0.197 C 
HETATM   24  O           1     -38.075  -0.514 -10.463  0.00  0.00    -0.646 OA
HETATM   25  O           1     -36.389   0.804 -10.135  0.00  0.00    -0.646 OA
ENDBRANCH   1  23
TORSDOF 9
ENDMDL
MODEL 2
REMARK VINA RESULT:      -6.7     13.954     16.884
REMARK  9 active torsions:
REMARK  status: ('A' for Active; 'I' for Inactive)
REMARK    1  A    between atoms: N_2  and  C_19 
REMARK       I    between atoms: N_2  and  C_3 
REMARK    2  A    between atoms: C_3  and  C_10 
REMARK    3  A    between atoms: N_7  and  C_10 
REMARK    4  A    between atoms: Se_8  and  C_9 
REMARK    5  A    between atoms: C_9  and  C_10 
REMARK    6  A    between atoms: O_11  and  C_12 
REMARK    7  A    between atoms: C_15  and  C_18 
REMARK    8  A    between atoms: C_18  and  C_19 
REMARK    9  A    between atoms: C_19  and  C_20 
ROOT
HETATM    1  C           1     -21.040  -5.252  -6.634  0.00  0.00     0.189 C 
ENDROOT
BRANCH   1   2
HETATM    2  N           1     -21.016  -5.186  -5.185  0.00  0.00    -0.344 N 
HETATM    3  C           1     -21.316  -6.298  -4.445  0.00  0.00     0.249 C 
HETATM    4  O           1     -21.599  -7.334  -4.998  0.00  0.00    -0.271 OA
HETATM    5  H           1     -20.778  -4.318  -4.722  0.00  0.00     0.163 HD
BRANCH   3   6
HETATM    6  C           1     -21.291  -6.230  -2.937  0.00  0.00     0.274 C 
BRANCH   6   7
HETATM    7  N           1     -22.657  -5.869  -2.432  0.00  0.00    -0.067 N 
HETATM    8  H           1     -23.378  -6.405  -2.966  0.00  0.00     0.275 HD
HETATM    9  H           1     -22.727  -6.108  -1.417  0.00  0.00     0.275 HD
HETATM   10  H           1     -22.816  -4.845  -2.562  0.00  0.00     0.275 HD
ENDBRANCH   6   7
BRANCH   6  11
HETATM   11  C           1     -20.882  -7.583  -2.374  0.00  0.00     0.045 C 
BRANCH  11  12
HETATM   12 Se           1     -21.840  -7.910  -0.708  0.00  0.00     0.000 Se
HETATM   13  H           1     -22.156  -6.491  -0.476  0.00  0.00     0.000 HD
ENDBRANCH  11  12
ENDBRANCH   6  11
ENDBRANCH   3   6
ENDBRANCH   1   2
BRANCH   1  14
HETATM   14  C           1     -21.528  -3.923  -7.194  0.00  0.00     0.074 C 
BRANCH  14  15
HETATM   15  C           1     -22.088  -4.133  -8.566  0.00  0.00    -0.056 A 
HETATM   16  C           1     -23.452  -4.371  -8.735  0.00  0.00     0.010 A 
HETATM   17  C           1     -23.973  -4.566 -10.013  0.00  0.00     0.037 A 
HETATM   18  C           1     -23.131  -4.524 -11.124  0.00  0.00     0.065 A 
HETATM   19  C           1     -21.767  -4.285 -10.956  0.00  0.00     0.037 A 
HETATM   20  C           1     -21.245  -4.090  -9.677  0.00  0.00     0.010 A 
BRANCH  18  21
HETATM   21  O           1     -23.637  -4.713 -12.366  0.00  0.00    -0.361 OA
HETATM   22  H           1     -23.308  -5.566 -12.698  0.00  0.00     0.217 HD
ENDBRANCH  18  21
ENDBRANCH  14  15
ENDBRANCH   1  14
BRANCH   1  23
HETATM   23  C           1     -19.649  -5.534  -7.147  0.00  0.00     0.197 C 
HETATM   24  O           1     -18.847  -4.593  -7.329  0.00  0.00    -0.646 OA
HETATM   25  O           1     -19.298  -6.710  -7.389  0.00  0.00    -0.646 OA
ENDBRANCH   1  23
TORSDOF 9
ENDMDL
MODEL 3
REMARK VINA RESULT:      -6.3     14.517     17.017
REMARK  9 active torsions:
REMARK  status: ('A' for Active; 'I' for Inactive)
REMARK    1  A    between atoms: N_2  and  C_19 
REMARK       I    between atoms: N_2  and  C_3 
REMARK    2  A    between atoms: C_3  and  C_10 
REMARK    3  A    between atoms: N_7  and  C_10 
REMARK    4  A    between atoms: Se_8  and  C_9 
REMARK    5  A    between atoms: C_9  and  C_10 
REMARK    6  A    between atoms: O_11  and  C_12 
REMARK    7  A    between atoms: C_15  and  C_18 
REMARK    8  A    between atoms: C_18  and  C_19 
REMARK    9  A    between atoms: C_19  and  C_20 
ROOT
HETATM    1  C           1     -21.085  -5.529  -6.840  0.00  0.00     0.189 C 
ENDROOT
BRANCH   1   2
HETATM    2  N           1     -21.658  -6.350  -5.790  0.00  0.00    -0.344 N 
HETATM    3  C           1     -21.053  -7.525  -5.434  0.00  0.00     0.249 C 
HETATM    4  O           1     -20.042  -7.878  -5.993  0.00  0.00    -0.271 OA
HETATM    5  H           1     -22.504  -6.053  -5.322  0.00  0.00     0.163 HD
BRANCH   3   6
HETATM    6  C           1     -21.649  -8.379  -4.342  0.00  0.00     0.274 C 
BRANCH   6   7
HETATM    7  N           1     -21.394  -9.826  -4.645  0.00  0.00    -0.067 N 
HETATM    8  H           1     -22.303 -10.308  -4.831  0.00  0.00     0.275 HD
HETATM    9  H           1     -20.782  -9.903  -5.488  0.00  0.00     0.275 HD
HETATM   10  H           1     -20.922 -10.274  -3.828  0.00  0.00     0.275 HD
ENDBRANCH   6   7
BRANCH   6  11
HETATM   11  C           1     -21.009  -8.020  -3.008  0.00  0.00     0.045 C 
BRANCH  11  12
HETATM   12 Se           1     -21.959  -6.515  -2.215  0.00  0.00     0.000 Se
HETATM   13  H           1     -21.136  -5.493  -2.883  0.00  0.00     0.000 HD
ENDBRANCH  11  12
ENDBRANCH   6  11
ENDBRANCH   3   6
ENDBRANCH   1   2
BRANCH   1  14
HETATM   14  C           1     -22.117  -4.513  -7.310  0.00  0.00     0.074 C 
BRANCH  14  15
HETATM   15  C           1     -22.030  -4.362  -8.796  0.00  0.00    -0.056 A 
HETATM   16  C           1     -23.164  -4.551  -9.585  0.00  0.00     0.010 A 
HETATM   17  C           1     -23.083  -4.410 -10.970  0.00  0.00     0.037 A 
HETATM   18  C           1     -21.866  -4.079 -11.568  0.00  0.00     0.065 A 
HETATM   19  C           1     -20.732  -3.890 -10.779  0.00  0.00     0.037 A 
HETATM   20  C           1     -20.813  -4.031  -9.393  0.00  0.00     0.010 A 
BRANCH  18  21
HETATM   21  O           1     -21.787  -3.942 -12.913  0.00  0.00    -0.361 OA
HETATM   22  H           1     -22.683  -4.040 -13.278  0.00  0.00     0.217 HD
ENDBRANCH  18  21
ENDBRANCH  14  15
ENDBRANCH   1  14
BRANCH   1  23
HETATM   23  C           1     -19.873  -4.805  -6.307  0.00  0.00     0.197 C 
HETATM   24  O           1     -19.894  -4.312  -5.159  0.00  0.00    -0.646 OA
HETATM   25  O           1     -18.847  -4.699  -7.013  0.00  0.00    -0.646 OA
ENDBRANCH   1  23
TORSDOF 9
ENDMDL
MODEL 4
REMARK VINA RESULT:      -5.7     16.136     18.167
REMARK  9 active torsions:
REMARK  status: ('A' for Active; 'I' for Inactive)
REMARK    1  A    between atoms: N_2  and  C_19 
REMARK       I    between atoms: N_2  and  C_3 
REMARK    2  A    between atoms: C_3  and  C_10 
REMARK    3  A    between atoms: N_7  and  C_10 
REMARK    4  A    between atoms: Se_8  and  C_9 
REMARK    5  A    between atoms: C_9  and  C_10 
REMARK    6  A    between atoms: O_11  and  C_12 
REMARK    7  A    between atoms: C_15  and  C_18 
REMARK    8  A    between atoms: C_18  and  C_19 
REMARK    9  A    between atoms: C_19  and  C_20 
ROOT
HETATM    1  C           1     -20.247  -8.061  -4.790  0.00  0.00     0.189 C 
ENDROOT
BRANCH   1   2
HETATM    2  N           1     -20.636  -7.482  -6.062  0.00  0.00    -0.344 N 
HETATM    3  C           1     -20.854  -6.135  -6.162  0.00  0.00     0.249 C 
HETATM    4  O           1     -20.723  -5.427  -5.191  0.00  0.00    -0.271 OA
HETATM    5  H           1     -20.745  -8.075  -6.875  0.00  0.00     0.163 HD
BRANCH   3   6
HETATM    6  C           1     -21.259  -5.532  -7.485  0.00  0.00     0.274 C 
BRANCH   6   7
HETATM    7  N           1     -22.277  -4.455  -7.252  0.00  0.00    -0.067 N 
HETATM    8  H           1     -21.791  -3.565  -7.000  0.00  0.00     0.275 HD
HETATM    9  H           1     -22.837  -4.311  -8.122  0.00  0.00     0.275 HD
HETATM   10  H           1     -22.911  -4.740  -6.472  0.00  0.00     0.275 HD
ENDBRANCH   6   7
BRANCH   6  11
HETATM   11  C           1     -20.036  -4.935  -8.167  0.00  0.00     0.045 C 
BRANCH  11  12
HETATM   12 Se           1     -20.537  -4.259  -9.925  0.00  0.00     0.000 Se
HETATM   13  H           1     -19.875  -2.957  -9.742  0.00  0.00     0.000 HD
ENDBRANCH  11  12
ENDBRANCH   6  11
ENDBRANCH   3   6
ENDBRANCH   1   2
BRANCH   1  14
HETATM   14  C           1     -21.357  -8.975  -4.288  0.00  0.00     0.074 C 
BRANCH  14  15
HETATM   15  C           1     -21.635  -8.680  -2.848  0.00  0.00    -0.056 A 
HETATM   16  C           1     -21.648  -7.361  -2.394  0.00  0.00     0.010 A 
HETATM   17  C           1     -21.908  -7.087  -1.052  0.00  0.00     0.037 A 
HETATM   18  C           1     -22.155  -8.132  -0.161  0.00  0.00     0.065 A 
HETATM   19  C           1     -22.142  -9.451  -0.614  0.00  0.00     0.037 A 
HETATM   20  C           1     -21.883  -9.725  -1.957  0.00  0.00     0.010 A 
BRANCH  18  21
HETATM   21  O           1     -22.407  -7.866   1.143  0.00  0.00    -0.361 OA
HETATM   22  H           1     -22.091  -6.966   1.333  0.00  0.00     0.217 HD
ENDBRANCH  18  21
ENDBRANCH  14  15
ENDBRANCH   1  14
BRANCH   1  23
HETATM   23  C           1     -18.979  -8.860  -4.968  0.00  0.00     0.197 C 
HETATM   24  O           1     -18.328  -9.229  -3.968  0.00  0.00    -0.646 OA
HETATM   25  O           1     -18.581  -9.153  -6.117  0.00  0.00    -0.646 OA
ENDBRANCH   1  23
TORSDOF 9
ENDMDL
MODEL 5
REMARK VINA RESULT:      -5.6     16.061     18.112
REMARK  9 active torsions:
REMARK  status: ('A' for Active; 'I' for Inactive)
REMARK    1  A    between atoms: N_2  and  C_19 
REMARK       I    between atoms: N_2  and  C_3 
REMARK    2  A    between atoms: C_3  and  C_10 
REMARK    3  A    between atoms: N_7  and  C_10 
REMARK    4  A    between atoms: Se_8  and  C_9 
REMARK    5  A    between atoms: C_9  and  C_10 
REMARK    6  A    between atoms: O_11  and  C_12 
REMARK    7  A    between atoms: C_15  and  C_18 
REMARK    8  A    between atoms: C_18  and  C_19 
REMARK    9  A    between atoms: C_19  and  C_20 
ROOT
HETATM    1  C           1     -21.354  -7.067  -4.138  0.00  0.00     0.189 C 
ENDROOT
BRANCH   1   2
HETATM    2  N           1     -21.498  -8.489  -4.384  0.00  0.00    -0.344 N 
HETATM    3  C           1     -20.420  -9.224  -4.798  0.00  0.00     0.249 C 
HETATM    4  O           1     -19.349  -8.689  -4.958  0.00  0.00    -0.271 OA
HETATM    5  H           1     -22.396  -8.937  -4.249  0.00  0.00     0.163 HD
BRANCH   3   6
HETATM    6  C           1     -20.570 -10.704  -5.054  0.00  0.00     0.274 C 
BRANCH   6   7
HETATM    7  N           1     -21.200 -10.916  -6.399  0.00  0.00    -0.067 N 
HETATM    8  H           1     -22.233 -10.780  -6.325  0.00  0.00     0.275 HD
HETATM    9  H           1     -20.806 -10.229  -7.081  0.00  0.00     0.275 HD
HETATM   10  H           1     -20.999 -11.888  -6.727  0.00  0.00     0.275 HD
ENDBRANCH   6   7
BRANCH   6  11
HETATM   11  C           1     -19.200 -11.366  -5.025  0.00  0.00     0.045 C 
BRANCH  11  12
HETATM   12 Se           1     -18.713 -11.933  -6.826  0.00  0.00     0.000 Se
HETATM   13  H           1     -20.106 -12.059  -7.288  0.00  0.00     0.000 HD
ENDBRANCH  11  12
ENDBRANCH   6  11
ENDBRANCH   3   6
ENDBRANCH   1   2
BRANCH   1  14
HETATM   14  C           1     -22.424  -6.308  -4.910  0.00  0.00     0.074 C 
BRANCH  14  15
HETATM   15  C           1     -21.799  -5.612  -6.078  0.00  0.00    -0.056 A 
HETATM   16  C           1     -22.578  -4.809  -6.911  0.00  0.00     0.010 A 
HETATM   17  C           1     -21.994  -4.160  -7.999  0.00  0.00     0.037 A 
HETATM   18  C           1     -20.632  -4.314  -8.255  0.00  0.00     0.065 A 
HETATM   19  C           1     -19.853  -5.116  -7.421  0.00  0.00     0.037 A 
HETATM   20  C           1     -20.436  -5.765  -6.333  0.00  0.00     0.010 A 
BRANCH  18  21
HETATM   21  O           1     -20.066  -3.683  -9.311  0.00  0.00    -0.361 OA
HETATM   22  H           1     -20.052  -4.304 -10.060  0.00  0.00     0.217 HD
ENDBRANCH  18  21
ENDBRANCH  14  15
ENDBRANCH   1  14
BRANCH   1  23
HETATM   23  C           1     -21.510  -6.795  -2.661  0.00  0.00     0.197 C 
HETATM   24  O           1     -22.325  -5.933  -2.268  0.00  0.00    -0.646 OA
HETATM   25  O           1     -20.825  -7.432  -1.832  0.00  0.00    -0.646 OA
ENDBRANCH   1  23
TORSDOF 9
ENDMDL
MODEL 6
REMARK VINA RESULT:      -5.5      1.516      2.030
REMARK  9 active torsions:
REMARK  status: ('A' for Active; 'I' for Inactive)
REMARK    1  A    between atoms: N_2  and  C_19 
REMARK       I    between atoms: N_2  and  C_3 
REMARK    2  A    between atoms: C_3  and  C_10 
REMARK    3  A    between atoms: N_7  and  C_10 
REMARK    4  A    between atoms: Se_8  and  C_9 
REMARK    5  A    between atoms: C_9  and  C_10 
REMARK    6  A    between atoms: O_11  and  C_12 
REMARK    7  A    between atoms: C_15  and  C_18 
REMARK    8  A    between atoms: C_18  and  C_19 
REMARK    9  A    between atoms: C_19  and  C_20 
ROOT
HETATM    1  C           1     -36.429  -1.085 -10.955  0.00  0.00     0.189 C 
ENDROOT
BRANCH   1   2
HETATM    2  N           1     -36.650  -0.930 -12.380  0.00  0.00    -0.344 N 
HETATM    3  C           1     -35.906  -0.030 -13.094  0.00  0.00     0.249 C 
HETATM    4  O           1     -35.065   0.635 -12.539  0.00  0.00    -0.271 OA
HETATM    5  H           1     -37.355  -1.487 -12.846  0.00  0.00     0.163 HD
BRANCH   3   6
HETATM    6  C           1     -36.136   0.131 -14.578  0.00  0.00     0.274 C 
BRANCH   6   7
HETATM    7  N           1     -37.555   0.556 -14.819  0.00  0.00    -0.067 N 
HETATM    8  H           1     -37.857   0.238 -15.767  0.00  0.00     0.275 HD
HETATM    9  H           1     -38.175   0.128 -14.094  0.00  0.00     0.275 HD
HETATM   10  H           1     -37.619   1.598 -14.764  0.00  0.00     0.275 HD
ENDBRANCH   6   7
BRANCH   6  11
HETATM   11  C           1     -35.189   1.188 -15.127  0.00  0.00     0.045 C 
BRANCH  11  12
HETATM   12 Se           1     -36.197   2.472 -16.194  0.00  0.00     0.000 Se
HETATM   13  H           1     -35.690   1.974 -17.484  0.00  0.00     0.000 HD
ENDBRANCH  11  12
ENDBRANCH   6  11
ENDBRANCH   3   6
ENDBRANCH   1   2
BRANCH   1  14
HETATM   14  C           1     -34.936  -1.211 -10.685  0.00  0.00     0.074 C 
BRANCH  14  15
HETATM   15  C           1     -34.515  -2.637 -10.859  0.00  0.00    -0.056 A 
HETATM   16  C           1     -35.417  -3.668 -10.598  0.00  0.00     0.010 A 
HETATM   17  C           1     -35.024  -4.996 -10.762  0.00  0.00     0.037 A 
HETATM   18  C           1     -33.729  -5.294 -11.185  0.00  0.00     0.065 A 
HETATM   19  C           1     -32.827  -4.263 -11.447  0.00  0.00     0.037 A 
HETATM   20  C           1     -33.220  -2.934 -11.284  0.00  0.00     0.010 A 
BRANCH  18  21
HETATM   21  O           1     -33.348  -6.584 -11.344  0.00  0.00    -0.361 OA
HETATM   22  H           1     -33.784  -7.113 -10.654  0.00  0.00     0.217 HD
ENDBRANCH  18  21
ENDBRANCH  14  15
ENDBRANCH   1  14
BRANCH   1  23
HETATM   23  C           1     -36.972   0.122 -10.229  0.00  0.00     0.197 C 
HETATM   24  O           1     -36.320   0.634  -9.294  0.00  0.00    -0.646 OA
HETATM   25  O           1     -38.074   0.609 -10.562  0.00  0.00    -0.646 OA
ENDBRANCH   1  23
TORSDOF 9
ENDMDL
MODEL 7
REMARK VINA RESULT:      -5.5     17.800     19.204
REMARK  9 active torsions:
REMARK  status: ('A' for Active; 'I' for Inactive)
REMARK    1  A    between atoms: N_2  and  C_19 
REMARK       I    between atoms: N_2  and  C_3 
REMARK    2  A    between atoms: C_3  and  C_10 
REMARK    3  A    between atoms: N_7  and  C_10 
REMARK    4  A    between atoms: Se_8  and  C_9 
REMARK    5  A    between atoms: C_9  and  C_10 
REMARK    6  A    between atoms: O_11  and  C_12 
REMARK    7  A    between atoms: C_15  and  C_18 
REMARK    8  A    between atoms: C_18  and  C_19 
REMARK    9  A    between atoms: C_19  and  C_20 
ROOT
HETATM    1  C           1     -21.687  -8.188  -1.642  0.00  0.00     0.189 C 
ENDROOT
BRANCH   1   2
HETATM    2  N           1     -20.686  -7.903  -2.652  0.00  0.00    -0.344 N 
HETATM    3  C           1     -20.881  -8.312  -3.943  0.00  0.00     0.249 C 
HETATM    4  O           1     -21.887  -8.910  -4.242  0.00  0.00    -0.271 OA
HETATM    5  H           1     -19.843  -7.401  -2.402  0.00  0.00     0.163 HD
BRANCH   3   6
HETATM    6  C           1     -19.840  -8.016  -4.995  0.00  0.00     0.274 C 
BRANCH   6   7
HETATM    7  N           1     -19.398  -9.299  -5.635  0.00  0.00    -0.067 N 
HETATM    8  H           1     -19.826 -10.106  -5.128  0.00  0.00     0.275 HD
HETATM    9  H           1     -19.704  -9.313  -6.634  0.00  0.00     0.275 HD
HETATM   10  H           1     -18.357  -9.370  -5.588  0.00  0.00     0.275 HD
ENDBRANCH   6   7
BRANCH   6  11
HETATM   11  C           1     -20.433  -7.098  -6.055  0.00  0.00     0.045 C 
BRANCH  11  12
HETATM   12 Se           1     -20.588  -5.292  -5.338  0.00  0.00     0.000 Se
HETATM   13  H           1     -20.812  -5.736  -3.952  0.00  0.00     0.000 HD
ENDBRANCH  11  12
ENDBRANCH   6  11
ENDBRANCH   3   6
ENDBRANCH   1   2
BRANCH   1  14
HETATM   14  C           1     -21.017  -8.819  -0.429  0.00  0.00     0.074 C 
BRANCH  14  15
HETATM   15  C           1     -21.699 -10.109  -0.096  0.00  0.00    -0.056 A 
HETATM   16  C           1     -23.038 -10.300  -0.437  0.00  0.00     0.010 A 
HETATM   17  C           1     -23.672 -11.502  -0.126  0.00  0.00     0.037 A 
HETATM   18  C           1     -22.968 -12.515   0.525  0.00  0.00     0.065 A 
HETATM   19  C           1     -21.629 -12.325   0.865  0.00  0.00     0.037 A 
HETATM   20  C           1     -20.994 -11.122   0.555  0.00  0.00     0.010 A 
BRANCH  18  21
HETATM   21  O           1     -23.585 -13.683   0.826  0.00  0.00    -0.361 OA
HETATM   22  H           1     -23.989 -14.028   0.012  0.00  0.00     0.217 HD
ENDBRANCH  18  21
ENDBRANCH  14  15
ENDBRANCH   1  14
BRANCH   1  23
HETATM   23  C           1     -22.365  -6.904  -1.231  0.00  0.00     0.197 C 
HETATM   24  O           1     -22.992  -6.846  -0.152  0.00  0.00    -0.646 OA
HETATM   25  O           1     -22.300  -5.898  -1.971  0.00  0.00    -0.646 OA
ENDBRANCH   1  23
TORSDOF 9
ENDMDL
MODEL 8
REMARK VINA RESULT:      -5.5     18.423     19.854
REMARK  9 active torsions:
REMARK  status: ('A' for Active; 'I' for Inactive)
REMARK    1  A    between atoms: N_2  and  C_19 
REMARK       I    between atoms: N_2  and  C_3 
REMARK    2  A    between atoms: C_3  and  C_10 
REMARK    3  A    between atoms: N_7  and  C_10 
REMARK    4  A    between atoms: Se_8  and  C_9 
REMARK    5  A    between atoms: C_9  and  C_10 
REMARK    6  A    between atoms: O_11  and  C_12 
REMARK    7  A    between atoms: C_15  and  C_18 
REMARK    8  A    between atoms: C_18  and  C_19 
REMARK    9  A    between atoms: C_19  and  C_20 
ROOT
HETATM    1  C           1     -21.713  -8.155  -1.850  0.00  0.00     0.189 C 
ENDROOT
BRANCH   1   2
HETATM    2  N           1     -20.481  -8.477  -2.545  0.00  0.00    -0.344 N 
HETATM    3  C           1     -20.496  -9.363  -3.587  0.00  0.00     0.249 C 
HETATM    4  O           1     -21.534  -9.877  -3.930  0.00  0.00    -0.271 OA
HETATM    5  H           1     -19.612  -8.046  -2.259  0.00  0.00     0.163 HD
BRANCH   3   6
HETATM    6  C           1     -19.214  -9.699  -4.311  0.00  0.00     0.274 C 
BRANCH   6   7
HETATM    7  N           1     -19.111  -8.866  -5.554  0.00  0.00    -0.067 N 
HETATM    8  H           1     -19.307  -9.462  -6.390  0.00  0.00     0.275 HD
HETATM    9  H           1     -19.806  -8.088  -5.511  0.00  0.00     0.275 HD
HETATM   10  H           1     -18.147  -8.470  -5.628  0.00  0.00     0.275 HD
ENDBRANCH   6   7
BRANCH   6  11
HETATM   11  C           1     -18.027  -9.407  -3.404  0.00  0.00     0.045 C 
BRANCH  11  12
HETATM   12 Se           1     -16.385 -10.002  -4.271  0.00  0.00     0.000 Se
HETATM   13  H           1     -15.496  -9.333  -3.306  0.00  0.00     0.000 HD
ENDBRANCH  11  12
ENDBRANCH   6  11
ENDBRANCH   3   6
ENDBRANCH   1   2
BRANCH   1  14
HETATM   14  C           1     -21.546  -8.439  -0.364  0.00  0.00     0.074 C 
BRANCH  14  15
HETATM   15  C           1     -22.055  -9.813  -0.058  0.00  0.00    -0.056 A 
HETATM   16  C           1     -23.390 -10.135  -0.302  0.00  0.00     0.010 A 
HETATM   17  C           1     -23.863 -11.415  -0.017  0.00  0.00     0.037 A 
HETATM   18  C           1     -23.001 -12.375   0.514  0.00  0.00     0.065 A 
HETATM   19  C           1     -21.666 -12.054   0.758  0.00  0.00     0.037 A 
HETATM   20  C           1     -21.192 -10.773   0.472  0.00  0.00     0.010 A 
BRANCH  18  21
HETATM   21  O           1     -23.460 -13.619   0.791  0.00  0.00    -0.361 OA
HETATM   22  H           1     -23.684 -13.653   1.736  0.00  0.00     0.217 HD
ENDBRANCH  18  21
ENDBRANCH  14  15
ENDBRANCH   1  14
BRANCH   1  23
HETATM   23  C           1     -22.035  -6.694  -2.050  0.00  0.00     0.197 C 
HETATM   24  O           1     -21.960  -6.188  -3.190  0.00  0.00    -0.646 OA
HETATM   25  O           1     -22.378  -5.990  -1.076  0.00  0.00    -0.646 OA
ENDBRANCH   1  23
TORSDOF 9
ENDMDL
MODEL 9
REMARK VINA RESULT:      -5.4     17.966     19.323
REMARK  9 active torsions:
REMARK  status: ('A' for Active; 'I' for Inactive)
REMARK    1  A    between atoms: N_2  and  C_19 
REMARK       I    between atoms: N_2  and  C_3 
REMARK    2  A    between atoms: C_3  and  C_10 
REMARK    3  A    between atoms: N_7  and  C_10 
REMARK    4  A    between atoms: Se_8  and  C_9 
REMARK    5  A    between atoms: C_9  and  C_10 
REMARK    6  A    between atoms: O_11  and  C_12 
REMARK    7  A    between atoms: C_15  and  C_18 
REMARK    8  A    between atoms: C_18  and  C_19 
REMARK    9  A    between atoms: C_19  and  C_20 
ROOT
HETATM    1  C           1     -20.751  -8.773  -4.758  0.00  0.00     0.189 C 
ENDROOT
BRANCH   1   2
HETATM    2  N           1     -20.081  -9.832  -5.489  0.00  0.00    -0.344 N 
HETATM    3  C           1     -20.679 -11.055  -5.622  0.00  0.00     0.249 C 
HETATM    4  O           1     -21.765 -11.254  -5.132  0.00  0.00    -0.271 OA
HETATM    5  H           1     -19.171  -9.664  -5.899  0.00  0.00     0.163 HD
BRANCH   3   6
HETATM    6  C           1     -19.981 -12.157  -6.382  0.00  0.00     0.274 C 
BRANCH   6   7
HETATM    7  N           1     -19.033 -11.554  -7.375  0.00  0.00    -0.067 N 
HETATM    8  H           1     -18.292 -11.019  -6.869  0.00  0.00     0.275 HD
HETATM    9  H           1     -18.589 -12.314  -7.939  0.00  0.00     0.275 HD
HETATM   10  H           1     -19.557 -10.909  -8.009  0.00  0.00     0.275 HD
ENDBRANCH   6   7
BRANCH   6  11
HETATM   11  C           1     -19.207 -13.035  -5.409  0.00  0.00     0.045 C 
BRANCH  11  12
HETATM   12 Se           1     -17.309 -12.606  -5.514  0.00  0.00     0.000 Se
HETATM   13  H           1     -17.373 -12.139  -6.909  0.00  0.00     0.000 HD
ENDBRANCH  11  12
ENDBRANCH   6  11
ENDBRANCH   3   6
ENDBRANCH   1   2
BRANCH   1  14
HETATM   14  C           1     -20.005  -8.501  -3.460  0.00  0.00     0.074 C 
BRANCH  14  15
HETATM   15  C           1     -20.988  -8.303  -2.349  0.00  0.00    -0.056 A 
HETATM   16  C           1     -21.497  -9.404  -1.662  0.00  0.00     0.010 A 
HETATM   17  C           1     -22.413  -9.218  -0.627  0.00  0.00     0.037 A 
HETATM   18  C           1     -22.821  -7.931  -0.278  0.00  0.00     0.065 A 
HETATM   19  C           1     -22.311  -6.829  -0.964  0.00  0.00     0.037 A 
HETATM   20  C           1     -21.395  -7.014  -2.000  0.00  0.00     0.010 A 
BRANCH  18  21
HETATM   21  O           1     -23.710  -7.751   0.728  0.00  0.00    -0.361 OA
HETATM   22  H           1     -24.591  -7.995   0.397  0.00  0.00     0.217 HD
ENDBRANCH  18  21
ENDBRANCH  14  15
ENDBRANCH   1  14
BRANCH   1  23
HETATM   23  C           1     -20.773  -7.519  -5.598  0.00  0.00     0.197 C 
HETATM   24  O           1     -21.767  -6.762  -5.565  0.00  0.00    -0.646 OA
HETATM   25  O           1     -19.797  -7.238  -6.327  0.00  0.00    -0.646 OA
ENDBRANCH   1  23
TORSDOF 9
ENDMDL
