MODEL 1
REMARK VINA RESULT:      -6.4      0.000      0.000
REMARK  8 active torsions:
REMARK  status: ('A' for Active; 'I' for Inactive)
REMARK    1  A    between atoms: C_3  and  C_18 
REMARK    2  A    between atoms: N_4  and  C_16 
REMARK       I    between atoms: N_4  and  C_19 
REMARK    3  A    between atoms: C_5  and  C_19 
REMARK    4  A    between atoms: C_5  and  C_6 
REMARK    5  A    between atoms: C_5  and  N_20 
REMARK    6  A    between atoms: C_6  and  C_9 
REMARK    7  A    between atoms: C_13  and  C_16 
REMARK    8  A    between atoms: C_16  and  C_18 
ROOT
HETATM    1  N           1     -35.350  -2.118 -12.132  0.00  0.00    -0.345 N 
HETATM    2  H           1     -35.899  -2.750 -12.701  0.00  0.00     0.163 HD
HETATM    3  C           1     -34.203  -2.558 -11.530  0.00  0.00     0.249 C 
HETATM    4  O           1     -33.549  -1.803 -10.851  0.00  0.00    -0.271 OA
ENDROOT
BRANCH   3   5
HETATM    5  C           1     -33.756  -3.988 -11.712  0.00  0.00     0.275 C 
BRANCH   5   6
HETATM    6  C           1     -34.071  -4.784 -10.452  0.00  0.00     0.046 C 
BRANCH   6   7
HETATM    7  C           1     -34.244  -6.254 -10.809  0.00  0.00    -0.020 C 
HETATM    8  C           1     -34.883  -6.989  -9.638  0.00  0.00     0.009 C 
HETATM    9  C           1     -35.140  -6.377 -12.033  0.00  0.00     0.009 C 
ENDBRANCH   6   7
ENDBRANCH   5   6
BRANCH   5  10
HETATM   10  N           1     -32.278  -4.019 -11.966  0.00  0.00    -0.066 N 
HETATM   11  H           1     -32.016  -4.936 -12.392  0.00  0.00     0.275 HD
HETATM   12  H           1     -32.019  -3.244 -12.617  0.00  0.00     0.275 HD
HETATM   13  H           1     -31.766  -3.898 -11.061  0.00  0.00     0.275 HD
ENDBRANCH   5  10
ENDBRANCH   3   5
BRANCH   1  14
HETATM   14  C           1     -35.781  -0.745 -11.956  0.00  0.00     0.185 C 
BRANCH  14  15
HETATM   15  C           1     -36.737  -0.664 -10.792  0.00  0.00     0.196 C 
HETATM   16  O           1     -36.336  -0.258  -9.680  0.00  0.00    -0.646 OA
HETATM   17  O           1     -37.932  -1.003 -10.940  0.00  0.00    -0.646 OA
ENDBRANCH  14  15
BRANCH  14  18
HETATM   18  C           1     -36.478  -0.265 -13.222  0.00  0.00     0.040 C 
BRANCH  18  19
HETATM   19  C           1     -35.436   0.074 -14.279  0.00  0.00    -0.020 C 
HETATM   20  C           1     -36.136   0.492 -15.565  0.00  0.00     0.009 C 
HETATM   21  C           1     -34.562   1.219 -13.781  0.00  0.00     0.009 C 
ENDBRANCH  18  19
ENDBRANCH  14  18
ENDBRANCH   1  14
TORSDOF 8
ENDMDL
MODEL 2
REMARK VINA RESULT:      -6.4     11.940     13.666
REMARK  8 active torsions:
REMARK  status: ('A' for Active; 'I' for Inactive)
REMARK    1  A    between atoms: C_3  and  C_18 
REMARK    2  A    between atoms: N_4  and  C_16 
REMARK       I    between atoms: N_4  and  C_19 
REMARK    3  A    between atoms: C_5  and  C_19 
REMARK    4  A    between atoms: C_5  and  C_6 
REMARK    5  A    between atoms: C_5  and  N_20 
REMARK    6  A    between atoms: C_6  and  C_9 
REMARK    7  A    between atoms: C_13  and  C_16 
REMARK    8  A    between atoms: C_16  and  C_18 
ROOT
HETATM    1  N           1     -23.225  -4.509  -8.521  0.00  0.00    -0.345 N 
HETATM    2  H           1     -23.950  -5.197  -8.359  0.00  0.00     0.163 HD
HETATM    3  C           1     -22.318  -4.225  -7.536  0.00  0.00     0.249 C 
HETATM    4  O           1     -21.453  -3.404  -7.730  0.00  0.00    -0.271 OA
ENDROOT
BRANCH   3   5
HETATM    5  C           1     -22.398  -4.937  -6.208  0.00  0.00     0.275 C 
BRANCH   5   6
HETATM    6  C           1     -21.463  -6.139  -6.219  0.00  0.00     0.046 C 
BRANCH   6   7
HETATM    7  C           1     -21.815  -7.068  -5.065  0.00  0.00    -0.020 C 
HETATM    8  C           1     -21.149  -8.420  -5.280  0.00  0.00     0.009 C 
HETATM    9  C           1     -21.322  -6.463  -3.758  0.00  0.00     0.009 C 
ENDBRANCH   6   7
ENDBRANCH   5   6
BRANCH   5  10
HETATM   10  N           1     -23.805  -5.400  -5.975  0.00  0.00    -0.066 N 
HETATM   11  H           1     -24.470  -4.740  -6.436  0.00  0.00     0.275 HD
HETATM   12  H           1     -23.928  -6.357  -6.377  0.00  0.00     0.275 HD
HETATM   13  H           1     -23.998  -5.428  -4.948  0.00  0.00     0.275 HD
ENDBRANCH   5  10
ENDBRANCH   3   5
BRANCH   1  14
HETATM   14  C           1     -23.150  -3.825  -9.797  0.00  0.00     0.185 C 
BRANCH  14  15
HETATM   15  C           1     -24.527  -3.363 -10.202  0.00  0.00     0.196 C 
HETATM   16  O           1     -25.238  -2.730  -9.391  0.00  0.00    -0.646 OA
HETATM   17  O           1     -24.958  -3.614 -11.348  0.00  0.00    -0.646 OA
ENDBRANCH  14  15
BRANCH  14  18
HETATM   18  C           1     -22.601  -4.776 -10.852  0.00  0.00     0.040 C 
BRANCH  18  19
HETATM   19  C           1     -21.275  -4.243 -11.377  0.00  0.00    -0.020 C 
HETATM   20  C           1     -21.282  -2.721 -11.315  0.00  0.00     0.009 C 
HETATM   21  C           1     -20.136  -4.781 -10.521  0.00  0.00     0.009 C 
ENDBRANCH  18  19
ENDBRANCH  14  18
ENDBRANCH   1  14
TORSDOF 8
ENDMDL
MODEL 3
REMARK VINA RESULT:      -6.2     10.311     11.633
REMARK  8 active torsions:
REMARK  status: ('A' for Active; 'I' for Inactive)
REMARK    1  A    between atoms: C_3  and  C_18 
REMARK    2  A    between atoms: N_4  and  C_16 
REMARK       I    between atoms: N_4  and  C_19 
REMARK    3  A    between atoms: C_5  and  C_19 
REMARK    4  A    between atoms: C_5  and  C_6 
REMARK    5  A    between atoms: C_5  and  N_20 
REMARK    6  A    between atoms: C_6  and  C_9 
REMARK    7  A    between atoms: C_13  and  C_16 
REMARK    8  A    between atoms: C_16  and  C_18 
ROOT
HETATM    1  N           1     -27.523  -6.597 -18.672  0.00  0.00    -0.345 N 
HETATM    2  H           1     -27.607  -6.917 -19.628  0.00  0.00     0.163 HD
HETATM    3  C           1     -26.291  -6.303 -18.154  0.00  0.00     0.249 C 
HETATM    4  O           1     -26.190  -5.921 -17.012  0.00  0.00    -0.271 OA
ENDROOT
BRANCH   3   5
HETATM    5  C           1     -25.056  -6.456 -19.010  0.00  0.00     0.275 C 
BRANCH   5   6
HETATM    6  C           1     -25.460  -6.515 -20.477  0.00  0.00     0.046 C 
BRANCH   6   7
HETATM    7  C           1     -25.222  -7.920 -21.014  0.00  0.00    -0.020 C 
HETATM    8  C           1     -26.551  -8.535 -21.435  0.00  0.00     0.009 C 
HETATM    9  C           1     -24.291  -7.853 -22.216  0.00  0.00     0.009 C 
ENDBRANCH   6   7
ENDBRANCH   5   6
BRANCH   5  10
HETATM   10  N           1     -24.345  -7.722 -18.636  0.00  0.00    -0.066 N 
HETATM   11  H           1     -24.731  -8.086 -17.736  0.00  0.00     0.275 HD
HETATM   12  H           1     -24.482  -8.435 -19.388  0.00  0.00     0.275 HD
HETATM   13  H           1     -23.324  -7.528 -18.522  0.00  0.00     0.275 HD
ENDBRANCH   5  10
ENDBRANCH   3   5
BRANCH   1  14
HETATM   14  C           1     -28.708  -6.452 -17.850  0.00  0.00     0.185 C 
BRANCH  14  15
HETATM   15  C           1     -29.499  -7.736 -17.876  0.00  0.00     0.196 C 
HETATM   16  O           1     -29.526  -8.474 -16.868  0.00  0.00    -0.646 OA
HETATM   17  O           1     -30.127  -8.062 -18.907  0.00  0.00    -0.646 OA
ENDBRANCH  14  15
BRANCH  14  18
HETATM   18  C           1     -29.565  -5.315 -18.391  0.00  0.00     0.040 C 
BRANCH  18  19
HETATM   19  C           1     -29.858  -4.322 -17.274  0.00  0.00    -0.020 C 
HETATM   20  C           1     -28.726  -3.306 -17.190  0.00  0.00     0.009 C 
HETATM   21  C           1     -31.167  -3.601 -17.566  0.00  0.00     0.009 C 
ENDBRANCH  18  19
ENDBRANCH  14  18
ENDBRANCH   1  14
TORSDOF 8
ENDMDL
MODEL 4
REMARK VINA RESULT:      -6.0      2.518      3.749
REMARK  8 active torsions:
REMARK  status: ('A' for Active; 'I' for Inactive)
REMARK    1  A    between atoms: C_3  and  C_18 
REMARK    2  A    between atoms: N_4  and  C_16 
REMARK       I    between atoms: N_4  and  C_19 
REMARK    3  A    between atoms: C_5  and  C_19 
REMARK    4  A    between atoms: C_5  and  C_6 
REMARK    5  A    between atoms: C_5  and  N_20 
REMARK    6  A    between atoms: C_6  and  C_9 
REMARK    7  A    between atoms: C_13  and  C_16 
REMARK    8  A    between atoms: C_16  and  C_18 
ROOT
HETATM    1  N           1     -34.877  -1.421 -13.754  0.00  0.00    -0.345 N 
HETATM    2  H           1     -33.898  -1.676 -13.756  0.00  0.00     0.163 HD
HETATM    3  C           1     -35.594  -1.463 -12.589  0.00  0.00     0.249 C 
HETATM    4  O           1     -36.763  -1.159 -12.588  0.00  0.00    -0.271 OA
ENDROOT
BRANCH   3   5
HETATM    5  C           1     -34.925  -1.890 -11.306  0.00  0.00     0.275 C 
BRANCH   5   6
HETATM    6  C           1     -35.203  -3.367 -11.055  0.00  0.00     0.046 C 
BRANCH   6   7
HETATM    7  C           1     -33.916  -4.062 -10.630  0.00  0.00    -0.020 C 
HETATM    8  C           1     -34.153  -5.564 -10.548  0.00  0.00     0.009 C 
HETATM    9  C           1     -32.825  -3.777 -11.653  0.00  0.00     0.009 C 
ENDBRANCH   6   7
ENDBRANCH   5   6
BRANCH   5  10
HETATM   10  N           1     -35.468  -1.080 -10.167  0.00  0.00    -0.066 N 
HETATM   11  H           1     -36.163  -1.649  -9.635  0.00  0.00     0.275 HD
HETATM   12  H           1     -34.686  -0.801  -9.532  0.00  0.00     0.275 HD
HETATM   13  H           1     -35.934  -0.222 -10.541  0.00  0.00     0.275 HD
ENDBRANCH   5  10
ENDBRANCH   3   5
BRANCH   1  14
HETATM   14  C           1     -35.521  -1.012 -14.988  0.00  0.00     0.185 C 
BRANCH  14  15
HETATM   15  C           1     -35.129  -1.957 -16.096  0.00  0.00     0.196 C 
HETATM   16  O           1     -34.663  -3.084 -15.822  0.00  0.00    -0.646 OA
HETATM   17  O           1     -35.269  -1.612 -17.290  0.00  0.00    -0.646 OA
ENDBRANCH  14  15
BRANCH  14  18
HETATM   18  C           1     -35.081   0.402 -15.345  0.00  0.00     0.040 C 
BRANCH  18  19
HETATM   19  C           1     -36.278   1.340 -15.269  0.00  0.00    -0.020 C 
HETATM   20  C           1     -36.097   2.473 -16.271  0.00  0.00     0.009 C 
HETATM   21  C           1     -37.549   0.569 -15.598  0.00  0.00     0.009 C 
ENDBRANCH  18  19
ENDBRANCH  14  18
ENDBRANCH   1  14
TORSDOF 8
ENDMDL
MODEL 5
REMARK VINA RESULT:      -5.8      2.498      5.257
REMARK  8 active torsions:
REMARK  status: ('A' for Active; 'I' for Inactive)
REMARK    1  A    between atoms: C_3  and  C_18 
REMARK    2  A    between atoms: N_4  and  C_16 
REMARK       I    between atoms: N_4  and  C_19 
REMARK    3  A    between atoms: C_5  and  C_19 
REMARK    4  A    between atoms: C_5  and  C_6 
REMARK    5  A    between atoms: C_5  and  N_20 
REMARK    6  A    between atoms: C_6  and  C_9 
REMARK    7  A    between atoms: C_13  and  C_16 
REMARK    8  A    between atoms: C_16  and  C_18 
ROOT
HETATM    1  N           1     -36.124  -0.065 -11.825  0.00  0.00    -0.345 N 
HETATM    2  H           1     -35.173   0.278 -11.773  0.00  0.00     0.163 HD
HETATM    3  C           1     -36.778  -0.091 -13.027  0.00  0.00     0.249 C 
HETATM    4  O           1     -37.913  -0.499 -13.090  0.00  0.00    -0.271 OA
ENDROOT
BRANCH   3   5
HETATM    5  C           1     -36.081   0.393 -14.276  0.00  0.00     0.275 C 
BRANCH   5   6
HETATM    6  C           1     -35.324  -0.764 -14.916  0.00  0.00     0.046 C 
BRANCH   6   7
HETATM    7  C           1     -35.661  -0.834 -16.399  0.00  0.00    -0.020 C 
HETATM    8  C           1     -35.041  -2.087 -17.002  0.00  0.00     0.009 C 
HETATM    9  C           1     -37.172  -0.881 -16.574  0.00  0.00     0.009 C 
ENDBRANCH   6   7
ENDBRANCH   5   6
BRANCH   5  10
HETATM   10  N           1     -35.115   1.483 -13.917  0.00  0.00    -0.066 N 
HETATM   11  H           1     -34.140   1.112 -13.955  0.00  0.00     0.275 HD
HETATM   12  H           1     -35.214   2.274 -14.592  0.00  0.00     0.275 HD
HETATM   13  H           1     -35.320   1.825 -12.950  0.00  0.00     0.275 HD
ENDBRANCH   5  10
ENDBRANCH   3   5
BRANCH   1  14
HETATM   14  C           1     -36.794  -0.528 -10.626  0.00  0.00     0.185 C 
BRANCH  14  15
HETATM   15  C           1     -37.054   0.642  -9.711  0.00  0.00     0.196 C 
HETATM   16  O           1     -36.247   0.910  -8.793  0.00  0.00    -0.646 OA
HETATM   17  O           1     -38.075   1.345  -9.870  0.00  0.00    -0.646 OA
ENDBRANCH  14  15
BRANCH  14  18
HETATM   18  C           1     -35.913  -1.546  -9.913  0.00  0.00     0.040 C 
BRANCH  18  19
HETATM   19  C           1     -35.124  -2.345 -10.941  0.00  0.00    -0.020 C 
HETATM   20  C           1     -33.638  -2.251 -10.623  0.00  0.00     0.009 C 
HETATM   21  C           1     -35.562  -3.803 -10.895  0.00  0.00     0.009 C 
ENDBRANCH  18  19
ENDBRANCH  14  18
ENDBRANCH   1  14
TORSDOF 8
ENDMDL
MODEL 6
REMARK VINA RESULT:      -5.8      4.254      6.143
REMARK  8 active torsions:
REMARK  status: ('A' for Active; 'I' for Inactive)
REMARK    1  A    between atoms: C_3  and  C_18 
REMARK    2  A    between atoms: N_4  and  C_16 
REMARK       I    between atoms: N_4  and  C_19 
REMARK    3  A    between atoms: C_5  and  C_19 
REMARK    4  A    between atoms: C_5  and  C_6 
REMARK    5  A    between atoms: C_5  and  N_20 
REMARK    6  A    between atoms: C_6  and  C_9 
REMARK    7  A    between atoms: C_13  and  C_16 
REMARK    8  A    between atoms: C_16  and  C_18 
ROOT
HETATM    1  N           1     -33.334  -4.044 -14.331  0.00  0.00    -0.345 N 
HETATM    2  H           1     -32.354  -3.815 -14.224  0.00  0.00     0.163 HD
HETATM    3  C           1     -33.818  -4.431 -15.551  0.00  0.00     0.249 C 
HETATM    4  O           1     -34.987  -4.705 -15.679  0.00  0.00    -0.271 OA
ENDROOT
BRANCH   3   5
HETATM    5  C           1     -32.890  -4.515 -16.739  0.00  0.00     0.275 C 
BRANCH   5   6
HETATM    6  C           1     -31.467  -4.763 -16.255  0.00  0.00     0.046 C 
BRANCH   6   7
HETATM    7  C           1     -30.588  -5.152 -17.436  0.00  0.00    -0.020 C 
HETATM    8  C           1     -29.370  -4.239 -17.485  0.00  0.00     0.009 C 
HETATM    9  C           1     -30.133  -6.596 -17.276  0.00  0.00     0.009 C 
ENDBRANCH   6   7
ENDBRANCH   5   6
BRANCH   5  10
HETATM   10  N           1     -32.940  -3.225 -17.502  0.00  0.00    -0.066 N 
HETATM   11  H           1     -31.997  -2.775 -17.488  0.00  0.00     0.275 HD
HETATM   12  H           1     -33.222  -3.415 -18.490  0.00  0.00     0.275 HD
HETATM   13  H           1     -33.637  -2.585 -17.058  0.00  0.00     0.275 HD
ENDBRANCH   5  10
ENDBRANCH   3   5
BRANCH   1  14
HETATM   14  C           1     -34.225  -3.962 -13.190  0.00  0.00     0.185 C 
BRANCH  14  15
HETATM   15  C           1     -34.504  -2.514 -12.874  0.00  0.00     0.196 C 
HETATM   16  O           1     -35.065  -1.785 -13.721  0.00  0.00    -0.646 OA
HETATM   17  O           1     -34.175  -2.042 -11.764  0.00  0.00    -0.646 OA
ENDBRANCH  14  15
BRANCH  14  18
HETATM   18  C           1     -33.573  -4.630 -11.987  0.00  0.00     0.040 C 
BRANCH  18  19
HETATM   19  C           1     -34.527  -5.661 -11.399  0.00  0.00    -0.020 C 
HETATM   20  C           1     -33.736  -6.677 -10.586  0.00  0.00     0.009 C 
HETATM   21  C           1     -35.535  -4.962 -10.495  0.00  0.00     0.009 C 
ENDBRANCH  18  19
ENDBRANCH  14  18
ENDBRANCH   1  14
TORSDOF 8
ENDMDL
MODEL 7
REMARK VINA RESULT:      -5.7     14.646     17.163
REMARK  8 active torsions:
REMARK  status: ('A' for Active; 'I' for Inactive)
REMARK    1  A    between atoms: C_3  and  C_18 
REMARK    2  A    between atoms: N_4  and  C_16 
REMARK       I    between atoms: N_4  and  C_19 
REMARK    3  A    between atoms: C_5  and  C_19 
REMARK    4  A    between atoms: C_5  and  C_6 
REMARK    5  A    between atoms: C_5  and  N_20 
REMARK    6  A    between atoms: C_6  and  C_9 
REMARK    7  A    between atoms: C_13  and  C_16 
REMARK    8  A    between atoms: C_16  and  C_18 
ROOT
HETATM    1  N           1     -21.346  -7.178  -5.562  0.00  0.00    -0.345 N 
HETATM    2  H           1     -21.861  -7.814  -6.157  0.00  0.00     0.163 HD
HETATM    3  C           1     -21.410  -5.829  -5.784  0.00  0.00     0.249 C 
HETATM    4  O           1     -20.795  -5.070  -5.074  0.00  0.00    -0.271 OA
ENDROOT
BRANCH   3   5
HETATM    5  C           1     -22.250  -5.289  -6.916  0.00  0.00     0.275 C 
BRANCH   5   6
HETATM    6  C           1     -21.542  -4.098  -7.550  0.00  0.00     0.046 C 
BRANCH   6   7
HETATM    7  C           1     -20.470  -4.595  -8.510  0.00  0.00    -0.020 C 
HETATM    8  C           1     -20.744  -4.048  -9.904  0.00  0.00     0.009 C 
HETATM    9  C           1     -19.105  -4.116  -8.037  0.00  0.00     0.009 C 
ENDBRANCH   6   7
ENDBRANCH   5   6
BRANCH   5  10
HETATM   10  N           1     -23.582  -4.854  -6.384  0.00  0.00    -0.066 N 
HETATM   11  H           1     -23.494  -3.903  -5.960  0.00  0.00     0.275 HD
HETATM   12  H           1     -24.278  -4.825  -7.163  0.00  0.00     0.275 HD
HETATM   13  H           1     -23.905  -5.531  -5.655  0.00  0.00     0.275 HD
ENDBRANCH   5  10
ENDBRANCH   3   5
BRANCH   1  14
HETATM   14  C           1     -20.538  -7.697  -4.476  0.00  0.00     0.185 C 
BRANCH  14  15
HETATM   15  C           1     -19.764  -8.900  -4.955  0.00  0.00     0.196 C 
HETATM   16  O           1     -18.619  -9.127  -4.505  0.00  0.00    -0.646 OA
HETATM   17  O           1     -20.267  -9.671  -5.801  0.00  0.00    -0.646 OA
ENDBRANCH  14  15
BRANCH  14  18
HETATM   18  C           1     -21.443  -8.101  -3.319  0.00  0.00     0.040 C 
BRANCH  18  19
HETATM   19  C           1     -21.121  -7.247  -2.100  0.00  0.00    -0.020 C 
HETATM   20  C           1     -22.207  -6.195  -1.919  0.00  0.00     0.009 C 
HETATM   21  C           1     -21.060  -8.133  -0.862  0.00  0.00     0.009 C 
ENDBRANCH  18  19
ENDBRANCH  14  18
ENDBRANCH   1  14
TORSDOF 8
ENDMDL
MODEL 8
REMARK VINA RESULT:      -5.7     15.570     18.335
REMARK  8 active torsions:
REMARK  status: ('A' for Active; 'I' for Inactive)
REMARK    1  A    between atoms: C_3  and  C_18 
REMARK    2  A    between atoms: N_4  and  C_16 
REMARK       I    between atoms: N_4  and  C_19 
REMARK    3  A    between atoms: C_5  and  C_19 
REMARK    4  A    between atoms: C_5  and  C_6 
REMARK    5  A    between atoms: C_5  and  N_20 
REMARK    6  A    between atoms: C_6  and  C_9 
REMARK    7  A    between atoms: C_13  and  C_16 
REMARK    8  A    between atoms: C_16  and  C_18 
ROOT
HETATM    1  N           1     -20.867  -8.041  -3.329  0.00  0.00    -0.345 N 
HETATM    2  H           1     -20.889  -8.737  -4.063  0.00  0.00     0.163 HD
HETATM    3  C           1     -21.187  -6.740  -3.610  0.00  0.00     0.249 C 
HETATM    4  O           1     -21.160  -5.908  -2.734  0.00  0.00    -0.271 OA
ENDROOT
BRANCH   3   5
HETATM    5  C           1     -21.572  -6.343  -5.014  0.00  0.00     0.275 C 
BRANCH   5   6
HETATM    6  C           1     -20.827  -5.073  -5.406  0.00  0.00     0.046 C 
BRANCH   6   7
HETATM    7  C           1     -20.747  -4.978  -6.923  0.00  0.00    -0.020 C 
HETATM    8  C           1     -21.591  -3.805  -7.404  0.00  0.00     0.009 C 
HETATM    9  C           1     -19.299  -4.765  -7.342  0.00  0.00     0.009 C 
ENDBRANCH   6   7
ENDBRANCH   5   6
BRANCH   5  10
HETATM   10  N           1     -23.050  -6.095  -5.074  0.00  0.00    -0.066 N 
HETATM   11  H           1     -23.307  -5.753  -6.027  0.00  0.00     0.275 HD
HETATM   12  H           1     -23.562  -6.983  -4.872  0.00  0.00     0.275 HD
HETATM   13  H           1     -23.310  -5.373  -4.363  0.00  0.00     0.275 HD
ENDBRANCH   5  10
ENDBRANCH   3   5
BRANCH   1  14
HETATM   14  C           1     -20.496  -8.421  -1.980  0.00  0.00     0.185 C 
BRANCH  14  15
HETATM   15  C           1     -19.486  -9.541  -2.034  0.00  0.00     0.196 C 
HETATM   16  O           1     -19.734 -10.634  -1.478  0.00  0.00    -0.646 OA
HETATM   17  O           1     -18.401  -9.376  -2.633  0.00  0.00    -0.646 OA
ENDBRANCH  14  15
BRANCH  14  18
HETATM   18  C           1     -21.733  -8.888  -1.225  0.00  0.00     0.040 C 
BRANCH  18  19
HETATM   19  C           1     -21.888  -8.072   0.051  0.00  0.00    -0.020 C 
HETATM   20  C           1     -23.357  -8.032   0.450  0.00  0.00     0.009 C 
HETATM   21  C           1     -21.075  -8.715   1.166  0.00  0.00     0.009 C 
ENDBRANCH  18  19
ENDBRANCH  14  18
ENDBRANCH   1  14
TORSDOF 8
ENDMDL
MODEL 9
REMARK VINA RESULT:      -5.4     17.208     19.124
REMARK  8 active torsions:
REMARK  status: ('A' for Active; 'I' for Inactive)
REMARK    1  A    between atoms: C_3  and  C_18 
REMARK    2  A    between atoms: N_4  and  C_16 
REMARK       I    between atoms: N_4  and  C_19 
REMARK    3  A    between atoms: C_5  and  C_19 
REMARK    4  A    between atoms: C_5  and  C_6 
REMARK    5  A    between atoms: C_5  and  N_20 
REMARK    6  A    between atoms: C_6  and  C_9 
REMARK    7  A    between atoms: C_13  and  C_16 
REMARK    8  A    between atoms: C_16  and  C_18 
ROOT
HETATM    1  N           1     -20.738  -9.578  -2.102  0.00  0.00    -0.345 N 
HETATM    2  H           1     -21.714  -9.461  -2.344  0.00  0.00     0.163 HD
HETATM    3  C           1     -19.766  -9.041  -2.902  0.00  0.00     0.249 C 
HETATM    4  O           1     -18.601  -9.181  -2.614  0.00  0.00    -0.271 OA
ENDROOT
BRANCH   3   5
HETATM    5  C           1     -20.148  -8.275  -4.145  0.00  0.00     0.275 C 
BRANCH   5   6
HETATM    6  C           1     -21.654  -8.041  -4.154  0.00  0.00     0.046 C 
BRANCH   6   7
HETATM    7  C           1     -21.937  -6.554  -3.991  0.00  0.00    -0.020 C 
HETATM    8  C           1     -21.842  -6.176  -2.519  0.00  0.00     0.009 C 
HETATM    9  C           1     -20.916  -5.753  -4.787  0.00  0.00     0.009 C 
ENDBRANCH   6   7
ENDBRANCH   5   6
BRANCH   5  10
HETATM   10  N           1     -19.759  -9.068  -5.358  0.00  0.00    -0.066 N 
HETATM   11  H           1     -18.718  -9.110  -5.427  0.00  0.00     0.275 HD
HETATM   12  H           1     -20.144 -10.037  -5.280  0.00  0.00     0.275 HD
HETATM   13  H           1     -20.147  -8.608  -6.214  0.00  0.00     0.275 HD
ENDBRANCH   5  10
ENDBRANCH   3   5
BRANCH   1  14
HETATM   14  C           1     -20.371 -10.315  -0.909  0.00  0.00     0.185 C 
BRANCH  14  15
HETATM   15  C           1     -20.472 -11.795  -1.181  0.00  0.00     0.196 C 
HETATM   16  O           1     -19.927 -12.612  -0.407  0.00  0.00    -0.646 OA
HETATM   17  O           1     -21.101 -12.205  -2.181  0.00  0.00    -0.646 OA
ENDBRANCH  14  15
BRANCH  14  18
HETATM   18  C           1     -21.313  -9.941   0.229  0.00  0.00     0.040 C 
BRANCH  18  19
HETATM   19  C           1     -22.618  -9.409  -0.346  0.00  0.00    -0.020 C 
HETATM   20  C           1     -23.703 -10.469  -0.203  0.00  0.00     0.009 C 
HETATM   21  C           1     -23.032  -8.154   0.411  0.00  0.00     0.009 C 
ENDBRANCH  18  19
ENDBRANCH  14  18
ENDBRANCH   1  14
TORSDOF 8
ENDMDL
