MODEL 1
REMARK VINA RESULT:      -7.7      0.000      0.000
REMARK  10 active torsions:
REMARK  status: ('A' for Active; 'I' for Inactive)
REMARK    1  A    between atoms: O_3  and  P_4 
REMARK    2  A    between atoms: P_4  and  O_5 
REMARK    3  A    between atoms: O_5  and  C_6 
REMARK    4  A    between atoms: N_8  and  C_16 
REMARK    5  A    between atoms: C_9  and  C_17 
REMARK    6  A    between atoms: C_9  and  C_26 
REMARK    7  A    between atoms: C_9  and  N_28 
REMARK    8  A    between atoms: C_16  and  C_23 
REMARK    9  A    between atoms: C_16  and  C_24 
REMARK       I    between atoms: C_23  and  N_28 
REMARK   10  A    between atoms: C_25  and  C_26 
ROOT
HETATM    1  C           1     -21.082  -6.495  -5.007  0.00  0.00     0.189 C 
ENDROOT
BRANCH   1   2
HETATM    2  C           1     -20.585  -7.760  -5.660  0.00  0.00     0.197 C 
HETATM    3  O           1     -21.382  -8.691  -5.907  0.00  0.00    -0.646 OA
HETATM    4  O           1     -19.376  -7.879  -5.955  0.00  0.00    -0.646 OA
ENDBRANCH   1   2
BRANCH   1   5
HETATM    5  C           1     -20.281  -5.307  -5.523  0.00  0.00     0.074 C 
BRANCH   5   6
HETATM    6  C           1     -20.836  -4.862  -6.840  0.00  0.00    -0.056 A 
HETATM    7  C           1     -20.036  -4.902  -7.983  0.00  0.00     0.010 A 
HETATM    8  C           1     -20.552  -4.486  -9.210  0.00  0.00     0.038 A 
HETATM    9  C           1     -21.868  -4.033  -9.295  0.00  0.00     0.081 A 
HETATM   10  C           1     -22.668  -3.993  -8.153  0.00  0.00     0.038 A 
HETATM   11  C           1     -22.152  -4.409  -6.926  0.00  0.00     0.010 A 
BRANCH   9  12
HETATM   12  O           1     -22.371  -3.630 -10.487  0.00  0.00    -0.247 OA
BRANCH  12  13
HETATM   13  P           1     -23.731  -4.325 -11.012  0.00  0.00     0.411 P 
HETATM   14  O           1     -24.861  -3.383 -10.853  0.00  0.00    -0.624 OA
HETATM   15  O           1     -23.994  -5.549 -10.222  0.00  0.00    -0.624 OA
BRANCH  13  16
HETATM   16  O           1     -23.570  -4.714 -12.571  0.00  0.00    -0.300 OA
HETATM   17  H           1     -23.312  -3.915 -12.996  0.00  0.00     0.223 HD
ENDBRANCH  13  16
ENDBRANCH  12  13
ENDBRANCH   9  12
ENDBRANCH   5   6
ENDBRANCH   1   5
BRANCH   1  18
HETATM   18  N           1     -20.921  -6.598  -3.570  0.00  0.00    -0.344 N 
HETATM   19  H           1     -20.912  -5.762  -3.001  0.00  0.00     0.163 HD
HETATM   20  C           1     -20.783  -7.827  -2.982  0.00  0.00     0.249 C 
HETATM   21  O           1     -19.683  -8.305  -2.835  0.00  0.00    -0.271 OA
BRANCH  20  22
HETATM   22  C           1     -22.003  -8.585  -2.520  0.00  0.00     0.278 C 
BRANCH  22  23
HETATM   23  N           1     -21.993  -9.960  -3.118  0.00  0.00    -0.066 N 
HETATM   24  H           1     -22.894 -10.442  -2.897  0.00  0.00     0.275 HD
HETATM   25  H           1     -21.880  -9.889  -4.154  0.00  0.00     0.275 HD
HETATM   26  H           1     -21.198 -10.508  -2.718  0.00  0.00     0.275 HD
ENDBRANCH  22  23
BRANCH  22  27
HETATM   27  C           1     -21.989  -8.692  -1.001  0.00  0.00     0.017 C 
HETATM   28  C           1     -22.925  -9.812  -0.564  0.00  0.00     0.012 C 
HETATM   29  C           1     -22.457  -7.375  -0.395  0.00  0.00     0.012 C 
ENDBRANCH  22  27
ENDBRANCH  20  22
ENDBRANCH   1  18
TORSDOF 10
ENDMDL
MODEL 2
REMARK VINA RESULT:      -7.4     13.707     16.996
REMARK  10 active torsions:
REMARK  status: ('A' for Active; 'I' for Inactive)
REMARK    1  A    between atoms: O_3  and  P_4 
REMARK    2  A    between atoms: P_4  and  O_5 
REMARK    3  A    between atoms: O_5  and  C_6 
REMARK    4  A    between atoms: N_8  and  C_16 
REMARK    5  A    between atoms: C_9  and  C_17 
REMARK    6  A    between atoms: C_9  and  C_26 
REMARK    7  A    between atoms: C_9  and  N_28 
REMARK    8  A    between atoms: C_16  and  C_23 
REMARK    9  A    between atoms: C_16  and  C_24 
REMARK       I    between atoms: C_23  and  N_28 
REMARK   10  A    between atoms: C_25  and  C_26 
ROOT
HETATM    1  C           1     -36.557  -0.793 -10.888  0.00  0.00     0.189 C 
ENDROOT
BRANCH   1   2
HETATM    2  C           1     -36.914  -0.263  -9.522  0.00  0.00     0.197 C 
HETATM    3  O           1     -36.049  -0.224  -8.621  0.00  0.00    -0.646 OA
HETATM    4  O           1     -38.075   0.139  -9.291  0.00  0.00    -0.646 OA
ENDBRANCH   1   2
BRANCH   1   5
HETATM    5  C           1     -35.042  -0.841 -11.035  0.00  0.00     0.074 C 
BRANCH   5   6
HETATM    6  C           1     -34.585  -2.267 -11.054  0.00  0.00    -0.056 A 
HETATM    7  C           1     -35.511  -3.297 -10.887  0.00  0.00     0.010 A 
HETATM    8  C           1     -35.086  -4.625 -10.904  0.00  0.00     0.038 A 
HETATM    9  C           1     -33.736  -4.924 -11.089  0.00  0.00     0.081 A 
HETATM   10  C           1     -32.811  -3.893 -11.255  0.00  0.00     0.038 A 
HETATM   11  C           1     -33.235  -2.565 -11.239  0.00  0.00     0.010 A 
BRANCH   9  12
HETATM   12  O           1     -33.323  -6.214 -11.106  0.00  0.00    -0.247 OA
BRANCH  12  13
HETATM   13  P           1     -34.318  -7.339 -10.511  0.00  0.00     0.411 P 
HETATM   14  O           1     -35.070  -6.776  -9.367  0.00  0.00    -0.624 OA
HETATM   15  O           1     -33.528  -8.505 -10.058  0.00  0.00    -0.624 OA
BRANCH  13  16
HETATM   16  O           1     -35.354  -7.802 -11.660  0.00  0.00    -0.300 OA
HETATM   17  H           1     -34.954  -7.538 -12.470  0.00  0.00     0.223 HD
ENDBRANCH  13  16
ENDBRANCH  12  13
ENDBRANCH   9  12
ENDBRANCH   5   6
ENDBRANCH   1   5
BRANCH   1  18
HETATM   18  N           1     -37.113   0.077 -11.905  0.00  0.00    -0.344 N 
HETATM   19  H           1     -37.506   0.973 -11.645  0.00  0.00     0.163 HD
HETATM   20  C           1     -37.106  -0.311 -13.219  0.00  0.00     0.249 C 
HETATM   21  O           1     -38.040  -0.931 -13.669  0.00  0.00    -0.271 OA
BRANCH  20  22
HETATM   22  C           1     -35.933   0.035 -14.102  0.00  0.00     0.278 C 
BRANCH  22  23
HETATM   23  N           1     -35.073  -1.179 -14.287  0.00  0.00    -0.066 N 
HETATM   24  H           1     -34.333  -0.977 -14.998  0.00  0.00     0.275 HD
HETATM   25  H           1     -34.623  -1.431 -13.378  0.00  0.00     0.275 HD
HETATM   26  H           1     -35.663  -1.977 -14.616  0.00  0.00     0.275 HD
ENDBRANCH  22  23
BRANCH  22  27
HETATM   27  C           1     -36.439   0.510 -15.457  0.00  0.00     0.017 C 
HETATM   28  C           1     -36.042  -0.498 -16.528  0.00  0.00     0.012 C 
HETATM   29  C           1     -35.823   1.864 -15.783  0.00  0.00     0.012 C 
ENDBRANCH  22  27
ENDBRANCH  20  22
ENDBRANCH   1  18
TORSDOF 10
ENDMDL
MODEL 3
REMARK VINA RESULT:      -6.9      2.134      3.117
REMARK  10 active torsions:
REMARK  status: ('A' for Active; 'I' for Inactive)
REMARK    1  A    between atoms: O_3  and  P_4 
REMARK    2  A    between atoms: P_4  and  O_5 
REMARK    3  A    between atoms: O_5  and  C_6 
REMARK    4  A    between atoms: N_8  and  C_16 
REMARK    5  A    between atoms: C_9  and  C_17 
REMARK    6  A    between atoms: C_9  and  C_26 
REMARK    7  A    between atoms: C_9  and  N_28 
REMARK    8  A    between atoms: C_16  and  C_23 
REMARK    9  A    between atoms: C_16  and  C_24 
REMARK       I    between atoms: C_23  and  N_28 
REMARK   10  A    between atoms: C_25  and  C_26 
ROOT
HETATM    1  C           1     -21.114  -9.615  -4.323  0.00  0.00     0.189 C 
ENDROOT
BRANCH   1   2
HETATM    2  C           1     -21.115 -10.682  -5.389  0.00  0.00     0.197 C 
HETATM    3  O           1     -20.262 -10.655  -6.302  0.00  0.00    -0.646 OA
HETATM    4  O           1     -21.970 -11.594  -5.360  0.00  0.00    -0.646 OA
ENDBRANCH   1   2
BRANCH   1   5
HETATM    5  C           1     -19.949  -8.662  -4.559  0.00  0.00     0.074 C 
BRANCH   5   6
HETATM    6  C           1     -20.444  -7.425  -5.242  0.00  0.00    -0.056 A 
HETATM    7  C           1     -19.592  -6.702  -6.078  0.00  0.00     0.010 A 
HETATM    8  C           1     -20.052  -5.550  -6.714  0.00  0.00     0.038 A 
HETATM    9  C           1     -21.364  -5.120  -6.516  0.00  0.00     0.081 A 
HETATM   10  C           1     -22.216  -5.844  -5.680  0.00  0.00     0.038 A 
HETATM   11  C           1     -21.756  -6.996  -5.045  0.00  0.00     0.010 A 
BRANCH   9  12
HETATM   12  O           1     -21.813  -4.001  -7.134  0.00  0.00    -0.247 OA
BRANCH  12  13
HETATM   13  P           1     -22.636  -4.173  -8.513  0.00  0.00     0.411 P 
HETATM   14  O           1     -22.372  -5.514  -9.081  0.00  0.00    -0.624 OA
HETATM   15  O           1     -22.206  -3.136  -9.476  0.00  0.00    -0.624 OA
BRANCH  13  16
HETATM   16  O           1     -24.216  -4.015  -8.219  0.00  0.00    -0.300 OA
HETATM   17  H           1     -24.419  -4.697  -7.603  0.00  0.00     0.223 HD
ENDBRANCH  13  16
ENDBRANCH  12  13
ENDBRANCH   9  12
ENDBRANCH   5   6
ENDBRANCH   1   5
BRANCH   1  18
HETATM   18  N           1     -20.974 -10.234  -3.020  0.00  0.00    -0.344 N 
HETATM   19  H           1     -20.261 -10.936  -2.868  0.00  0.00     0.163 HD
HETATM   20  C           1     -21.805  -9.870  -1.995  0.00  0.00     0.249 C 
HETATM   21  O           1     -22.848 -10.456  -1.826  0.00  0.00    -0.271 OA
BRANCH  20  22
HETATM   22  C           1     -21.421  -8.735  -1.077  0.00  0.00     0.278 C 
BRANCH  22  23
HETATM   23  N           1     -21.921  -7.441  -1.646  0.00  0.00    -0.066 N 
HETATM   24  H           1     -22.021  -6.739  -0.878  0.00  0.00     0.275 HD
HETATM   25  H           1     -21.243  -7.087  -2.357  0.00  0.00     0.275 HD
HETATM   26  H           1     -22.851  -7.597  -2.099  0.00  0.00     0.275 HD
ENDBRANCH  22  23
BRANCH  22  27
HETATM   27  C           1     -22.040  -8.960   0.296  0.00  0.00     0.017 C 
HETATM   28  C           1     -23.168  -7.960   0.512  0.00  0.00     0.012 C 
HETATM   29  C           1     -20.977  -8.765   1.370  0.00  0.00     0.012 C 
ENDBRANCH  22  27
ENDBRANCH  20  22
ENDBRANCH   1  18
TORSDOF 10
ENDMDL
MODEL 4
REMARK VINA RESULT:      -6.9      1.564      2.284
REMARK  10 active torsions:
REMARK  status: ('A' for Active; 'I' for Inactive)
REMARK    1  A    between atoms: O_3  and  P_4 
REMARK    2  A    between atoms: P_4  and  O_5 
REMARK    3  A    between atoms: O_5  and  C_6 
REMARK    4  A    between atoms: N_8  and  C_16 
REMARK    5  A    between atoms: C_9  and  C_17 
REMARK    6  A    between atoms: C_9  and  C_26 
REMARK    7  A    between atoms: C_9  and  N_28 
REMARK    8  A    between atoms: C_16  and  C_23 
REMARK    9  A    between atoms: C_16  and  C_24 
REMARK       I    between atoms: C_23  and  N_28 
REMARK   10  A    between atoms: C_25  and  C_26 
ROOT
HETATM    1  C           1     -21.276  -8.528  -5.259  0.00  0.00     0.189 C 
ENDROOT
BRANCH   1   2
HETATM    2  C           1     -20.603  -9.870  -5.402  0.00  0.00     0.197 C 
HETATM    3  O           1     -21.258 -10.920  -5.220  0.00  0.00    -0.646 OA
HETATM    4  O           1     -19.392  -9.934  -5.702  0.00  0.00    -0.646 OA
ENDBRANCH   1   2
BRANCH   1   5
HETATM    5  C           1     -20.230  -7.423  -5.336  0.00  0.00     0.074 C 
BRANCH   5   6
HETATM    6  C           1     -20.722  -6.330  -6.232  0.00  0.00    -0.056 A 
HETATM    7  C           1     -21.945  -5.710  -5.968  0.00  0.00     0.010 A 
HETATM    8  C           1     -22.404  -4.692  -6.803  0.00  0.00     0.038 A 
HETATM    9  C           1     -21.641  -4.292  -7.900  0.00  0.00     0.081 A 
HETATM   10  C           1     -20.419  -4.911  -8.163  0.00  0.00     0.038 A 
HETATM   11  C           1     -19.960  -5.929  -7.329  0.00  0.00     0.010 A 
BRANCH   9  12
HETATM   12  O           1     -22.086  -3.302  -8.712  0.00  0.00    -0.247 OA
BRANCH  12  13
HETATM   13  P           1     -23.238  -3.660  -9.786  0.00  0.00     0.411 P 
HETATM   14  O           1     -23.386  -5.130  -9.878  0.00  0.00    -0.624 OA
HETATM   15  O           1     -22.861  -3.118 -11.110  0.00  0.00    -0.624 OA
BRANCH  13  16
HETATM   16  O           1     -24.637  -3.007  -9.314  0.00  0.00    -0.300 OA
HETATM   17  H           1     -24.666  -3.140  -8.382  0.00  0.00     0.223 HD
ENDBRANCH  13  16
ENDBRANCH  12  13
ENDBRANCH   9  12
ENDBRANCH   5   6
ENDBRANCH   1   5
BRANCH   1  18
HETATM   18  N           1     -21.954  -8.462  -3.979  0.00  0.00    -0.344 N 
HETATM   19  H           1     -22.963  -8.541  -3.936  0.00  0.00     0.163 HD
HETATM   20  C           1     -21.232  -8.294  -2.828  0.00  0.00     0.249 C 
HETATM   21  O           1     -20.998  -7.182  -2.419  0.00  0.00    -0.271 OA
BRANCH  20  22
HETATM   22  C           1     -20.727  -9.498  -2.071  0.00  0.00     0.278 C 
BRANCH  22  23
HETATM   23  N           1     -19.229  -9.533  -2.131  0.00  0.00    -0.066 N 
HETATM   24  H           1     -18.920  -9.519  -3.129  0.00  0.00     0.275 HD
HETATM   25  H           1     -18.840  -8.700  -1.634  0.00  0.00     0.275 HD
HETATM   26  H           1     -18.882 -10.406  -1.671  0.00  0.00     0.275 HD
ENDBRANCH  22  23
BRANCH  22  27
HETATM   27  C           1     -21.174  -9.410  -0.618  0.00  0.00     0.017 C 
HETATM   28  C           1     -20.553 -10.553   0.174  0.00  0.00     0.012 C 
HETATM   29  C           1     -22.693  -9.511  -0.548  0.00  0.00     0.012 C 
ENDBRANCH  22  27
ENDBRANCH  20  22
ENDBRANCH   1  18
TORSDOF 10
ENDMDL
MODEL 5
REMARK VINA RESULT:      -6.7     12.210     14.481
REMARK  10 active torsions:
REMARK  status: ('A' for Active; 'I' for Inactive)
REMARK    1  A    between atoms: O_3  and  P_4 
REMARK    2  A    between atoms: P_4  and  O_5 
REMARK    3  A    between atoms: O_5  and  C_6 
REMARK    4  A    between atoms: N_8  and  C_16 
REMARK    5  A    between atoms: C_9  and  C_17 
REMARK    6  A    between atoms: C_9  and  C_26 
REMARK    7  A    between atoms: C_9  and  N_28 
REMARK    8  A    between atoms: C_16  and  C_23 
REMARK    9  A    between atoms: C_16  and  C_24 
REMARK       I    between atoms: C_23  and  N_28 
REMARK   10  A    between atoms: C_25  and  C_26 
ROOT
HETATM    1  C           1     -27.392  -6.011 -17.381  0.00  0.00     0.189 C 
ENDROOT
BRANCH   1   2
HETATM    2  C           1     -27.956  -5.885 -15.988  0.00  0.00     0.197 C 
HETATM    3  O           1     -28.033  -4.761 -15.445  0.00  0.00    -0.646 OA
HETATM    4  O           1     -28.347  -6.902 -15.377  0.00  0.00    -0.646 OA
ENDBRANCH   1   2
BRANCH   1   5
HETATM    5  C           1     -28.514  -6.345 -18.356  0.00  0.00     0.074 C 
BRANCH   5   6
HETATM    6  C           1     -29.754  -5.603 -17.965  0.00  0.00    -0.056 A 
HETATM    7  C           1     -30.880  -6.306 -17.534  0.00  0.00     0.010 A 
HETATM    8  C           1     -32.035  -5.616 -17.171  0.00  0.00     0.038 A 
HETATM    9  C           1     -32.066  -4.223 -17.237  0.00  0.00     0.081 A 
HETATM   10  C           1     -30.941  -3.520 -17.667  0.00  0.00     0.038 A 
HETATM   11  C           1     -29.785  -4.210 -18.031  0.00  0.00     0.010 A 
BRANCH   9  12
HETATM   12  O           1     -33.189  -3.551 -16.883  0.00  0.00    -0.247 OA
BRANCH  12  13
HETATM   13  P           1     -33.920  -3.969 -15.505  0.00  0.00     0.411 P 
HETATM   14  O           1     -34.743  -2.838 -15.021  0.00  0.00    -0.624 OA
HETATM   15  O           1     -32.900  -4.307 -14.488  0.00  0.00    -0.624 OA
BRANCH  13  16
HETATM   16  O           1     -34.868  -5.251 -15.765  0.00  0.00    -0.300 OA
HETATM   17  H           1     -34.614  -5.878 -15.111  0.00  0.00     0.223 HD
ENDBRANCH  13  16
ENDBRANCH  12  13
ENDBRANCH   9  12
ENDBRANCH   5   6
ENDBRANCH   1   5
BRANCH   1  18
HETATM   18  N           1     -26.400  -7.069 -17.406  0.00  0.00    -0.344 N 
HETATM   19  H           1     -26.694  -8.036 -17.449  0.00  0.00     0.163 HD
HETATM   20  C           1     -25.067  -6.759 -17.372  0.00  0.00     0.249 C 
HETATM   21  O           1     -24.497  -6.664 -16.312  0.00  0.00    -0.271 OA
BRANCH  20  22
HETATM   22  C           1     -24.310  -6.536 -18.659  0.00  0.00     0.278 C 
BRANCH  22  23
HETATM   23  N           1     -22.923  -7.089 -18.524  0.00  0.00    -0.066 N 
HETATM   24  H           1     -22.821  -7.553 -17.593  0.00  0.00     0.275 HD
HETATM   25  H           1     -22.751  -7.788 -19.283  0.00  0.00     0.275 HD
HETATM   26  H           1     -22.229  -6.312 -18.604  0.00  0.00     0.275 HD
ENDBRANCH  22  23
BRANCH  22  27
HETATM   27  C           1     -25.029  -7.242 -19.801  0.00  0.00     0.017 C 
HETATM   28  C           1     -24.031  -8.082 -20.586  0.00  0.00     0.012 C 
HETATM   29  C           1     -25.656  -6.205 -20.724  0.00  0.00     0.012 C 
ENDBRANCH  22  27
ENDBRANCH  20  22
ENDBRANCH   1  18
TORSDOF 10
ENDMDL
MODEL 6
REMARK VINA RESULT:      -6.7      3.234      5.199
REMARK  10 active torsions:
REMARK  status: ('A' for Active; 'I' for Inactive)
REMARK    1  A    between atoms: O_3  and  P_4 
REMARK    2  A    between atoms: P_4  and  O_5 
REMARK    3  A    between atoms: O_5  and  C_6 
REMARK    4  A    between atoms: N_8  and  C_16 
REMARK    5  A    between atoms: C_9  and  C_17 
REMARK    6  A    between atoms: C_9  and  C_26 
REMARK    7  A    between atoms: C_9  and  N_28 
REMARK    8  A    between atoms: C_16  and  C_23 
REMARK    9  A    between atoms: C_16  and  C_24 
REMARK       I    between atoms: C_23  and  N_28 
REMARK   10  A    between atoms: C_25  and  C_26 
ROOT
HETATM    1  C           1     -20.734  -9.790  -1.636  0.00  0.00     0.189 C 
ENDROOT
BRANCH   1   2
HETATM    2  C           1     -21.332  -9.601  -0.264  0.00  0.00     0.197 C 
HETATM    3  O           1     -21.984 -10.527   0.266  0.00  0.00    -0.646 OA
HETATM    4  O           1     -21.175  -8.520   0.344  0.00  0.00    -0.646 OA
ENDBRANCH   1   2
BRANCH   1   5
HETATM    5  C           1     -21.817  -9.612  -2.692  0.00  0.00     0.074 C 
BRANCH   5   6
HETATM    6  C           1     -21.513  -8.404  -3.522  0.00  0.00    -0.056 A 
HETATM    7  C           1     -21.257  -8.542  -4.886  0.00  0.00     0.010 A 
HETATM    8  C           1     -20.973  -7.418  -5.660  0.00  0.00     0.038 A 
HETATM    9  C           1     -20.946  -6.154  -5.070  0.00  0.00     0.081 A 
HETATM   10  C           1     -21.202  -6.015  -3.706  0.00  0.00     0.038 A 
HETATM   11  C           1     -21.486  -7.140  -2.932  0.00  0.00     0.010 A 
BRANCH   9  12
HETATM   12  O           1     -20.671  -5.060  -5.821  0.00  0.00    -0.247 OA
BRANCH  12  13
HETATM   13  P           1     -21.761  -4.600  -6.921  0.00  0.00     0.411 P 
HETATM   14  O           1     -23.121  -4.913  -6.428  0.00  0.00    -0.624 OA
HETATM   15  O           1     -21.517  -5.323  -8.188  0.00  0.00    -0.624 OA
BRANCH  13  16
HETATM   16  O           1     -21.633  -3.010  -7.173  0.00  0.00    -0.300 OA
HETATM   17  H           1     -21.583  -2.630  -6.313  0.00  0.00     0.223 HD
ENDBRANCH  13  16
ENDBRANCH  12  13
ENDBRANCH   9  12
ENDBRANCH   5   6
ENDBRANCH   1   5
BRANCH   1  18
HETATM   18  N           1     -20.174 -11.123  -1.739  0.00  0.00    -0.344 N 
HETATM   19  H           1     -20.779 -11.913  -1.926  0.00  0.00     0.163 HD
HETATM   20  C           1     -18.827 -11.315  -1.584  0.00  0.00     0.249 C 
HETATM   21  O           1     -18.372 -11.537  -0.487  0.00  0.00    -0.271 OA
BRANCH  20  22
HETATM   22  C           1     -17.912 -11.248  -2.782  0.00  0.00     0.278 C 
BRANCH  22  23
HETATM   23  N           1     -18.614 -11.815  -3.979  0.00  0.00    -0.066 N 
HETATM   24  H           1     -19.170 -12.653  -3.693  0.00  0.00     0.275 HD
HETATM   25  H           1     -19.253 -11.094  -4.383  0.00  0.00     0.275 HD
HETATM   26  H           1     -17.907 -12.095  -4.697  0.00  0.00     0.275 HD
ENDBRANCH  22  23
BRANCH  22  27
HETATM   27  C           1     -17.536  -9.798  -3.054  0.00  0.00     0.017 C 
HETATM   28  C           1     -17.867  -9.451  -4.499  0.00  0.00     0.012 C 
HETATM   29  C           1     -16.043  -9.607  -2.816  0.00  0.00     0.012 C 
ENDBRANCH  22  27
ENDBRANCH  20  22
ENDBRANCH   1  18
TORSDOF 10
ENDMDL
MODEL 7
REMARK VINA RESULT:      -6.7      5.371      7.316
REMARK  10 active torsions:
REMARK  status: ('A' for Active; 'I' for Inactive)
REMARK    1  A    between atoms: O_3  and  P_4 
REMARK    2  A    between atoms: P_4  and  O_5 
REMARK    3  A    between atoms: O_5  and  C_6 
REMARK    4  A    between atoms: N_8  and  C_16 
REMARK    5  A    between atoms: C_9  and  C_17 
REMARK    6  A    between atoms: C_9  and  C_26 
REMARK    7  A    between atoms: C_9  and  N_28 
REMARK    8  A    between atoms: C_16  and  C_23 
REMARK    9  A    between atoms: C_16  and  C_24 
REMARK       I    between atoms: C_23  and  N_28 
REMARK   10  A    between atoms: C_25  and  C_26 
ROOT
HETATM    1  C           1     -21.284  -7.713  -2.077  0.00  0.00     0.189 C 
ENDROOT
BRANCH   1   2
HETATM    2  C           1     -21.780  -6.367  -2.543  0.00  0.00     0.197 C 
HETATM    3  O           1     -21.529  -5.976  -3.703  0.00  0.00    -0.646 OA
HETATM    4  O           1     -22.442  -5.642  -1.769  0.00  0.00    -0.646 OA
ENDBRANCH   1   2
BRANCH   1   5
HETATM    5  C           1     -21.295  -8.691  -3.245  0.00  0.00     0.074 C 
BRANCH   5   6
HETATM    6  C           1     -19.888  -9.040  -3.618  0.00  0.00    -0.056 A 
HETATM    7  C           1     -18.927  -9.220  -2.622  0.00  0.00     0.010 A 
HETATM    8  C           1     -17.616  -9.544  -2.969  0.00  0.00     0.038 A 
HETATM    9  C           1     -17.265  -9.690  -4.311  0.00  0.00     0.081 A 
HETATM   10  C           1     -18.226  -9.510  -5.307  0.00  0.00     0.038 A 
HETATM   11  C           1     -19.537  -9.186  -4.960  0.00  0.00     0.010 A 
BRANCH   9  12
HETATM   12  O           1     -15.991 -10.006  -4.649  0.00  0.00    -0.247 OA
BRANCH  12  13
HETATM   13  P           1     -15.679 -11.527  -5.095  0.00  0.00     0.411 P 
HETATM   14  O           1     -14.339 -11.919  -4.607  0.00  0.00    -0.624 OA
HETATM   15  O           1     -15.715 -11.624  -6.571  0.00  0.00    -0.624 OA
BRANCH  13  16
HETATM   16  O           1     -16.792 -12.512  -4.462  0.00  0.00    -0.300 OA
HETATM   17  H           1     -16.588 -12.553  -3.544  0.00  0.00     0.223 HD
ENDBRANCH  13  16
ENDBRANCH  12  13
ENDBRANCH   9  12
ENDBRANCH   5   6
ENDBRANCH   1   5
BRANCH   1  18
HETATM   18  N           1     -22.150  -8.209  -1.025  0.00  0.00    -0.344 N 
HETATM   19  H           1     -23.117  -7.915  -0.986  0.00  0.00     0.163 HD
HETATM   20  C           1     -21.659  -9.075  -0.085  0.00  0.00     0.249 C 
HETATM   21  O           1     -21.172  -8.647   0.934  0.00  0.00    -0.271 OA
BRANCH  20  22
HETATM   22  C           1     -21.727 -10.564  -0.322  0.00  0.00     0.278 C 
BRANCH  22  23
HETATM   23  N           1     -21.090 -11.282   0.830  0.00  0.00    -0.066 N 
HETATM   24  H           1     -21.315 -10.783   1.720  0.00  0.00     0.275 HD
HETATM   25  H           1     -21.456 -12.260   0.877  0.00  0.00     0.275 HD
HETATM   26  H           1     -20.053 -11.305   0.696  0.00  0.00     0.275 HD
ENDBRANCH  22  23
BRANCH  22  27
HETATM   27  C           1     -23.182 -10.994  -0.446  0.00  0.00     0.017 C 
HETATM   28  C           1     -23.438 -12.185   0.468  0.00  0.00     0.012 C 
HETATM   29  C           1     -23.473 -11.390  -1.888  0.00  0.00     0.012 C 
ENDBRANCH  22  27
ENDBRANCH  20  22
ENDBRANCH   1  18
TORSDOF 10
ENDMDL
MODEL 8
REMARK VINA RESULT:      -6.7      4.612      7.480
REMARK  10 active torsions:
REMARK  status: ('A' for Active; 'I' for Inactive)
REMARK    1  A    between atoms: O_3  and  P_4 
REMARK    2  A    between atoms: P_4  and  O_5 
REMARK    3  A    between atoms: O_5  and  C_6 
REMARK    4  A    between atoms: N_8  and  C_16 
REMARK    5  A    between atoms: C_9  and  C_17 
REMARK    6  A    between atoms: C_9  and  C_26 
REMARK    7  A    between atoms: C_9  and  N_28 
REMARK    8  A    between atoms: C_16  and  C_23 
REMARK    9  A    between atoms: C_16  and  C_24 
REMARK       I    between atoms: C_23  and  N_28 
REMARK   10  A    between atoms: C_25  and  C_26 
ROOT
HETATM    1  C           1     -21.037  -7.380  -3.704  0.00  0.00     0.189 C 
ENDROOT
BRANCH   1   2
HETATM    2  C           1     -21.437  -6.201  -4.555  0.00  0.00     0.197 C 
HETATM    3  O           1     -22.628  -6.064  -4.912  0.00  0.00    -0.646 OA
HETATM    4  O           1     -20.580  -5.362  -4.903  0.00  0.00    -0.646 OA
ENDBRANCH   1   2
BRANCH   1   5
HETATM    5  C           1     -20.775  -8.587  -4.596  0.00  0.00     0.074 C 
BRANCH   5   6
HETATM    6  C           1     -19.373  -9.068  -4.388  0.00  0.00    -0.056 A 
HETATM    7  C           1     -18.567  -9.365  -5.488  0.00  0.00     0.010 A 
HETATM    8  C           1     -17.261  -9.814  -5.294  0.00  0.00     0.038 A 
HETATM    9  C           1     -16.760  -9.966  -4.002  0.00  0.00     0.081 A 
HETATM   10  C           1     -17.565  -9.668  -2.902  0.00  0.00     0.038 A 
HETATM   11  C           1     -18.871  -9.219  -3.095  0.00  0.00     0.010 A 
BRANCH   9  12
HETATM   12  O           1     -15.490 -10.401  -3.813  0.00  0.00    -0.247 OA
BRANCH  12  13
HETATM   13  P           1     -15.153 -11.938  -4.178  0.00  0.00     0.411 P 
HETATM   14  O           1     -14.110 -12.446  -3.259  0.00  0.00    -0.624 OA
HETATM   15  O           1     -14.663 -12.016  -5.572  0.00  0.00    -0.624 OA
BRANCH  13  16
HETATM   16  O           1     -16.488 -12.833  -4.025  0.00  0.00    -0.300 OA
HETATM   17  H           1     -16.629 -12.904  -3.097  0.00  0.00     0.223 HD
ENDBRANCH  13  16
ENDBRANCH  12  13
ENDBRANCH   9  12
ENDBRANCH   5   6
ENDBRANCH   1   5
BRANCH   1  18
HETATM   18  N           1     -22.107  -7.691  -2.775  0.00  0.00    -0.344 N 
HETATM   19  H           1     -22.930  -8.182  -3.099  0.00  0.00     0.163 HD
HETATM   20  C           1     -22.003  -7.320  -1.461  0.00  0.00     0.249 C 
HETATM   21  O           1     -22.415  -6.242  -1.104  0.00  0.00    -0.271 OA
BRANCH  20  22
HETATM   22  C           1     -21.373  -8.257  -0.460  0.00  0.00     0.278 C 
BRANCH  22  23
HETATM   23  N           1     -21.845  -7.904   0.919  0.00  0.00    -0.066 N 
HETATM   24  H           1     -22.599  -8.567   1.210  0.00  0.00     0.275 HD
HETATM   25  H           1     -21.045  -7.970   1.589  0.00  0.00     0.275 HD
HETATM   26  H           1     -22.219  -6.928   0.920  0.00  0.00     0.275 HD
ENDBRANCH  22  23
BRANCH  22  27
HETATM   27  C           1     -21.774  -9.690  -0.782  0.00  0.00     0.017 C 
HETATM   28  C           1     -23.158  -9.969  -0.212  0.00  0.00     0.012 C 
HETATM   29  C           1     -20.767 -10.650  -0.162  0.00  0.00     0.012 C 
ENDBRANCH  22  27
ENDBRANCH  20  22
ENDBRANCH   1  18
TORSDOF 10
ENDMDL
MODEL 9
REMARK VINA RESULT:      -6.6      2.569      3.755
REMARK  10 active torsions:
REMARK  status: ('A' for Active; 'I' for Inactive)
REMARK    1  A    between atoms: O_3  and  P_4 
REMARK    2  A    between atoms: P_4  and  O_5 
REMARK    3  A    between atoms: O_5  and  C_6 
REMARK    4  A    between atoms: N_8  and  C_16 
REMARK    5  A    between atoms: C_9  and  C_17 
REMARK    6  A    between atoms: C_9  and  C_26 
REMARK    7  A    between atoms: C_9  and  N_28 
REMARK    8  A    between atoms: C_16  and  C_23 
REMARK    9  A    between atoms: C_16  and  C_24 
REMARK       I    between atoms: C_23  and  N_28 
REMARK   10  A    between atoms: C_25  and  C_26 
ROOT
HETATM    1  C           1     -20.896  -7.441  -3.686  0.00  0.00     0.189 C 
ENDROOT
BRANCH   1   2
HETATM    2  C           1     -21.492  -6.866  -2.425  0.00  0.00     0.197 C 
HETATM    3  O           1     -22.264  -5.885  -2.490  0.00  0.00    -0.646 OA
HETATM    4  O           1     -21.216  -7.371  -1.316  0.00  0.00    -0.646 OA
ENDBRANCH   1   2
BRANCH   1   5
HETATM    5  C           1     -21.940  -7.428  -4.794  0.00  0.00     0.074 C 
BRANCH   5   6
HETATM    6  C           1     -21.542  -6.439  -5.845  0.00  0.00    -0.056 A 
HETATM    7  C           1     -20.257  -6.477  -6.387  0.00  0.00     0.010 A 
HETATM    8  C           1     -19.886  -5.555  -7.365  0.00  0.00     0.038 A 
HETATM    9  C           1     -20.799  -4.596  -7.803  0.00  0.00     0.081 A 
HETATM   10  C           1     -22.084  -4.558  -7.261  0.00  0.00     0.038 A 
HETATM   11  C           1     -22.455  -5.480  -6.283  0.00  0.00     0.010 A 
BRANCH   9  12
HETATM   12  O           1     -20.439  -3.700  -8.754  0.00  0.00    -0.247 OA
BRANCH  12  13
HETATM   13  P           1     -20.659  -4.107 -10.301  0.00  0.00     0.411 P 
HETATM   14  O           1     -22.044  -4.590 -10.493  0.00  0.00    -0.624 OA
HETATM   15  O           1     -19.706  -5.178 -10.669  0.00  0.00    -0.624 OA
BRANCH  13  16
HETATM   16  O           1     -20.405  -2.815 -11.238  0.00  0.00    -0.300 OA
HETATM   17  H           1     -19.469  -2.740 -11.301  0.00  0.00     0.223 HD
ENDBRANCH  13  16
ENDBRANCH  12  13
ENDBRANCH   9  12
ENDBRANCH   5   6
ENDBRANCH   1   5
BRANCH   1  18
HETATM   18  N           1     -20.470  -8.805  -3.440  0.00  0.00    -0.344 N 
HETATM   19  H           1     -21.127  -9.482  -3.076  0.00  0.00     0.163 HD
HETATM   20  C           1     -19.177  -9.176  -3.700  0.00  0.00     0.249 C 
HETATM   21  O           1     -18.337  -9.079  -2.837  0.00  0.00    -0.271 OA
BRANCH  20  22
HETATM   22  C           1     -18.803  -9.706  -5.062  0.00  0.00     0.278 C 
BRANCH  22  23
HETATM   23  N           1     -17.312  -9.833  -5.156  0.00  0.00    -0.066 N 
HETATM   24  H           1     -17.064 -10.794  -5.484  0.00  0.00     0.275 HD
HETATM   25  H           1     -16.944  -9.127  -5.833  0.00  0.00     0.275 HD
HETATM   26  H           1     -16.888  -9.666  -4.215  0.00  0.00     0.275 HD
ENDBRANCH  22  23
BRANCH  22  27
HETATM   27  C           1     -19.443 -11.072  -5.270  0.00  0.00     0.017 C 
HETATM   28  C           1     -18.968 -12.025  -4.181  0.00  0.00     0.012 C 
HETATM   29  C           1     -19.040 -11.619  -6.633  0.00  0.00     0.012 C 
ENDBRANCH  22  27
ENDBRANCH  20  22
ENDBRANCH   1  18
TORSDOF 10
ENDMDL
