MODEL 1
REMARK VINA RESULT:      -5.0      0.000      0.000
REMARK  8 active torsions:
REMARK  status: ('A' for Active; 'I' for Inactive)
REMARK    1  A    between atoms: C_5  and  C_6 
REMARK    2  A    between atoms: C_6  and  C_7 
REMARK    3  A    between atoms: C_6  and  N_15 
REMARK    4  A    between atoms: C_7  and  C_16 
REMARK       I    between atoms: C_13  and  N_15 
REMARK    5  A    between atoms: C_13  and  C_14 
REMARK    6  A    between atoms: C_14  and  N_20 
REMARK    7  A    between atoms: C_16  and  C_17 
REMARK    8  A    between atoms: C_17  and  N_18 
ROOT
HETATM    1  C           1     -21.613  -4.648  -8.229  0.00  0.00     0.185 C 
ENDROOT
BRANCH   1   2
HETATM    2  C           1     -21.465  -4.861  -6.743  0.00  0.00     0.196 C 
HETATM    3  O           1     -22.421  -5.315  -6.078  0.00  0.00    -0.646 OA
HETATM    4  O           1     -20.386  -4.583  -6.176  0.00  0.00    -0.646 OA
ENDBRANCH   1   2
BRANCH   1   5
HETATM    5  C           1     -20.301  -4.126  -8.801  0.00  0.00     0.038 C 
BRANCH   5   6
HETATM    6  C           1     -20.109  -4.670 -10.211  0.00  0.00     0.030 C 
BRANCH   6   7
HETATM    7  C           1     -20.452  -3.586 -11.225  0.00  0.00     0.230 C 
BRANCH   7   8
HETATM    8  N           1     -21.450  -4.120 -12.210  0.00  0.00    -0.079 N 
HETATM    9  H           1     -22.381  -4.217 -11.745  0.00  0.00     0.274 HD
HETATM   10  H           1     -21.531  -3.459 -13.016  0.00  0.00     0.274 HD
HETATM   11  H           1     -21.134  -5.054 -12.555  0.00  0.00     0.274 HD
ENDBRANCH   7   8
ENDBRANCH   6   7
ENDBRANCH   5   6
ENDBRANCH   1   5
BRANCH   1  12
HETATM   12  N           1     -22.666  -3.681  -8.475  0.00  0.00    -0.345 N 
HETATM   13  H           1     -22.691  -2.816  -7.951  0.00  0.00     0.163 HD
HETATM   14  C           1     -23.624  -3.939  -9.417  0.00  0.00     0.243 C 
HETATM   15  O           1     -23.594  -4.971 -10.043  0.00  0.00    -0.272 OA
BRANCH  14  16
HETATM   16  C           1     -24.720  -2.932  -9.673  0.00  0.00     0.332 C 
BRANCH  16  17
HETATM   17  N           1     -26.050  -3.626  -9.661  0.00  0.00    -0.071 N 
HETATM   18  H           1     -26.776  -2.980  -9.277  0.00  0.00     0.274 HD
HETATM   19  H           1     -25.990  -4.481  -9.062  0.00  0.00     0.274 HD
HETATM   20  H           1     -26.308  -3.901 -10.635  0.00  0.00     0.274 HD
ENDBRANCH  16  17
ENDBRANCH  14  16
ENDBRANCH   1  12
TORSDOF 8
ENDMDL
MODEL 2
REMARK VINA RESULT:      -4.9      1.978      4.018
REMARK  8 active torsions:
REMARK  status: ('A' for Active; 'I' for Inactive)
REMARK    1  A    between atoms: C_5  and  C_6 
REMARK    2  A    between atoms: C_6  and  C_7 
REMARK    3  A    between atoms: C_6  and  N_15 
REMARK    4  A    between atoms: C_7  and  C_16 
REMARK       I    between atoms: C_13  and  N_15 
REMARK    5  A    between atoms: C_13  and  C_14 
REMARK    6  A    between atoms: C_14  and  N_20 
REMARK    7  A    between atoms: C_16  and  C_17 
REMARK    8  A    between atoms: C_17  and  N_18 
ROOT
HETATM    1  C           1     -23.285  -3.824  -9.998  0.00  0.00     0.185 C 
ENDROOT
BRANCH   1   2
HETATM    2  C           1     -24.672  -3.248 -10.144  0.00  0.00     0.196 C 
HETATM    3  O           1     -25.256  -3.298 -11.247  0.00  0.00    -0.646 OA
HETATM    4  O           1     -25.235  -2.719  -9.161  0.00  0.00    -0.646 OA
ENDBRANCH   1   2
BRANCH   1   5
HETATM    5  C           1     -23.029  -4.825 -11.118  0.00  0.00     0.038 C 
BRANCH   5   6
HETATM    6  C           1     -21.781  -4.416 -11.889  0.00  0.00     0.030 C 
BRANCH   6   7
HETATM    7  C           1     -21.510  -2.933 -11.668  0.00  0.00     0.230 C 
BRANCH   7   8
HETATM    8  N           1     -20.072  -2.738 -11.291  0.00  0.00    -0.079 N 
HETATM    9  H           1     -19.604  -3.668 -11.204  0.00  0.00     0.274 HD
HETATM   10  H           1     -19.592  -2.174 -12.029  0.00  0.00     0.274 HD
HETATM   11  H           1     -20.017  -2.234 -10.377  0.00  0.00     0.274 HD
ENDBRANCH   7   8
ENDBRANCH   6   7
ENDBRANCH   5   6
ENDBRANCH   1   5
BRANCH   1  12
HETATM   12  N           1     -23.174  -4.495  -8.717  0.00  0.00    -0.345 N 
HETATM   13  H           1     -23.972  -4.982  -8.330  0.00  0.00     0.163 HD
HETATM   14  C           1     -21.989  -4.470  -8.032  0.00  0.00     0.243 C 
HETATM   15  O           1     -21.037  -3.889  -8.494  0.00  0.00    -0.272 OA
BRANCH  14  16
HETATM   16  C           1     -21.874  -5.168  -6.699  0.00  0.00     0.332 C 
BRANCH  16  17
HETATM   17  N           1     -21.020  -6.393  -6.847  0.00  0.00    -0.071 N 
HETATM   18  H           1     -21.089  -6.748  -7.827  0.00  0.00     0.274 HD
HETATM   19  H           1     -21.352  -7.130  -6.184  0.00  0.00     0.274 HD
HETATM   20  H           1     -20.027  -6.153  -6.633  0.00  0.00     0.274 HD
ENDBRANCH  16  17
ENDBRANCH  14  16
ENDBRANCH   1  12
TORSDOF 8
ENDMDL
MODEL 3
REMARK VINA RESULT:      -4.7      2.287      4.377
REMARK  8 active torsions:
REMARK  status: ('A' for Active; 'I' for Inactive)
REMARK    1  A    between atoms: C_5  and  C_6 
REMARK    2  A    between atoms: C_6  and  C_7 
REMARK    3  A    between atoms: C_6  and  N_15 
REMARK    4  A    between atoms: C_7  and  C_16 
REMARK       I    between atoms: C_13  and  N_15 
REMARK    5  A    between atoms: C_13  and  C_14 
REMARK    6  A    between atoms: C_14  and  N_20 
REMARK    7  A    between atoms: C_16  and  C_17 
REMARK    8  A    between atoms: C_17  and  N_18 
ROOT
HETATM    1  C           1     -21.486  -4.853  -8.184  0.00  0.00     0.185 C 
ENDROOT
BRANCH   1   2
HETATM    2  C           1     -20.151  -4.534  -8.810  0.00  0.00     0.196 C 
HETATM    3  O           1     -19.233  -4.050  -8.113  0.00  0.00    -0.646 OA
HETATM    4  O           1     -19.964  -4.752 -10.027  0.00  0.00    -0.646 OA
ENDBRANCH   1   2
BRANCH   1   5
HETATM    5  C           1     -22.516  -3.821  -8.627  0.00  0.00     0.038 C 
BRANCH   5   6
HETATM    6  C           1     -23.517  -4.475  -9.571  0.00  0.00     0.030 C 
BRANCH   6   7
HETATM    7  C           1     -24.413  -3.405 -10.181  0.00  0.00     0.230 C 
BRANCH   7   8
HETATM    8  N           1     -25.812  -3.572  -9.666  0.00  0.00    -0.079 N 
HETATM    9  H           1     -26.142  -4.545  -9.858  0.00  0.00     0.274 HD
HETATM   10  H           1     -25.827  -3.397  -8.635  0.00  0.00     0.274 HD
HETATM   11  H           1     -26.444  -2.890 -10.143  0.00  0.00     0.274 HD
ENDBRANCH   7   8
ENDBRANCH   6   7
ENDBRANCH   5   6
ENDBRANCH   1   5
BRANCH   1  12
HETATM   12  N           1     -21.362  -4.820  -6.739  0.00  0.00    -0.345 N 
HETATM   13  H           1     -21.422  -3.939  -6.246  0.00  0.00     0.163 HD
HETATM   14  C           1     -21.162  -5.981  -6.044  0.00  0.00     0.243 C 
HETATM   15  O           1     -21.090  -7.033  -6.632  0.00  0.00    -0.272 OA
BRANCH  14  16
HETATM   16  C           1     -21.032  -5.947  -4.541  0.00  0.00     0.332 C 
BRANCH  16  17
HETATM   17  N           1     -22.364  -6.244  -3.916  0.00  0.00    -0.071 N 
HETATM   18  H           1     -22.597  -7.252  -4.057  0.00  0.00     0.274 HD
HETATM   19  H           1     -23.098  -5.649  -4.363  0.00  0.00     0.274 HD
HETATM   20  H           1     -22.323  -6.035  -2.893  0.00  0.00     0.274 HD
ENDBRANCH  16  17
ENDBRANCH  14  16
ENDBRANCH   1  12
TORSDOF 8
ENDMDL
MODEL 4
REMARK VINA RESULT:      -4.5      1.803      2.204
REMARK  8 active torsions:
REMARK  status: ('A' for Active; 'I' for Inactive)
REMARK    1  A    between atoms: C_5  and  C_6 
REMARK    2  A    between atoms: C_6  and  C_7 
REMARK    3  A    between atoms: C_6  and  N_15 
REMARK    4  A    between atoms: C_7  and  C_16 
REMARK       I    between atoms: C_13  and  N_15 
REMARK    5  A    between atoms: C_13  and  C_14 
REMARK    6  A    between atoms: C_14  and  N_20 
REMARK    7  A    between atoms: C_16  and  C_17 
REMARK    8  A    between atoms: C_17  and  N_18 
ROOT
HETATM    1  C           1     -21.962  -5.199  -6.786  0.00  0.00     0.185 C 
ENDROOT
BRANCH   1   2
HETATM    2  C           1     -22.558  -5.963  -5.629  0.00  0.00     0.196 C 
HETATM    3  O           1     -21.837  -6.713  -4.937  0.00  0.00    -0.646 OA
HETATM    4  O           1     -23.775  -5.847  -5.365  0.00  0.00    -0.646 OA
ENDBRANCH   1   2
BRANCH   1   5
HETATM    5  C           1     -20.730  -4.438  -6.312  0.00  0.00     0.038 C 
BRANCH   5   6
HETATM    6  C           1     -19.533  -4.822  -7.172  0.00  0.00     0.030 C 
BRANCH   6   7
HETATM    7  C           1     -19.490  -3.932  -8.408  0.00  0.00     0.230 C 
BRANCH   7   8
HETATM    8  N           1     -19.872  -4.735  -9.616  0.00  0.00    -0.079 N 
HETATM    9  H           1     -19.806  -5.753  -9.394  0.00  0.00     0.274 HD
HETATM   10  H           1     -20.853  -4.502  -9.892  0.00  0.00     0.274 HD
HETATM   11  H           1     -19.225  -4.508 -10.405  0.00  0.00     0.274 HD
ENDBRANCH   7   8
ENDBRANCH   6   7
ENDBRANCH   5   6
ENDBRANCH   1   5
BRANCH   1  12
HETATM   12  N           1     -22.941  -4.261  -7.300  0.00  0.00    -0.345 N 
HETATM   13  H           1     -23.411  -3.624  -6.670  0.00  0.00     0.163 HD
HETATM   14  C           1     -23.228  -4.237  -8.638  0.00  0.00     0.243 C 
HETATM   15  O           1     -22.666  -4.996  -9.390  0.00  0.00    -0.272 OA
BRANCH  14  16
HETATM   16  C           1     -24.246  -3.260  -9.173  0.00  0.00     0.332 C 
BRANCH  16  17
HETATM   17  N           1     -25.475  -4.005  -9.606  0.00  0.00    -0.071 N 
HETATM   18  H           1     -25.193  -4.889 -10.087  0.00  0.00     0.274 HD
HETATM   19  H           1     -26.028  -3.410 -10.264  0.00  0.00     0.274 HD
HETATM   20  H           1     -26.057  -4.233  -8.770  0.00  0.00     0.274 HD
ENDBRANCH  16  17
ENDBRANCH  14  16
ENDBRANCH   1  12
TORSDOF 8
ENDMDL
MODEL 5
REMARK VINA RESULT:      -4.4      2.942      4.692
REMARK  8 active torsions:
REMARK  status: ('A' for Active; 'I' for Inactive)
REMARK    1  A    between atoms: C_5  and  C_6 
REMARK    2  A    between atoms: C_6  and  C_7 
REMARK    3  A    between atoms: C_6  and  N_15 
REMARK    4  A    between atoms: C_7  and  C_16 
REMARK       I    between atoms: C_13  and  N_15 
REMARK    5  A    between atoms: C_13  and  C_14 
REMARK    6  A    between atoms: C_14  and  N_20 
REMARK    7  A    between atoms: C_16  and  C_17 
REMARK    8  A    between atoms: C_17  and  N_18 
ROOT
HETATM    1  C           1     -21.405  -5.416  -6.679  0.00  0.00     0.185 C 
ENDROOT
BRANCH   1   2
HETATM    2  C           1     -20.151  -5.737  -7.454  0.00  0.00     0.196 C 
HETATM    3  O           1     -19.779  -4.986  -8.382  0.00  0.00    -0.646 OA
HETATM    4  O           1     -19.484  -6.755  -7.169  0.00  0.00    -0.646 OA
ENDBRANCH   1   2
BRANCH   1   5
HETATM    5  C           1     -21.943  -4.061  -7.121  0.00  0.00     0.038 C 
BRANCH   5   6
HETATM    6  C           1     -23.186  -4.262  -7.978  0.00  0.00     0.030 C 
BRANCH   6   7
HETATM    7  C           1     -22.977  -3.605  -9.336  0.00  0.00     0.230 C 
BRANCH   7   8
HETATM    8  N           1     -22.194  -4.527 -10.223  0.00  0.00    -0.079 N 
HETATM    9  H           1     -22.721  -4.688 -11.112  0.00  0.00     0.274 HD
HETATM   10  H           1     -21.267  -4.095 -10.442  0.00  0.00     0.274 HD
HETATM   11  H           1     -22.047  -5.440  -9.736  0.00  0.00     0.274 HD
ENDBRANCH   7   8
ENDBRANCH   6   7
ENDBRANCH   5   6
ENDBRANCH   1   5
BRANCH   1  12
HETATM   12  N           1     -21.100  -5.376  -5.262  0.00  0.00    -0.345 N 
HETATM   13  H           1     -20.537  -4.624  -4.887  0.00  0.00     0.163 HD
HETATM   14  C           1     -21.573  -6.356  -4.433  0.00  0.00     0.243 C 
HETATM   15  O           1     -22.244  -7.254  -4.880  0.00  0.00    -0.272 OA
BRANCH  14  16
HETATM   16  C           1     -21.255  -6.315  -2.958  0.00  0.00     0.332 C 
BRANCH  16  17
HETATM   17  N           1     -22.478  -5.899  -2.194  0.00  0.00    -0.071 N 
HETATM   18  H           1     -22.261  -5.050  -1.625  0.00  0.00     0.274 HD
HETATM   19  H           1     -22.772  -6.678  -1.561  0.00  0.00     0.274 HD
HETATM   20  H           1     -23.250  -5.684  -2.862  0.00  0.00     0.274 HD
ENDBRANCH  16  17
ENDBRANCH  14  16
ENDBRANCH   1  12
TORSDOF 8
ENDMDL
MODEL 6
REMARK VINA RESULT:      -4.4      3.563      5.684
REMARK  8 active torsions:
REMARK  status: ('A' for Active; 'I' for Inactive)
REMARK    1  A    between atoms: C_5  and  C_6 
REMARK    2  A    between atoms: C_6  and  C_7 
REMARK    3  A    between atoms: C_6  and  N_15 
REMARK    4  A    between atoms: C_7  and  C_16 
REMARK       I    between atoms: C_13  and  N_15 
REMARK    5  A    between atoms: C_13  and  C_14 
REMARK    6  A    between atoms: C_14  and  N_20 
REMARK    7  A    between atoms: C_16  and  C_17 
REMARK    8  A    between atoms: C_17  and  N_18 
ROOT
HETATM    1  C           1     -21.291  -5.998  -5.452  0.00  0.00     0.185 C 
ENDROOT
BRANCH   1   2
HETATM    2  C           1     -20.636  -7.248  -5.986  0.00  0.00     0.196 C 
HETATM    3  O           1     -19.516  -7.181  -6.537  0.00  0.00    -0.646 OA
HETATM    4  O           1     -21.215  -8.351  -5.878  0.00  0.00    -0.646 OA
ENDBRANCH   1   2
BRANCH   1   5
HETATM    5  C           1     -22.179  -6.355  -4.267  0.00  0.00     0.038 C 
BRANCH   5   6
HETATM    6  C           1     -21.344  -6.371  -2.993  0.00  0.00     0.030 C 
BRANCH   6   7
HETATM    7  C           1     -22.261  -6.242  -1.783  0.00  0.00     0.230 C 
BRANCH   7   8
HETATM    8  N           1     -22.021  -7.391  -0.849  0.00  0.00    -0.079 N 
HETATM    9  H           1     -22.911  -7.920  -0.711  0.00  0.00     0.274 HD
HETATM   10  H           1     -21.298  -8.026  -1.256  0.00  0.00     0.274 HD
HETATM   11  H           1     -21.686  -7.027   0.072  0.00  0.00     0.274 HD
ENDBRANCH   7   8
ENDBRANCH   6   7
ENDBRANCH   5   6
ENDBRANCH   1   5
BRANCH   1  12
HETATM   12  N           1     -22.097  -5.393  -6.494  0.00  0.00    -0.345 N 
HETATM   13  H           1     -23.035  -5.730  -6.669  0.00  0.00     0.163 HD
HETATM   14  C           1     -21.590  -4.365  -7.241  0.00  0.00     0.243 C 
HETATM   15  O           1     -20.471  -3.962  -7.033  0.00  0.00    -0.272 OA
BRANCH  14  16
HETATM   16  C           1     -22.429  -3.735  -8.326  0.00  0.00     0.332 C 
BRANCH  16  17
HETATM   17  N           1     -23.877  -4.042  -8.081  0.00  0.00    -0.071 N 
HETATM   18  H           1     -24.405  -3.150  -7.949  0.00  0.00     0.274 HD
HETATM   19  H           1     -23.967  -4.632  -7.222  0.00  0.00     0.274 HD
HETATM   20  H           1     -24.267  -4.560  -8.900  0.00  0.00     0.274 HD
ENDBRANCH  16  17
ENDBRANCH  14  16
ENDBRANCH   1  12
TORSDOF 8
ENDMDL
MODEL 7
REMARK VINA RESULT:      -4.3      2.602      4.150
REMARK  8 active torsions:
REMARK  status: ('A' for Active; 'I' for Inactive)
REMARK    1  A    between atoms: C_5  and  C_6 
REMARK    2  A    between atoms: C_6  and  C_7 
REMARK    3  A    between atoms: C_6  and  N_15 
REMARK    4  A    between atoms: C_7  and  C_16 
REMARK       I    between atoms: C_13  and  N_15 
REMARK    5  A    between atoms: C_13  and  C_14 
REMARK    6  A    between atoms: C_14  and  N_20 
REMARK    7  A    between atoms: C_16  and  C_17 
REMARK    8  A    between atoms: C_17  and  N_18 
ROOT
HETATM    1  C           1     -20.896  -4.810  -6.292  0.00  0.00     0.185 C 
ENDROOT
BRANCH   1   2
HETATM    2  C           1     -19.656  -5.301  -6.999  0.00  0.00     0.196 C 
HETATM    3  O           1     -19.521  -6.518  -7.250  0.00  0.00    -0.646 OA
HETATM    4  O           1     -18.765  -4.490  -7.333  0.00  0.00    -0.646 OA
ENDBRANCH   1   2
BRANCH   1   5
HETATM    5  C           1     -21.044  -5.536  -4.961  0.00  0.00     0.038 C 
BRANCH   5   6
HETATM    6  C           1     -22.201  -6.523  -5.047  0.00  0.00     0.030 C 
BRANCH   6   7
HETATM    7  C           1     -21.721  -7.907  -4.628  0.00  0.00     0.230 C 
BRANCH   7   8
HETATM    8  N           1     -21.055  -8.579  -5.792  0.00  0.00    -0.079 N 
HETATM    9  H           1     -20.920  -9.593  -5.579  0.00  0.00     0.274 HD
HETATM   10  H           1     -21.656  -8.479  -6.642  0.00  0.00     0.274 HD
HETATM   11  H           1     -20.126  -8.133  -5.968  0.00  0.00     0.274 HD
ENDBRANCH   7   8
ENDBRANCH   6   7
ENDBRANCH   5   6
ENDBRANCH   1   5
BRANCH   1  12
HETATM   12  N           1     -22.058  -5.073  -7.118  0.00  0.00    -0.345 N 
HETATM   13  H           1     -22.602  -5.914  -6.973  0.00  0.00     0.163 HD
HETATM   14  C           1     -22.421  -4.183  -8.092  0.00  0.00     0.243 C 
HETATM   15  O           1     -21.773  -3.179  -8.265  0.00  0.00    -0.272 OA
BRANCH  14  16
HETATM   16  C           1     -23.631  -4.457  -8.951  0.00  0.00     0.332 C 
BRANCH  16  17
HETATM   17  N           1     -24.507  -3.239  -8.986  0.00  0.00    -0.071 N 
HETATM   18  H           1     -24.853  -3.032  -8.022  0.00  0.00     0.274 HD
HETATM   19  H           1     -25.320  -3.414  -9.619  0.00  0.00     0.274 HD
HETATM   20  H           1     -23.957  -2.425  -9.341  0.00  0.00     0.274 HD
ENDBRANCH  16  17
ENDBRANCH  14  16
ENDBRANCH   1  12
TORSDOF 8
ENDMDL
MODEL 8
REMARK VINA RESULT:      -4.3      3.942      5.874
REMARK  8 active torsions:
REMARK  status: ('A' for Active; 'I' for Inactive)
REMARK    1  A    between atoms: C_5  and  C_6 
REMARK    2  A    between atoms: C_6  and  C_7 
REMARK    3  A    between atoms: C_6  and  N_15 
REMARK    4  A    between atoms: C_7  and  C_16 
REMARK       I    between atoms: C_13  and  N_15 
REMARK    5  A    between atoms: C_13  and  C_14 
REMARK    6  A    between atoms: C_14  and  N_20 
REMARK    7  A    between atoms: C_16  and  C_17 
REMARK    8  A    between atoms: C_17  and  N_18 
ROOT
HETATM    1  C           1     -20.692  -6.771  -5.351  0.00  0.00     0.185 C 
ENDROOT
BRANCH   1   2
HETATM    2  C           1     -21.866  -6.310  -4.523  0.00  0.00     0.196 C 
HETATM    3  O           1     -21.699  -5.989  -3.326  0.00  0.00    -0.646 OA
HETATM    4  O           1     -23.005  -6.249  -5.033  0.00  0.00    -0.646 OA
ENDBRANCH   1   2
BRANCH   1   5
HETATM    5  C           1     -20.667  -6.006  -6.668  0.00  0.00     0.038 C 
BRANCH   5   6
HETATM    6  C           1     -20.372  -4.536  -6.397  0.00  0.00     0.030 C 
BRANCH   6   7
HETATM    7  C           1     -21.226  -3.669  -7.312  0.00  0.00     0.230 C 
BRANCH   7   8
HETATM    8  N           1     -22.640  -4.171  -7.300  0.00  0.00    -0.079 N 
HETATM    9  H           1     -23.297  -3.362  -7.222  0.00  0.00     0.274 HD
HETATM   10  H           1     -22.832  -4.690  -8.187  0.00  0.00     0.274 HD
HETATM   11  H           1     -22.776  -4.810  -6.485  0.00  0.00     0.274 HD
ENDBRANCH   7   8
ENDBRANCH   6   7
ENDBRANCH   5   6
ENDBRANCH   1   5
BRANCH   1  12
HETATM   12  N           1     -20.819  -8.190  -5.620  0.00  0.00    -0.345 N 
HETATM   13  H           1     -21.494  -8.518  -6.299  0.00  0.00     0.163 HD
HETATM   14  C           1     -20.027  -9.086  -4.955  0.00  0.00     0.243 C 
HETATM   15  O           1     -19.222  -8.695  -4.145  0.00  0.00    -0.272 OA
BRANCH  14  16
HETATM   16  C           1     -20.159 -10.563  -5.235  0.00  0.00     0.332 C 
BRANCH  16  17
HETATM   17  N           1     -21.101 -10.772  -6.384  0.00  0.00    -0.071 N 
HETATM   18  H           1     -21.645  -9.896  -6.552  0.00  0.00     0.274 HD
HETATM   19  H           1     -21.758 -11.553  -6.157  0.00  0.00     0.274 HD
HETATM   20  H           1     -20.557 -11.015  -7.242  0.00  0.00     0.274 HD
ENDBRANCH  16  17
ENDBRANCH  14  16
ENDBRANCH   1  12
TORSDOF 8
ENDMDL
MODEL 9
REMARK VINA RESULT:      -4.2      8.206     10.283
REMARK  8 active torsions:
REMARK  status: ('A' for Active; 'I' for Inactive)
REMARK    1  A    between atoms: C_5  and  C_6 
REMARK    2  A    between atoms: C_6  and  C_7 
REMARK    3  A    between atoms: C_6  and  N_15 
REMARK    4  A    between atoms: C_7  and  C_16 
REMARK       I    between atoms: C_13  and  N_15 
REMARK    5  A    between atoms: C_13  and  C_14 
REMARK    6  A    between atoms: C_14  and  N_20 
REMARK    7  A    between atoms: C_16  and  C_17 
REMARK    8  A    between atoms: C_17  and  N_18 
ROOT
HETATM    1  C           1     -22.274  -9.142  -0.554  0.00  0.00     0.185 C 
ENDROOT
BRANCH   1   2
HETATM    2  C           1     -21.247  -9.398   0.521  0.00  0.00     0.196 C 
HETATM    3  O           1     -20.544 -10.431   0.480  0.00  0.00    -0.646 OA
HETATM    4  O           1     -21.100  -8.578   1.453  0.00  0.00    -0.646 OA
ENDBRANCH   1   2
BRANCH   1   5
HETATM    5  C           1     -22.770 -10.470  -1.111  0.00  0.00     0.038 C 
BRANCH   5   6
HETATM    6  C           1     -23.851 -11.033  -0.196  0.00  0.00     0.030 C 
BRANCH   6   7
HETATM    7  C           1     -23.622 -12.526   0.001  0.00  0.00     0.230 C 
BRANCH   7   8
HETATM    8  N           1     -22.518 -12.735   0.994  0.00  0.00    -0.079 N 
HETATM    9  H           1     -22.918 -13.091   1.892  0.00  0.00     0.274 HD
HETATM   10  H           1     -21.838 -13.433   0.617  0.00  0.00     0.274 HD
HETATM   11  H           1     -22.027 -11.829   1.168  0.00  0.00     0.274 HD
ENDBRANCH   7   8
ENDBRANCH   6   7
ENDBRANCH   5   6
ENDBRANCH   1   5
BRANCH   1  12
HETATM   12  N           1     -21.673  -8.365  -1.621  0.00  0.00    -0.345 N 
HETATM   13  H           1     -21.042  -8.810  -2.276  0.00  0.00     0.163 HD
HETATM   14  C           1     -21.958  -7.033  -1.743  0.00  0.00     0.243 C 
HETATM   15  O           1     -22.711  -6.503  -0.961  0.00  0.00    -0.272 OA
BRANCH  14  16
HETATM   16  C           1     -21.332  -6.225  -2.853  0.00  0.00     0.332 C 
BRANCH  16  17
HETATM   17  N           1     -22.238  -6.231  -4.049  0.00  0.00    -0.071 N 
HETATM   18  H           1     -22.136  -7.137  -4.559  0.00  0.00     0.274 HD
HETATM   19  H           1     -21.981  -5.441  -4.683  0.00  0.00     0.274 HD
HETATM   20  H           1     -23.228  -6.117  -3.736  0.00  0.00     0.274 HD
ENDBRANCH  16  17
ENDBRANCH  14  16
ENDBRANCH   1  12
TORSDOF 8
ENDMDL
