MODEL 1
REMARK VINA RESULT:      -6.1      0.000      0.000
REMARK  12 active torsions:
REMARK  status: ('A' for Active; 'I' for Inactive)
REMARK    1  A    between atoms: C_4  and  C_11 
REMARK    2  A    between atoms: C_4  and  C_22 
REMARK    3  A    between atoms: C_5  and  C_22 
REMARK    4  A    between atoms: C_7  and  C_9 
REMARK    5  A    between atoms: C_7  and  N_10 
REMARK    6  A    between atoms: C_9  and  C_21 
REMARK    7  A    between atoms: C_11  and  Se_15 
REMARK       I    between atoms: C_18  and  N_19 
REMARK    8  A    between atoms: C_18  and  C_23 
REMARK    9  A    between atoms: N_19  and  C_22 
REMARK   10  A    between atoms: N_20  and  C_23 
REMARK   11  A    between atoms: C_21  and  C_24 
REMARK   12  A    between atoms: C_23  and  C_24 
ROOT
HETATM    1  C           1     -33.298  -3.189 -11.478  0.00  0.00     0.274 C 
ENDROOT
BRANCH   1   2
HETATM    2  C           1     -34.266  -2.593 -12.470  0.00  0.00     0.249 C 
HETATM    3  O           1     -34.504  -3.172 -13.503  0.00  0.00    -0.271 OA
HETATM    4  N           1     -34.873  -1.396 -12.200  0.00  0.00    -0.345 N 
HETATM    5  H           1     -34.674  -0.911 -11.335  0.00  0.00     0.163 HD
BRANCH   4   6
HETATM    6  C           1     -35.804  -0.823 -13.154  0.00  0.00     0.185 C 
BRANCH   6   7
HETATM    7  C           1     -36.924  -0.113 -12.404  0.00  0.00     0.036 C 
BRANCH   7   8
HETATM    8  C           1     -36.996  -0.642 -10.978  0.00  0.00     0.003 C 
BRANCH   8   9
HETATM    9 Se           1     -37.206   0.849  -9.741  0.00  0.00     0.000 Se
HETATM   10  C           1     -37.547  -0.277  -8.186  0.00  0.00     0.000 C 
ENDBRANCH   8   9
ENDBRANCH   7   8
ENDBRANCH   6   7
BRANCH   6  11
HETATM   11  C           1     -35.078   0.167 -14.031  0.00  0.00     0.196 C 
HETATM   12  O           1     -34.862  -0.103 -15.232  0.00  0.00    -0.646 OA
HETATM   13  O           1     -34.694   1.257 -13.557  0.00  0.00    -0.646 OA
ENDBRANCH   6  11
ENDBRANCH   4   6
ENDBRANCH   1   2
BRANCH   1  14
HETATM   14  N           1     -33.735  -2.844 -10.085  0.00  0.00    -0.067 N 
HETATM   15  H           1     -32.968  -2.329  -9.596  0.00  0.00     0.275 HD
HETATM   16  H           1     -34.587  -2.241 -10.127  0.00  0.00     0.275 HD
HETATM   17  H           1     -33.953  -3.722  -9.562  0.00  0.00     0.275 HD
ENDBRANCH   1  14
BRANCH   1  18
HETATM   18  C           1     -33.270  -4.702 -11.641  0.00  0.00     0.042 C 
BRANCH  18  19
HETATM   19  C           1     -34.088  -5.348 -10.532  0.00  0.00     0.004 C 
BRANCH  19  20
HETATM   20  C           1     -34.656  -6.673 -11.024  0.00  0.00     0.027 C 
BRANCH  20  21
HETATM   21  C           1     -34.568  -7.709  -9.911  0.00  0.00     0.229 C 
BRANCH  21  22
HETATM   22  N           1     -33.589  -8.777 -10.297  0.00  0.00    -0.079 N 
HETATM   23  H           1     -33.825  -9.664  -9.796  0.00  0.00     0.274 HD
HETATM   24  H           1     -33.635  -8.937 -11.328  0.00  0.00     0.274 HD
HETATM   25  H           1     -32.623  -8.476 -10.033  0.00  0.00     0.274 HD
ENDBRANCH  21  22
ENDBRANCH  20  21
ENDBRANCH  19  20
ENDBRANCH  18  19
ENDBRANCH   1  18
TORSDOF 12
ENDMDL
MODEL 2
REMARK VINA RESULT:      -5.5      4.853      6.335
REMARK  12 active torsions:
REMARK  status: ('A' for Active; 'I' for Inactive)
REMARK    1  A    between atoms: C_4  and  C_11 
REMARK    2  A    between atoms: C_4  and  C_22 
REMARK    3  A    between atoms: C_5  and  C_22 
REMARK    4  A    between atoms: C_7  and  C_9 
REMARK    5  A    between atoms: C_7  and  N_10 
REMARK    6  A    between atoms: C_9  and  C_21 
REMARK    7  A    between atoms: C_11  and  Se_15 
REMARK       I    between atoms: C_18  and  N_19 
REMARK    8  A    between atoms: C_18  and  C_23 
REMARK    9  A    between atoms: N_19  and  C_22 
REMARK   10  A    between atoms: N_20  and  C_23 
REMARK   11  A    between atoms: C_21  and  C_24 
REMARK   12  A    between atoms: C_23  and  C_24 
ROOT
HETATM    1  C           1     -33.257  -4.417 -16.737  0.00  0.00     0.274 C 
ENDROOT
BRANCH   1   2
HETATM    2  C           1     -33.972  -4.478 -15.410  0.00  0.00     0.249 C 
HETATM    3  O           1     -35.035  -5.045 -15.321  0.00  0.00    -0.271 OA
HETATM    4  N           1     -33.415  -3.892 -14.305  0.00  0.00    -0.345 N 
HETATM    5  H           1     -32.524  -3.417 -14.378  0.00  0.00     0.163 HD
BRANCH   4   6
HETATM    6  C           1     -34.101  -3.951 -13.028  0.00  0.00     0.185 C 
BRANCH   6   7
HETATM    7  C           1     -33.077  -4.087 -11.909  0.00  0.00     0.036 C 
BRANCH   7   8
HETATM    8  C           1     -33.148  -5.491 -11.323  0.00  0.00     0.003 C 
BRANCH   8   9
HETATM    9 Se           1     -34.978  -6.152 -11.439  0.00  0.00     0.000 Se
HETATM   10  C           1     -34.715  -7.587 -10.146  0.00  0.00     0.000 C 
ENDBRANCH   8   9
ENDBRANCH   7   8
ENDBRANCH   6   7
BRANCH   6  11
HETATM   11  C           1     -34.900  -2.687 -12.829  0.00  0.00     0.196 C 
HETATM   12  O           1     -35.713  -2.605 -11.883  0.00  0.00    -0.646 OA
HETATM   13  O           1     -34.749  -1.723 -13.608  0.00  0.00    -0.646 OA
ENDBRANCH   6  11
ENDBRANCH   4   6
ENDBRANCH   1   2
BRANCH   1  14
HETATM   14  N           1     -33.452  -3.060 -17.347  0.00  0.00    -0.067 N 
HETATM   15  H           1     -32.964  -3.019 -18.270  0.00  0.00     0.275 HD
HETATM   16  H           1     -34.472  -2.883 -17.484  0.00  0.00     0.275 HD
HETATM   17  H           1     -33.053  -2.333 -16.711  0.00  0.00     0.275 HD
ENDBRANCH   1  14
BRANCH   1  18
HETATM   18  C           1     -31.771  -4.671 -16.527  0.00  0.00     0.042 C 
BRANCH  18  19
HETATM   19  C           1     -30.968  -3.837 -17.516  0.00  0.00     0.004 C 
BRANCH  19  20
HETATM   20  C           1     -29.486  -4.143 -17.354  0.00  0.00     0.027 C 
BRANCH  20  21
HETATM   21  C           1     -28.980  -4.878 -18.589  0.00  0.00     0.229 C 
BRANCH  21  22
HETATM   22  N           1     -28.781  -6.328 -18.262  0.00  0.00    -0.079 N 
HETATM   23  H           1     -29.041  -6.500 -17.265  0.00  0.00     0.274 HD
HETATM   24  H           1     -29.384  -6.911 -18.885  0.00  0.00     0.274 HD
HETATM   25  H           1     -27.778  -6.584 -18.409  0.00  0.00     0.274 HD
ENDBRANCH  21  22
ENDBRANCH  20  21
ENDBRANCH  19  20
ENDBRANCH  18  19
ENDBRANCH   1  18
TORSDOF 12
ENDMDL
MODEL 3
REMARK VINA RESULT:      -5.4     14.716     16.700
REMARK  12 active torsions:
REMARK  status: ('A' for Active; 'I' for Inactive)
REMARK    1  A    between atoms: C_4  and  C_11 
REMARK    2  A    between atoms: C_4  and  C_22 
REMARK    3  A    between atoms: C_5  and  C_22 
REMARK    4  A    between atoms: C_7  and  C_9 
REMARK    5  A    between atoms: C_7  and  N_10 
REMARK    6  A    between atoms: C_9  and  C_21 
REMARK    7  A    between atoms: C_11  and  Se_15 
REMARK       I    between atoms: C_18  and  N_19 
REMARK    8  A    between atoms: C_18  and  C_23 
REMARK    9  A    between atoms: N_19  and  C_22 
REMARK   10  A    between atoms: N_20  and  C_23 
REMARK   11  A    between atoms: C_21  and  C_24 
REMARK   12  A    between atoms: C_23  and  C_24 
ROOT
HETATM    1  C           1     -20.677  -4.373  -6.547  0.00  0.00     0.274 C 
ENDROOT
BRANCH   1   2
HETATM    2  C           1     -21.458  -5.402  -5.767  0.00  0.00     0.249 C 
HETATM    3  O           1     -22.658  -5.468  -5.889  0.00  0.00    -0.271 OA
HETATM    4  N           1     -20.808  -6.259  -4.921  0.00  0.00    -0.345 N 
HETATM    5  H           1     -19.802  -6.204  -4.819  0.00  0.00     0.163 HD
BRANCH   4   6
HETATM    6  C           1     -21.558  -7.248  -4.172  0.00  0.00     0.185 C 
BRANCH   6   7
HETATM    7  C           1     -20.875  -8.604  -4.296  0.00  0.00     0.036 C 
BRANCH   7   8
HETATM    8  C           1     -19.576  -8.448  -5.075  0.00  0.00     0.003 C 
BRANCH   8   9
HETATM    9 Se           1     -18.415  -9.971  -4.716  0.00  0.00     0.000 Se
HETATM   10  C           1     -18.021  -9.447  -2.881  0.00  0.00     0.000 C 
ENDBRANCH   8   9
ENDBRANCH   7   8
ENDBRANCH   6   7
BRANCH   6  11
HETATM   11  C           1     -21.612  -6.843  -2.719  0.00  0.00     0.196 C 
HETATM   12  O           1     -20.861  -7.397  -1.888  0.00  0.00    -0.646 OA
HETATM   13  O           1     -22.406  -5.952  -2.348  0.00  0.00    -0.646 OA
ENDBRANCH   6  11
ENDBRANCH   4   6
ENDBRANCH   1   2
BRANCH   1  14
HETATM   14  N           1     -19.523  -5.040  -7.236  0.00  0.00    -0.067 N 
HETATM   15  H           1     -19.372  -4.597  -8.171  0.00  0.00     0.275 HD
HETATM   16  H           1     -18.662  -4.931  -6.657  0.00  0.00     0.275 HD
HETATM   17  H           1     -19.734  -6.055  -7.363  0.00  0.00     0.275 HD
ENDBRANCH   1  14
BRANCH   1  18
HETATM   18  C           1     -21.583  -3.726  -7.585  0.00  0.00     0.042 C 
BRANCH  18  19
HETATM   19  C           1     -21.267  -4.294  -8.961  0.00  0.00     0.004 C 
BRANCH  19  20
HETATM   20  C           1     -22.534  -4.317  -9.806  0.00  0.00     0.027 C 
BRANCH  20  21
HETATM   21  C           1     -23.736  -3.996  -8.928  0.00  0.00     0.229 C 
BRANCH  21  22
HETATM   22  N           1     -24.999  -4.276  -9.686  0.00  0.00    -0.079 N 
HETATM   23  H           1     -24.876  -5.139 -10.262  0.00  0.00     0.274 HD
HETATM   24  H           1     -25.786  -4.415  -9.013  0.00  0.00     0.274 HD
HETATM   25  H           1     -25.216  -3.468 -10.313  0.00  0.00     0.274 HD
ENDBRANCH  21  22
ENDBRANCH  20  21
ENDBRANCH  19  20
ENDBRANCH  18  19
ENDBRANCH   1  18
TORSDOF 12
ENDMDL
MODEL 4
REMARK VINA RESULT:      -5.3     14.318     16.389
REMARK  12 active torsions:
REMARK  status: ('A' for Active; 'I' for Inactive)
REMARK    1  A    between atoms: C_4  and  C_11 
REMARK    2  A    between atoms: C_4  and  C_22 
REMARK    3  A    between atoms: C_5  and  C_22 
REMARK    4  A    between atoms: C_7  and  C_9 
REMARK    5  A    between atoms: C_7  and  N_10 
REMARK    6  A    between atoms: C_9  and  C_21 
REMARK    7  A    between atoms: C_11  and  Se_15 
REMARK       I    between atoms: C_18  and  N_19 
REMARK    8  A    between atoms: C_18  and  C_23 
REMARK    9  A    between atoms: N_19  and  C_22 
REMARK   10  A    between atoms: N_20  and  C_23 
REMARK   11  A    between atoms: C_21  and  C_24 
REMARK   12  A    between atoms: C_23  and  C_24 
ROOT
HETATM    1  C           1     -20.612  -4.990  -6.601  0.00  0.00     0.274 C 
ENDROOT
BRANCH   1   2
HETATM    2  C           1     -21.413  -5.849  -5.653  0.00  0.00     0.249 C 
HETATM    3  O           1     -22.614  -5.736  -5.604  0.00  0.00    -0.271 OA
HETATM    4  N           1     -20.777  -6.755  -4.848  0.00  0.00    -0.345 N 
HETATM    5  H           1     -19.770  -6.850  -4.888  0.00  0.00     0.163 HD
BRANCH   4   6
HETATM    6  C           1     -21.546  -7.582  -3.937  0.00  0.00     0.185 C 
BRANCH   6   7
HETATM    7  C           1     -20.919  -8.968  -3.858  0.00  0.00     0.036 C 
BRANCH   7   8
HETATM    8  C           1     -21.988  -9.988  -3.490  0.00  0.00     0.003 C 
BRANCH   8   9
HETATM    9 Se           1     -21.464 -10.922  -1.862  0.00  0.00     0.000 Se
HETATM   10  C           1     -22.951 -10.245  -0.800  0.00  0.00     0.000 C 
ENDBRANCH   8   9
ENDBRANCH   7   8
ENDBRANCH   6   7
BRANCH   6  11
HETATM   11  C           1     -21.547  -6.951  -2.566  0.00  0.00     0.196 C 
HETATM   12  O           1     -20.707  -7.310  -1.714  0.00  0.00    -0.646 OA
HETATM   13  O           1     -22.386  -6.070  -2.284  0.00  0.00    -0.646 OA
ENDBRANCH   6  11
ENDBRANCH   4   6
ENDBRANCH   1   2
BRANCH   1  14
HETATM   14  N           1     -20.213  -5.803  -7.796  0.00  0.00    -0.067 N 
HETATM   15  H           1     -21.069  -6.107  -8.313  0.00  0.00     0.275 HD
HETATM   16  H           1     -19.613  -5.225  -8.425  0.00  0.00     0.275 HD
HETATM   17  H           1     -19.680  -6.645  -7.481  0.00  0.00     0.275 HD
ENDBRANCH   1  14
BRANCH   1  18
HETATM   18  C           1     -21.458  -3.806  -7.051  0.00  0.00     0.042 C 
BRANCH  18  19
HETATM   19  C           1     -21.903  -4.019  -8.491  0.00  0.00     0.004 C 
BRANCH  19  20
HETATM   20  C           1     -23.419  -4.151  -8.541  0.00  0.00     0.027 C 
BRANCH  20  21
HETATM   21  C           1     -23.934  -3.609  -9.868  0.00  0.00     0.229 C 
BRANCH  21  22
HETATM   22  N           1     -25.434  -3.597  -9.856  0.00  0.00    -0.079 N 
HETATM   23  H           1     -25.775  -2.610  -9.887  0.00  0.00     0.274 HD
HETATM   24  H           1     -25.793  -4.116 -10.689  0.00  0.00     0.274 HD
HETATM   25  H           1     -25.779  -4.057  -8.983  0.00  0.00     0.274 HD
ENDBRANCH  21  22
ENDBRANCH  20  21
ENDBRANCH  19  20
ENDBRANCH  18  19
ENDBRANCH   1  18
TORSDOF 12
ENDMDL
MODEL 5
REMARK VINA RESULT:      -5.3     14.398     16.331
REMARK  12 active torsions:
REMARK  status: ('A' for Active; 'I' for Inactive)
REMARK    1  A    between atoms: C_4  and  C_11 
REMARK    2  A    between atoms: C_4  and  C_22 
REMARK    3  A    between atoms: C_5  and  C_22 
REMARK    4  A    between atoms: C_7  and  C_9 
REMARK    5  A    between atoms: C_7  and  N_10 
REMARK    6  A    between atoms: C_9  and  C_21 
REMARK    7  A    between atoms: C_11  and  Se_15 
REMARK       I    between atoms: C_18  and  N_19 
REMARK    8  A    between atoms: C_18  and  C_23 
REMARK    9  A    between atoms: N_19  and  C_22 
REMARK   10  A    between atoms: N_20  and  C_23 
REMARK   11  A    between atoms: C_21  and  C_24 
REMARK   12  A    between atoms: C_23  and  C_24 
ROOT
HETATM    1  C           1     -21.572  -4.756  -7.914  0.00  0.00     0.274 C 
ENDROOT
BRANCH   1   2
HETATM    2  C           1     -21.045  -5.231  -6.582  0.00  0.00     0.249 C 
HETATM    3  O           1     -20.417  -4.478  -5.877  0.00  0.00    -0.271 OA
HETATM    4  N           1     -21.279  -6.517  -6.173  0.00  0.00    -0.345 N 
HETATM    5  H           1     -21.805  -7.148  -6.763  0.00  0.00     0.163 HD
BRANCH   4   6
HETATM    6  C           1     -20.773  -6.974  -4.893  0.00  0.00     0.185 C 
BRANCH   6   7
HETATM    7  C           1     -21.905  -6.981  -3.874  0.00  0.00     0.036 C 
BRANCH   7   8
HETATM    8  C           1     -21.488  -6.182  -2.646  0.00  0.00     0.003 C 
BRANCH   8   9
HETATM    9 Se           1     -22.309  -6.955  -1.057  0.00  0.00     0.000 Se
HETATM   10  C           1     -20.861  -8.215  -0.722  0.00  0.00     0.000 C 
ENDBRANCH   8   9
ENDBRANCH   7   8
ENDBRANCH   6   7
BRANCH   6  11
HETATM   11  C           1     -20.221  -8.370  -5.041  0.00  0.00     0.196 C 
HETATM   12  O           1     -20.714  -9.310  -4.381  0.00  0.00    -0.646 OA
HETATM   13  O           1     -19.272  -8.587  -5.824  0.00  0.00    -0.646 OA
ENDBRANCH   6  11
ENDBRANCH   4   6
ENDBRANCH   1   2
BRANCH   1  14
HETATM   14  N           1     -22.765  -3.874  -7.693  0.00  0.00    -0.067 N 
HETATM   15  H           1     -22.979  -3.826  -6.671  0.00  0.00     0.275 HD
HETATM   16  H           1     -22.560  -2.915  -8.051  0.00  0.00     0.275 HD
HETATM   17  H           1     -23.588  -4.269  -8.202  0.00  0.00     0.275 HD
ENDBRANCH   1  14
BRANCH   1  18
HETATM   18  C           1     -20.487  -3.970  -8.638  0.00  0.00     0.042 C 
BRANCH  18  19
HETATM   19  C           1     -20.315  -4.523 -10.047  0.00  0.00     0.004 C 
BRANCH  19  20
HETATM   20  C           1     -21.044  -3.625 -11.038  0.00  0.00     0.027 C 
BRANCH  20  21
HETATM   21  C           1     -22.012  -4.461 -11.865  0.00  0.00     0.229 C 
BRANCH  21  22
HETATM   22  N           1     -23.305  -4.612 -11.121  0.00  0.00    -0.079 N 
HETATM   23  H           1     -24.057  -4.081 -11.617  0.00  0.00     0.274 HD
HETATM   24  H           1     -23.565  -5.624 -11.077  0.00  0.00     0.274 HD
HETATM   25  H           1     -23.196  -4.237 -10.152  0.00  0.00     0.274 HD
ENDBRANCH  21  22
ENDBRANCH  20  21
ENDBRANCH  19  20
ENDBRANCH  18  19
ENDBRANCH   1  18
TORSDOF 12
ENDMDL
MODEL 6
REMARK VINA RESULT:      -5.2     14.740     16.257
REMARK  12 active torsions:
REMARK  status: ('A' for Active; 'I' for Inactive)
REMARK    1  A    between atoms: C_4  and  C_11 
REMARK    2  A    between atoms: C_4  and  C_22 
REMARK    3  A    between atoms: C_5  and  C_22 
REMARK    4  A    between atoms: C_7  and  C_9 
REMARK    5  A    between atoms: C_7  and  N_10 
REMARK    6  A    between atoms: C_9  and  C_21 
REMARK    7  A    between atoms: C_11  and  Se_15 
REMARK       I    between atoms: C_18  and  N_19 
REMARK    8  A    between atoms: C_18  and  C_23 
REMARK    9  A    between atoms: N_19  and  C_22 
REMARK   10  A    between atoms: N_20  and  C_23 
REMARK   11  A    between atoms: C_21  and  C_24 
REMARK   12  A    between atoms: C_23  and  C_24 
ROOT
HETATM    1  C           1     -21.305  -6.642  -2.605  0.00  0.00     0.274 C 
ENDROOT
BRANCH   1   2
HETATM    2  C           1     -21.466  -6.643  -4.105  0.00  0.00     0.249 C 
HETATM    3  O           1     -21.960  -7.596  -4.658  0.00  0.00    -0.271 OA
HETATM    4  N           1     -21.050  -5.565  -4.839  0.00  0.00    -0.345 N 
HETATM    5  H           1     -20.636  -4.766  -4.376  0.00  0.00     0.163 HD
BRANCH   4   6
HETATM    6  C           1     -21.205  -5.565  -6.281  0.00  0.00     0.185 C 
BRANCH   6   7
HETATM    7  C           1     -21.712  -4.203  -6.737  0.00  0.00     0.036 C 
BRANCH   7   8
HETATM    8  C           1     -22.883  -4.392  -7.693  0.00  0.00     0.003 C 
BRANCH   8   9
HETATM    9 Se           1     -22.331  -3.915  -9.500  0.00  0.00     0.000 Se
HETATM   10  C           1     -23.910  -4.670 -10.357  0.00  0.00     0.000 C 
ENDBRANCH   8   9
ENDBRANCH   7   8
ENDBRANCH   6   7
BRANCH   6  11
HETATM   11  C           1     -19.872  -5.849  -6.928  0.00  0.00     0.196 C 
HETATM   12  O           1     -19.392  -7.002  -6.891  0.00  0.00    -0.646 OA
HETATM   13  O           1     -19.248  -4.931  -7.502  0.00  0.00    -0.646 OA
ENDBRANCH   6  11
ENDBRANCH   4   6
ENDBRANCH   1   2
BRANCH   1  14
HETATM   14  N           1     -22.336  -5.740  -1.993  0.00  0.00    -0.067 N 
HETATM   15  H           1     -23.275  -5.960  -2.395  0.00  0.00     0.275 HD
HETATM   16  H           1     -22.358  -5.887  -0.959  0.00  0.00     0.275 HD
HETATM   17  H           1     -22.094  -4.745  -2.200  0.00  0.00     0.275 HD
ENDBRANCH   1  14
BRANCH   1  18
HETATM   18  C           1     -21.488  -8.057  -2.072  0.00  0.00     0.042 C 
BRANCH  18  19
HETATM   19  C           1     -21.649  -8.013  -0.559  0.00  0.00     0.004 C 
BRANCH  19  20
HETATM   20  C           1     -22.703  -9.026  -0.131  0.00  0.00     0.027 C 
BRANCH  20  21
HETATM   21  C           1     -22.058 -10.398   0.020  0.00  0.00     0.229 C 
BRANCH  21  22
HETATM   22  N           1     -20.797 -10.273   0.821  0.00  0.00    -0.079 N 
HETATM   23  H           1     -20.023  -9.938   0.203  0.00  0.00     0.274 HD
HETATM   24  H           1     -20.943  -9.589   1.597  0.00  0.00     0.274 HD
HETATM   25  H           1     -20.544 -11.205   1.220  0.00  0.00     0.274 HD
ENDBRANCH  21  22
ENDBRANCH  20  21
ENDBRANCH  19  20
ENDBRANCH  18  19
ENDBRANCH   1  18
TORSDOF 12
ENDMDL
MODEL 7
REMARK VINA RESULT:      -5.1      6.522      9.300
REMARK  12 active torsions:
REMARK  status: ('A' for Active; 'I' for Inactive)
REMARK    1  A    between atoms: C_4  and  C_11 
REMARK    2  A    between atoms: C_4  and  C_22 
REMARK    3  A    between atoms: C_5  and  C_22 
REMARK    4  A    between atoms: C_7  and  C_9 
REMARK    5  A    between atoms: C_7  and  N_10 
REMARK    6  A    between atoms: C_9  and  C_21 
REMARK    7  A    between atoms: C_11  and  Se_15 
REMARK       I    between atoms: C_18  and  N_19 
REMARK    8  A    between atoms: C_18  and  C_23 
REMARK    9  A    between atoms: N_19  and  C_22 
REMARK   10  A    between atoms: N_20  and  C_23 
REMARK   11  A    between atoms: C_21  and  C_24 
REMARK   12  A    between atoms: C_23  and  C_24 
ROOT
HETATM    1  C           1     -33.753  -4.085 -16.426  0.00  0.00     0.274 C 
ENDROOT
BRANCH   1   2
HETATM    2  C           1     -32.344  -4.381 -16.877  0.00  0.00     0.249 C 
HETATM    3  O           1     -31.659  -3.499 -17.338  0.00  0.00    -0.271 OA
HETATM    4  N           1     -31.841  -5.650 -16.763  0.00  0.00    -0.345 N 
HETATM    5  H           1     -32.414  -6.389 -16.377  0.00  0.00     0.163 HD
BRANCH   4   6
HETATM    6  C           1     -30.486  -5.935 -17.196  0.00  0.00     0.185 C 
BRANCH   6   7
HETATM    7  C           1     -29.540  -5.817 -16.007  0.00  0.00     0.036 C 
BRANCH   7   8
HETATM    8  C           1     -28.388  -4.888 -16.366  0.00  0.00     0.003 C 
BRANCH   8   9
HETATM    9 Se           1     -27.038  -5.879 -17.363  0.00  0.00     0.000 Se
HETATM   10  C           1     -26.348  -6.826 -15.805  0.00  0.00     0.000 C 
ENDBRANCH   8   9
ENDBRANCH   7   8
ENDBRANCH   6   7
BRANCH   6  11
HETATM   11  C           1     -30.422  -7.335 -17.754  0.00  0.00     0.196 C 
HETATM   12  O           1     -31.109  -7.642 -18.751  0.00  0.00    -0.646 OA
HETATM   13  O           1     -29.680  -8.187 -17.220  0.00  0.00    -0.646 OA
ENDBRANCH   6  11
ENDBRANCH   4   6
ENDBRANCH   1   2
BRANCH   1  14
HETATM   14  N           1     -33.815  -4.112 -14.928  0.00  0.00    -0.067 N 
HETATM   15  H           1     -34.811  -4.184 -14.621  0.00  0.00     0.275 HD
HETATM   16  H           1     -33.281  -4.935 -14.572  0.00  0.00     0.275 HD
HETATM   17  H           1     -33.397  -3.233 -14.547  0.00  0.00     0.275 HD
ENDBRANCH   1  14
BRANCH   1  18
HETATM   18  C           1     -34.168  -2.709 -16.928  0.00  0.00     0.042 C 
BRANCH  18  19
HETATM   19  C           1     -35.151  -2.086 -15.946  0.00  0.00     0.004 C 
BRANCH  19  20
HETATM   20  C           1     -35.795  -0.860 -16.580  0.00  0.00     0.027 C 
BRANCH  20  21
HETATM   21  C           1     -36.267   0.090 -15.486  0.00  0.00     0.229 C 
BRANCH  21  22
HETATM   22  N           1     -36.489   1.454 -16.069  0.00  0.00    -0.079 N 
HETATM   23  H           1     -36.823   1.361 -17.055  0.00  0.00     0.274 HD
HETATM   24  H           1     -37.207   1.961 -15.504  0.00  0.00     0.274 HD
HETATM   25  H           1     -35.591   1.989 -16.055  0.00  0.00     0.274 HD
ENDBRANCH  21  22
ENDBRANCH  20  21
ENDBRANCH  19  20
ENDBRANCH  18  19
ENDBRANCH   1  18
TORSDOF 12
ENDMDL
MODEL 8
REMARK VINA RESULT:      -5.0     15.844     17.758
REMARK  12 active torsions:
REMARK  status: ('A' for Active; 'I' for Inactive)
REMARK    1  A    between atoms: C_4  and  C_11 
REMARK    2  A    between atoms: C_4  and  C_22 
REMARK    3  A    between atoms: C_5  and  C_22 
REMARK    4  A    between atoms: C_7  and  C_9 
REMARK    5  A    between atoms: C_7  and  N_10 
REMARK    6  A    between atoms: C_9  and  C_21 
REMARK    7  A    between atoms: C_11  and  Se_15 
REMARK       I    between atoms: C_18  and  N_19 
REMARK    8  A    between atoms: C_18  and  C_23 
REMARK    9  A    between atoms: N_19  and  C_22 
REMARK   10  A    between atoms: N_20  and  C_23 
REMARK   11  A    between atoms: C_21  and  C_24 
REMARK   12  A    between atoms: C_23  and  C_24 
ROOT
HETATM    1  C           1     -19.990  -7.837  -4.969  0.00  0.00     0.274 C 
ENDROOT
BRANCH   1   2
HETATM    2  C           1     -20.914  -8.266  -3.855  0.00  0.00     0.249 C 
HETATM    3  O           1     -21.846  -8.997  -4.092  0.00  0.00    -0.271 OA
HETATM    4  N           1     -20.695  -7.827  -2.577  0.00  0.00    -0.345 N 
HETATM    5  H           1     -19.914  -7.215  -2.378  0.00  0.00     0.163 HD
BRANCH   4   6
HETATM    6  C           1     -21.582  -8.240  -1.506  0.00  0.00     0.185 C 
BRANCH   6   7
HETATM    7  C           1     -20.755  -8.686  -0.307  0.00  0.00     0.036 C 
BRANCH   7   8
HETATM    8  C           1     -21.317  -9.992   0.239  0.00  0.00     0.003 C 
BRANCH   8   9
HETATM    9 Se           1     -22.303 -10.915  -1.166  0.00  0.00     0.000 Se
HETATM   10  C           1     -24.000 -10.903  -0.209  0.00  0.00     0.000 C 
ENDBRANCH   8   9
ENDBRANCH   7   8
ENDBRANCH   6   7
BRANCH   6  11
HETATM   11  C           1     -22.462  -7.081  -1.108  0.00  0.00     0.196 C 
HETATM   12  O           1     -23.138  -7.142  -0.059  0.00  0.00    -0.646 OA
HETATM   13  O           1     -22.513  -6.060  -1.826  0.00  0.00    -0.646 OA
ENDBRANCH   6  11
ENDBRANCH   4   6
ENDBRANCH   1   2
BRANCH   1  14
HETATM   14  N           1     -19.475  -9.049  -5.686  0.00  0.00    -0.067 N 
HETATM   15  H           1     -20.191  -9.809  -5.644  0.00  0.00     0.275 HD
HETATM   16  H           1     -19.283  -8.807  -6.684  0.00  0.00     0.275 HD
HETATM   17  H           1     -18.594  -9.375  -5.229  0.00  0.00     0.275 HD
ENDBRANCH   1  14
BRANCH   1  18
HETATM   18  C           1     -20.751  -6.952  -5.947  0.00  0.00     0.042 C 
BRANCH  18  19
HETATM   19  C           1     -20.964  -5.577  -5.329  0.00  0.00     0.004 C 
BRANCH  19  20
HETATM   20  C           1     -20.186  -4.536  -6.124  0.00  0.00     0.027 C 
BRANCH  20  21
HETATM   21  C           1     -20.795  -4.397  -7.513  0.00  0.00     0.229 C 
BRANCH  21  22
HETATM   22  N           1     -21.973  -3.470  -7.453  0.00  0.00    -0.079 N 
HETATM   23  H           1     -22.105  -3.138  -6.471  0.00  0.00     0.274 HD
HETATM   24  H           1     -21.803  -2.650  -8.078  0.00  0.00     0.274 HD
HETATM   25  H           1     -22.831  -3.977  -7.767  0.00  0.00     0.274 HD
ENDBRANCH  21  22
ENDBRANCH  20  21
ENDBRANCH  19  20
ENDBRANCH  18  19
ENDBRANCH   1  18
TORSDOF 12
ENDMDL
MODEL 9
REMARK VINA RESULT:      -5.0     14.756     16.972
REMARK  12 active torsions:
REMARK  status: ('A' for Active; 'I' for Inactive)
REMARK    1  A    between atoms: C_4  and  C_11 
REMARK    2  A    between atoms: C_4  and  C_22 
REMARK    3  A    between atoms: C_5  and  C_22 
REMARK    4  A    between atoms: C_7  and  C_9 
REMARK    5  A    between atoms: C_7  and  N_10 
REMARK    6  A    between atoms: C_9  and  C_21 
REMARK    7  A    between atoms: C_11  and  Se_15 
REMARK       I    between atoms: C_18  and  N_19 
REMARK    8  A    between atoms: C_18  and  C_23 
REMARK    9  A    between atoms: N_19  and  C_22 
REMARK   10  A    between atoms: N_20  and  C_23 
REMARK   11  A    between atoms: C_21  and  C_24 
REMARK   12  A    between atoms: C_23  and  C_24 
ROOT
HETATM    1  C           1     -21.602  -6.136  -6.087  0.00  0.00     0.274 C 
ENDROOT
BRANCH   1   2
HETATM    2  C           1     -20.867  -7.354  -5.583  0.00  0.00     0.249 C 
HETATM    3  O           1     -19.715  -7.537  -5.896  0.00  0.00    -0.271 OA
HETATM    4  N           1     -21.506  -8.251  -4.770  0.00  0.00    -0.345 N 
HETATM    5  H           1     -22.471  -8.098  -4.506  0.00  0.00     0.163 HD
BRANCH   4   6
HETATM    6  C           1     -20.800  -9.421  -4.284  0.00  0.00     0.185 C 
BRANCH   6   7
HETATM    7  C           1     -21.116  -9.628  -2.809  0.00  0.00     0.036 C 
BRANCH   7   8
HETATM    8  C           1     -20.507  -8.493  -1.996  0.00  0.00     0.003 C 
BRANCH   8   9
HETATM    9 Se           1     -21.919  -7.535  -1.055  0.00  0.00     0.000 Se
HETATM   10  C           1     -21.563  -8.370   0.669  0.00  0.00     0.000 C 
ENDBRANCH   8   9
ENDBRANCH   7   8
ENDBRANCH   6   7
BRANCH   6  11
HETATM   11  C           1     -21.240 -10.634  -5.068  0.00  0.00     0.196 C 
HETATM   12  O           1     -21.019 -10.697  -6.296  0.00  0.00    -0.646 OA
HETATM   13  O           1     -21.824 -11.574  -4.489  0.00  0.00    -0.646 OA
ENDBRANCH   6  11
ENDBRANCH   4   6
ENDBRANCH   1   2
BRANCH   1  14
HETATM   14  N           1     -22.815  -5.897  -5.237  0.00  0.00    -0.067 N 
HETATM   15  H           1     -22.686  -5.018  -4.685  0.00  0.00     0.275 HD
HETATM   16  H           1     -23.656  -5.803  -5.849  0.00  0.00     0.275 HD
HETATM   17  H           1     -22.946  -6.702  -4.583  0.00  0.00     0.275 HD
ENDBRANCH   1  14
BRANCH   1  18
HETATM   18  C           1     -20.685  -4.923  -6.015  0.00  0.00     0.042 C 
BRANCH  18  19
HETATM   19  C           1     -21.188  -3.849  -6.971  0.00  0.00     0.004 C 
BRANCH  19  20
HETATM   20  C           1     -21.342  -4.441  -8.365  0.00  0.00     0.027 C 
BRANCH  20  21
HETATM   21  C           1     -22.602  -3.885  -9.017  0.00  0.00     0.229 C 
BRANCH  21  22
HETATM   22  N           1     -23.749  -3.982  -8.056  0.00  0.00    -0.079 N 
HETATM   23  H           1     -23.468  -3.575  -7.135  0.00  0.00     0.274 HD
HETATM   24  H           1     -24.567  -3.455  -8.435  0.00  0.00     0.274 HD
HETATM   25  H           1     -24.010  -4.986  -7.927  0.00  0.00     0.274 HD
ENDBRANCH  21  22
ENDBRANCH  20  21
ENDBRANCH  19  20
ENDBRANCH  18  19
ENDBRANCH   1  18
TORSDOF 12
ENDMDL
