MODEL 1
REMARK VINA RESULT:      -5.9      0.000      0.000
REMARK  9 active torsions:
REMARK  status: ('A' for Active; 'I' for Inactive)
REMARK    1  A    between atoms: N_5  and  C_19 
REMARK    2  A    between atoms: C_7  and  C_9 
REMARK    3  A    between atoms: C_7  and  C_8 
REMARK    4  A    between atoms: C_7  and  N_21 
REMARK    5  A    between atoms: C_9  and  S_17 
REMARK    6  A    between atoms: C_15  and  C_16 
REMARK    7  A    between atoms: C_16  and  C_18 
REMARK    8  A    between atoms: C_18  and  C_19 
REMARK    9  A    between atoms: C_19  and  C_20 
REMARK       I    between atoms: C_20  and  N_21 
ROOT
HETATM    1  H           1     -22.198  -5.664  -9.522  0.00  0.00     0.163 HD
HETATM    2  O           1     -21.892  -3.587  -7.192  0.00  0.00    -0.271 OA
HETATM    3  C           1     -21.819  -4.652  -7.758  0.00  0.00     0.249 C 
HETATM    4  N           1     -22.258  -4.772  -9.048  0.00  0.00    -0.344 N 
ENDROOT
BRANCH   3   5
HETATM    5  C           1     -21.244  -5.849  -7.041  0.00  0.00     0.275 C 
BRANCH   5   6
HETATM    6  N           1     -19.844  -6.092  -7.520  0.00  0.00    -0.066 N 
HETATM    7  H           1     -19.296  -5.205  -7.461  0.00  0.00     0.275 HD
HETATM    8  H           1     -19.392  -6.822  -6.924  0.00  0.00     0.275 HD
HETATM    9  H           1     -19.869  -6.421  -8.512  0.00  0.00     0.275 HD
ENDBRANCH   5   6
BRANCH   5  10
HETATM   10  C           1     -21.227  -5.583  -5.542  0.00  0.00     0.053 C 
BRANCH  10  11
HETATM   11  C           1     -22.131  -6.585  -4.837  0.00  0.00     0.115 C 
BRANCH  11  12
HETATM   12  C           1     -21.790  -6.626  -3.368  0.00  0.00     0.172 C 
HETATM   13  O           1     -22.435  -5.927  -2.556  0.00  0.00    -0.648 OA
HETATM   14  O           1     -20.862  -7.360  -2.962  0.00  0.00    -0.648 OA
ENDBRANCH  11  12
ENDBRANCH  10  11
ENDBRANCH   5  10
ENDBRANCH   3   5
BRANCH   4  15
HETATM   15  C           1     -22.811  -3.622  -9.737  0.00  0.00     0.194 C 
BRANCH  15  16
HETATM   16  C           1     -21.978  -3.325 -10.978  0.00  0.00     0.106 C 
BRANCH  16  17
HETATM   17  S           1     -20.447  -4.298 -10.928  0.00  0.00    -0.180 SA
HETATM   18  H           1     -21.020  -5.438 -10.504  0.00  0.00     0.101 HD
ENDBRANCH  16  17
ENDBRANCH  15  16
BRANCH  15  19
HETATM   19  C           1     -24.234  -3.917 -10.144  0.00  0.00     0.197 C 
HETATM   20  O           1     -24.881  -3.078 -10.806  0.00  0.00    -0.646 OA
HETATM   21  O           1     -24.766  -5.001  -9.819  0.00  0.00    -0.646 OA
ENDBRANCH  15  19
ENDBRANCH   4  15
TORSDOF 9
ENDMDL
MODEL 2
REMARK VINA RESULT:      -5.7     10.391     12.605
REMARK  9 active torsions:
REMARK  status: ('A' for Active; 'I' for Inactive)
REMARK    1  A    between atoms: N_5  and  C_19 
REMARK    2  A    between atoms: C_7  and  C_9 
REMARK    3  A    between atoms: C_7  and  C_8 
REMARK    4  A    between atoms: C_7  and  N_21 
REMARK    5  A    between atoms: C_9  and  S_17 
REMARK    6  A    between atoms: C_15  and  C_16 
REMARK    7  A    between atoms: C_16  and  C_18 
REMARK    8  A    between atoms: C_18  and  C_19 
REMARK    9  A    between atoms: C_19  and  C_20 
REMARK       I    between atoms: C_20  and  N_21 
ROOT
HETATM    1  H           1     -27.494  -6.240 -18.058  0.00  0.00     0.163 HD
HETATM    2  O           1     -26.278  -7.327 -15.379  0.00  0.00    -0.271 OA
HETATM    3  C           1     -26.292  -6.911 -16.514  0.00  0.00     0.249 C 
HETATM    4  N           1     -27.482  -6.588 -17.108  0.00  0.00    -0.344 N 
ENDROOT
BRANCH   3   5
HETATM    5  C           1     -24.999  -6.749 -17.274  0.00  0.00     0.275 C 
BRANCH   5   6
HETATM    6  N           1     -24.058  -7.856 -16.899  0.00  0.00    -0.066 N 
HETATM    7  H           1     -23.075  -7.554 -17.083  0.00  0.00     0.275 HD
HETATM    8  H           1     -24.171  -8.079 -15.884  0.00  0.00     0.275 HD
HETATM    9  H           1     -24.276  -8.705 -17.469  0.00  0.00     0.275 HD
ENDBRANCH   5   6
BRANCH   5  10
HETATM   10  C           1     -25.279  -6.807 -18.770  0.00  0.00     0.053 C 
BRANCH  10  11
HETATM   11  C           1     -24.084  -7.420 -19.487  0.00  0.00     0.115 C 
BRANCH  11  12
HETATM   12  C           1     -24.517  -7.933 -20.839  0.00  0.00     0.172 C 
HETATM   13  O           1     -23.669  -8.118 -21.738  0.00  0.00    -0.648 OA
HETATM   14  O           1     -25.725  -8.173 -21.058  0.00  0.00    -0.648 OA
ENDBRANCH  11  12
ENDBRANCH  10  11
ENDBRANCH   5  10
ENDBRANCH   3   5
BRANCH   4  15
HETATM   15  C           1     -28.724  -6.743 -16.377  0.00  0.00     0.194 C 
BRANCH  15  16
HETATM   16  C           1     -29.172  -5.388 -15.842  0.00  0.00     0.106 C 
BRANCH  16  17
HETATM   17  S           1     -28.646  -4.081 -16.986  0.00  0.00    -0.180 SA
HETATM   18  H           1     -29.045  -4.707 -18.107  0.00  0.00     0.101 HD
ENDBRANCH  16  17
ENDBRANCH  15  16
BRANCH  15  19
HETATM   19  C           1     -29.784  -7.294 -17.299  0.00  0.00     0.197 C 
HETATM   20  O           1     -29.492  -8.189 -18.122  0.00  0.00    -0.646 OA
HETATM   21  O           1     -30.953  -6.856 -17.242  0.00  0.00    -0.646 OA
ENDBRANCH  15  19
ENDBRANCH   4  15
TORSDOF 9
ENDMDL
MODEL 3
REMARK VINA RESULT:      -5.7     12.365     13.562
REMARK  9 active torsions:
REMARK  status: ('A' for Active; 'I' for Inactive)
REMARK    1  A    between atoms: N_5  and  C_19 
REMARK    2  A    between atoms: C_7  and  C_9 
REMARK    3  A    between atoms: C_7  and  C_8 
REMARK    4  A    between atoms: C_7  and  N_21 
REMARK    5  A    between atoms: C_9  and  S_17 
REMARK    6  A    between atoms: C_15  and  C_16 
REMARK    7  A    between atoms: C_16  and  C_18 
REMARK    8  A    between atoms: C_18  and  C_19 
REMARK    9  A    between atoms: C_19  and  C_20 
REMARK       I    between atoms: C_20  and  N_21 
ROOT
HETATM    1  H           1     -26.788  -7.761 -18.573  0.00  0.00     0.163 HD
HETATM    2  O           1     -28.489  -5.280 -19.462  0.00  0.00    -0.271 OA
HETATM    3  C           1     -28.113  -6.182 -18.751  0.00  0.00     0.249 C 
HETATM    4  N           1     -27.102  -7.005 -19.168  0.00  0.00    -0.344 N 
ENDROOT
BRANCH   3   5
HETATM    5  C           1     -28.760  -6.401 -17.406  0.00  0.00     0.275 C 
BRANCH   5   6
HETATM    6  N           1     -27.757  -6.993 -16.461  0.00  0.00    -0.066 N 
HETATM    7  H           1     -27.452  -7.927 -16.817  0.00  0.00     0.275 HD
HETATM    8  H           1     -26.928  -6.360 -16.390  0.00  0.00     0.275 HD
HETATM    9  H           1     -28.192  -7.104 -15.517  0.00  0.00     0.275 HD
ENDBRANCH   5   6
BRANCH   5  10
HETATM   10  C           1     -29.249  -5.068 -16.855  0.00  0.00     0.053 C 
BRANCH  10  11
HETATM   11  C           1     -30.748  -4.941 -17.090  0.00  0.00     0.115 C 
BRANCH  11  12
HETATM   12  C           1     -31.085  -3.509 -17.429  0.00  0.00     0.172 C 
HETATM   13  O           1     -32.245  -3.207 -17.782  0.00  0.00    -0.648 OA
HETATM   14  O           1     -30.202  -2.626 -17.357  0.00  0.00    -0.648 OA
ENDBRANCH  11  12
ENDBRANCH  10  11
ENDBRANCH   5  10
ENDBRANCH   3   5
BRANCH   4  15
HETATM   15  C           1     -26.481  -6.795 -20.461  0.00  0.00     0.194 C 
BRANCH  15  16
HETATM   16  C           1     -25.040  -6.340 -20.265  0.00  0.00     0.106 C 
BRANCH  16  17
HETATM   17  S           1     -24.391  -7.033 -18.718  0.00  0.00    -0.180 SA
HETATM   18  H           1     -23.226  -7.461 -19.233  0.00  0.00     0.101 HD
ENDBRANCH  16  17
ENDBRANCH  15  16
BRANCH  15  19
HETATM   19  C           1     -26.500  -8.086 -21.242  0.00  0.00     0.197 C 
HETATM   20  O           1     -27.564  -8.730 -21.360  0.00  0.00    -0.646 OA
HETATM   21  O           1     -25.450  -8.512 -21.771  0.00  0.00    -0.646 OA
ENDBRANCH  15  19
ENDBRANCH   4  15
TORSDOF 9
ENDMDL
MODEL 4
REMARK VINA RESULT:      -5.4     12.519     13.614
REMARK  9 active torsions:
REMARK  status: ('A' for Active; 'I' for Inactive)
REMARK    1  A    between atoms: N_5  and  C_19 
REMARK    2  A    between atoms: C_7  and  C_9 
REMARK    3  A    between atoms: C_7  and  C_8 
REMARK    4  A    between atoms: C_7  and  N_21 
REMARK    5  A    between atoms: C_9  and  S_17 
REMARK    6  A    between atoms: C_15  and  C_16 
REMARK    7  A    between atoms: C_16  and  C_18 
REMARK    8  A    between atoms: C_18  and  C_19 
REMARK    9  A    between atoms: C_19  and  C_20 
REMARK       I    between atoms: C_20  and  N_21 
ROOT
HETATM    1  H           1     -28.394  -4.059 -17.551  0.00  0.00     0.163 HD
HETATM    2  O           1     -29.123  -6.853 -18.775  0.00  0.00    -0.271 OA
HETATM    3  C           1     -28.426  -5.919 -18.457  0.00  0.00     0.249 C 
HETATM    4  N           1     -28.977  -4.842 -17.818  0.00  0.00    -0.344 N 
ENDROOT
BRANCH   3   5
HETATM    5  C           1     -26.949  -5.941 -18.764  0.00  0.00     0.275 C 
BRANCH   5   6
HETATM    6  N           1     -26.223  -6.664 -17.669  0.00  0.00    -0.066 N 
HETATM    7  H           1     -25.938  -5.983 -16.930  0.00  0.00     0.275 HD
HETATM    8  H           1     -26.851  -7.388 -17.253  0.00  0.00     0.275 HD
HETATM    9  H           1     -25.372  -7.127 -18.063  0.00  0.00     0.275 HD
ENDBRANCH   5   6
BRANCH   5  10
HETATM   10  C           1     -26.716  -6.658 -20.087  0.00  0.00     0.053 C 
BRANCH  10  11
HETATM   11  C           1     -25.223  -6.722 -20.375  0.00  0.00     0.115 C 
BRANCH  11  12
HETATM   12  C           1     -24.925  -7.930 -21.229  0.00  0.00     0.172 C 
HETATM   13  O           1     -25.863  -8.614 -21.692  0.00  0.00    -0.648 OA
HETATM   14  O           1     -23.740  -8.245 -21.475  0.00  0.00    -0.648 OA
ENDBRANCH  11  12
ENDBRANCH  10  11
ENDBRANCH   5  10
ENDBRANCH   3   5
BRANCH   4  15
HETATM   15  C           1     -30.397  -4.821 -17.522  0.00  0.00     0.194 C 
BRANCH  15  16
HETATM   16  C           1     -30.638  -5.425 -16.145  0.00  0.00     0.106 C 
BRANCH  16  17
HETATM   17  S           1     -29.067  -5.518 -15.240  0.00  0.00    -0.180 SA
HETATM   18  H           1     -29.322  -6.693 -14.639  0.00  0.00     0.101 HD
ENDBRANCH  16  17
ENDBRANCH  15  16
BRANCH  15  19
HETATM   19  C           1     -30.892  -3.395 -17.541  0.00  0.00     0.197 C 
HETATM   20  O           1     -32.093  -3.154 -17.787  0.00  0.00    -0.646 OA
HETATM   21  O           1     -30.101  -2.455 -17.311  0.00  0.00    -0.646 OA
ENDBRANCH  15  19
ENDBRANCH   4  15
TORSDOF 9
ENDMDL
MODEL 5
REMARK VINA RESULT:      -5.4      2.945      6.679
REMARK  9 active torsions:
REMARK  status: ('A' for Active; 'I' for Inactive)
REMARK    1  A    between atoms: N_5  and  C_19 
REMARK    2  A    between atoms: C_7  and  C_9 
REMARK    3  A    between atoms: C_7  and  C_8 
REMARK    4  A    between atoms: C_7  and  N_21 
REMARK    5  A    between atoms: C_9  and  S_17 
REMARK    6  A    between atoms: C_15  and  C_16 
REMARK    7  A    between atoms: C_16  and  C_18 
REMARK    8  A    between atoms: C_18  and  C_19 
REMARK    9  A    between atoms: C_19  and  C_20 
REMARK       I    between atoms: C_20  and  N_21 
ROOT
HETATM    1  H           1     -21.495  -7.254  -7.201  0.00  0.00     0.163 HD
HETATM    2  O           1     -20.728  -4.372  -6.228  0.00  0.00    -0.271 OA
HETATM    3  C           1     -21.140  -5.228  -6.975  0.00  0.00     0.249 C 
HETATM    4  N           1     -21.151  -6.537  -6.575  0.00  0.00    -0.344 N 
ENDROOT
BRANCH   3   5
HETATM    5  C           1     -21.642  -4.853  -8.348  0.00  0.00     0.275 C 
BRANCH   5   6
HETATM    6  N           1     -22.860  -3.988  -8.214  0.00  0.00    -0.066 N 
HETATM    7  H           1     -23.172  -3.977  -7.217  0.00  0.00     0.275 HD
HETATM    8  H           1     -22.632  -3.015  -8.519  0.00  0.00     0.275 HD
HETATM    9  H           1     -23.625  -4.371  -8.815  0.00  0.00     0.275 HD
ENDBRANCH   5   6
BRANCH   5  10
HETATM   10  C           1     -20.557  -4.090  -9.094  0.00  0.00     0.053 C 
BRANCH  10  11
HETATM   11  C           1     -20.562  -4.501 -10.560  0.00  0.00     0.115 C 
BRANCH  11  12
HETATM   12  C           1     -21.666  -3.770 -11.285  0.00  0.00     0.172 C 
HETATM   13  O           1     -21.513  -2.574 -11.613  0.00  0.00    -0.648 OA
HETATM   14  O           1     -22.733  -4.362 -11.558  0.00  0.00    -0.648 OA
ENDBRANCH  11  12
ENDBRANCH  10  11
ENDBRANCH   5  10
ENDBRANCH   3   5
BRANCH   4  15
HETATM   15  C           1     -20.668  -6.897  -5.256  0.00  0.00     0.194 C 
BRANCH  15  16
HETATM   16  C           1     -21.854  -7.121  -4.325  0.00  0.00     0.106 C 
BRANCH  16  17
HETATM   17  S           1     -21.562  -6.262  -2.754  0.00  0.00    -0.180 SA
HETATM   18  H           1     -22.858  -6.046  -2.469  0.00  0.00     0.101 HD
ENDBRANCH  16  17
ENDBRANCH  15  16
BRANCH  15  19
HETATM   19  C           1     -19.854  -8.164  -5.348  0.00  0.00     0.197 C 
HETATM   20  O           1     -18.941  -8.260  -6.196  0.00  0.00    -0.646 OA
HETATM   21  O           1     -20.093  -9.119  -4.578  0.00  0.00    -0.646 OA
ENDBRANCH  15  19
ENDBRANCH   4  15
TORSDOF 9
ENDMDL
MODEL 6
REMARK VINA RESULT:      -5.3      2.411      6.460
REMARK  9 active torsions:
REMARK  status: ('A' for Active; 'I' for Inactive)
REMARK    1  A    between atoms: N_5  and  C_19 
REMARK    2  A    between atoms: C_7  and  C_9 
REMARK    3  A    between atoms: C_7  and  C_8 
REMARK    4  A    between atoms: C_7  and  N_21 
REMARK    5  A    between atoms: C_9  and  S_17 
REMARK    6  A    between atoms: C_15  and  C_16 
REMARK    7  A    between atoms: C_16  and  C_18 
REMARK    8  A    between atoms: C_18  and  C_19 
REMARK    9  A    between atoms: C_19  and  C_20 
REMARK       I    between atoms: C_20  and  N_21 
ROOT
HETATM    1  H           1     -19.904  -6.723  -4.967  0.00  0.00     0.163 HD
HETATM    2  O           1     -22.694  -5.548  -5.789  0.00  0.00    -0.271 OA
HETATM    3  C           1     -21.494  -5.692  -5.797  0.00  0.00     0.249 C 
HETATM    4  N           1     -20.909  -6.603  -4.960  0.00  0.00    -0.344 N 
ENDROOT
BRANCH   3   5
HETATM    5  C           1     -20.642  -4.866  -6.729  0.00  0.00     0.275 C 
BRANCH   5   6
HETATM    6  N           1     -20.007  -5.763  -7.750  0.00  0.00    -0.066 N 
HETATM    7  H           1     -19.806  -6.694  -7.320  0.00  0.00     0.275 HD
HETATM    8  H           1     -20.657  -5.885  -8.559  0.00  0.00     0.275 HD
HETATM    9  H           1     -19.115  -5.332  -8.083  0.00  0.00     0.275 HD
ENDBRANCH   5   6
BRANCH   5  10
HETATM   10  C           1     -21.513  -3.834  -7.432  0.00  0.00     0.053 C 
BRANCH  10  11
HETATM   11  C           1     -21.503  -4.096  -8.932  0.00  0.00     0.115 C 
BRANCH  11  12
HETATM   12  C           1     -22.852  -3.749  -9.514  0.00  0.00     0.172 C 
HETATM   13  O           1     -22.937  -3.330 -10.688  0.00  0.00    -0.648 OA
HETATM   14  O           1     -23.884  -3.882  -8.820  0.00  0.00    -0.648 OA
ENDBRANCH  11  12
ENDBRANCH  10  11
ENDBRANCH   5  10
ENDBRANCH   3   5
BRANCH   4  15
HETATM   15  C           1     -21.727  -7.397  -4.065  0.00  0.00     0.194 C 
BRANCH  15  16
HETATM   16  C           1     -21.236  -8.839  -4.071  0.00  0.00     0.106 C 
BRANCH  16  17
HETATM   17  S           1     -19.616  -8.924  -4.886  0.00  0.00    -0.180 SA
HETATM   18  H           1     -20.079  -9.360  -6.071  0.00  0.00     0.101 HD
ENDBRANCH  16  17
ENDBRANCH  15  16
BRANCH  15  19
HETATM   19  C           1     -21.629  -6.838  -2.667  0.00  0.00     0.197 C 
HETATM   20  O           1     -22.347  -5.873  -2.327  0.00  0.00    -0.646 OA
HETATM   21  O           1     -20.827  -7.337  -1.848  0.00  0.00    -0.646 OA
ENDBRANCH  15  19
ENDBRANCH   4  15
TORSDOF 9
ENDMDL
MODEL 7
REMARK VINA RESULT:      -5.1     10.514     12.715
REMARK  9 active torsions:
REMARK  status: ('A' for Active; 'I' for Inactive)
REMARK    1  A    between atoms: N_5  and  C_19 
REMARK    2  A    between atoms: C_7  and  C_9 
REMARK    3  A    between atoms: C_7  and  C_8 
REMARK    4  A    between atoms: C_7  and  N_21 
REMARK    5  A    between atoms: C_9  and  S_17 
REMARK    6  A    between atoms: C_15  and  C_16 
REMARK    7  A    between atoms: C_16  and  C_18 
REMARK    8  A    between atoms: C_18  and  C_19 
REMARK    9  A    between atoms: C_19  and  C_20 
REMARK       I    between atoms: C_20  and  N_21 
ROOT
HETATM    1  H           1     -28.291  -5.122 -17.101  0.00  0.00     0.163 HD
HETATM    2  O           1     -29.426  -7.789 -18.298  0.00  0.00    -0.271 OA
HETATM    3  C           1     -29.444  -6.666 -17.855  0.00  0.00     0.249 C 
HETATM    4  N           1     -28.276  -6.063 -17.473  0.00  0.00    -0.344 N 
ENDROOT
BRANCH   3   5
HETATM    5  C           1     -30.754  -5.929 -17.722  0.00  0.00     0.275 C 
BRANCH   5   6
HETATM    6  N           1     -31.799  -6.862 -17.187  0.00  0.00    -0.066 N 
HETATM    7  H           1     -32.238  -7.384 -17.978  0.00  0.00     0.275 HD
HETATM    8  H           1     -31.356  -7.539 -16.525  0.00  0.00     0.275 HD
HETATM    9  H           1     -32.531  -6.311 -16.683  0.00  0.00     0.275 HD
ENDBRANCH   5   6
BRANCH   5  10
HETATM   10  C           1     -30.582  -4.757 -16.765  0.00  0.00     0.053 C 
BRANCH  10  11
HETATM   11  C           1     -30.587  -3.453 -17.551  0.00  0.00     0.115 C 
BRANCH  11  12
HETATM   12  C           1     -29.334  -2.672 -17.239  0.00  0.00     0.172 C 
HETATM   13  O           1     -28.271  -3.274 -16.976  0.00  0.00    -0.648 OA
HETATM   14  O           1     -29.360  -1.421 -17.244  0.00  0.00    -0.648 OA
ENDBRANCH  11  12
ENDBRANCH  10  11
ENDBRANCH   5  10
ENDBRANCH   3   5
BRANCH   4  15
HETATM   15  C           1     -27.017  -6.771 -17.601  0.00  0.00     0.194 C 
BRANCH  15  16
HETATM   16  C           1     -26.251  -6.232 -18.802  0.00  0.00     0.106 C 
BRANCH  16  17
HETATM   17  S           1     -24.663  -7.098 -18.947  0.00  0.00    -0.180 SA
HETATM   18  H           1     -24.287  -6.915 -17.669  0.00  0.00     0.101 HD
ENDBRANCH  16  17
ENDBRANCH  15  16
BRANCH  15  19
HETATM   19  C           1     -26.199  -6.569 -16.350  0.00  0.00     0.197 C 
HETATM   20  O           1     -25.579  -5.498 -16.174  0.00  0.00    -0.646 OA
HETATM   21  O           1     -26.139  -7.473 -15.488  0.00  0.00    -0.646 OA
ENDBRANCH  15  19
ENDBRANCH   4  15
TORSDOF 9
ENDMDL
MODEL 8
REMARK VINA RESULT:      -4.9      3.230      4.472
REMARK  9 active torsions:
REMARK  status: ('A' for Active; 'I' for Inactive)
REMARK    1  A    between atoms: N_5  and  C_19 
REMARK    2  A    between atoms: C_7  and  C_9 
REMARK    3  A    between atoms: C_7  and  C_8 
REMARK    4  A    between atoms: C_7  and  N_21 
REMARK    5  A    between atoms: C_9  and  S_17 
REMARK    6  A    between atoms: C_15  and  C_16 
REMARK    7  A    between atoms: C_16  and  C_18 
REMARK    8  A    between atoms: C_18  and  C_19 
REMARK    9  A    between atoms: C_19  and  C_20 
REMARK       I    between atoms: C_20  and  N_21 
ROOT
HETATM    1  H           1     -20.534  -4.543  -4.831  0.00  0.00     0.163 HD
HETATM    2  O           1     -22.159  -7.225  -4.887  0.00  0.00    -0.271 OA
HETATM    3  C           1     -21.528  -6.309  -4.415  0.00  0.00     0.249 C 
HETATM    4  N           1     -21.064  -5.310  -5.226  0.00  0.00    -0.344 N 
ENDROOT
BRANCH   3   5
HETATM    5  C           1     -21.252  -6.269  -2.932  0.00  0.00     0.275 C 
BRANCH   5   6
HETATM    6  N           1     -22.490  -5.836  -2.205  0.00  0.00    -0.066 N 
HETATM    7  H           1     -22.261  -5.656  -1.202  0.00  0.00     0.275 HD
HETATM    8  H           1     -22.862  -4.962  -2.641  0.00  0.00     0.275 HD
HETATM    9  H           1     -23.211  -6.591  -2.268  0.00  0.00     0.275 HD
ENDBRANCH   5   6
BRANCH   5  10
HETATM   10  C           1     -20.842  -7.656  -2.454  0.00  0.00     0.053 C 
BRANCH  10  11
HETATM   11  C           1     -21.433  -7.914  -1.075  0.00  0.00     0.115 C 
BRANCH  11  12
HETATM   12  C           1     -22.196  -9.216  -1.089  0.00  0.00     0.172 C 
HETATM   13  O           1     -22.880  -9.550  -0.098  0.00  0.00    -0.648 OA
HETATM   14  O           1     -22.145  -9.959  -2.094  0.00  0.00    -0.648 OA
ENDBRANCH  11  12
ENDBRANCH  10  11
ENDBRANCH   5  10
ENDBRANCH   3   5
BRANCH   4  15
HETATM   15  C           1     -21.329  -5.348  -6.651  0.00  0.00     0.194 C 
BRANCH  15  16
HETATM   16  C           1     -21.814  -3.980  -7.114  0.00  0.00     0.106 C 
BRANCH  16  17
HETATM   17  S           1     -23.061  -4.188  -8.417  0.00  0.00    -0.180 SA
HETATM   18  H           1     -23.870  -3.201  -7.994  0.00  0.00     0.101 HD
ENDBRANCH  16  17
ENDBRANCH  15  16
BRANCH  15  19
HETATM   19  C           1     -20.063  -5.710  -7.387  0.00  0.00     0.197 C 
HETATM   20  O           1     -19.597  -4.934  -8.248  0.00  0.00    -0.646 OA
HETATM   21  O           1     -19.480  -6.788  -7.138  0.00  0.00    -0.646 OA
ENDBRANCH  15  19
ENDBRANCH   4  15
TORSDOF 9
ENDMDL
MODEL 9
REMARK VINA RESULT:      -4.8     11.152     13.119
REMARK  9 active torsions:
REMARK  status: ('A' for Active; 'I' for Inactive)
REMARK    1  A    between atoms: N_5  and  C_19 
REMARK    2  A    between atoms: C_7  and  C_9 
REMARK    3  A    between atoms: C_7  and  C_8 
REMARK    4  A    between atoms: C_7  and  N_21 
REMARK    5  A    between atoms: C_9  and  S_17 
REMARK    6  A    between atoms: C_15  and  C_16 
REMARK    7  A    between atoms: C_16  and  C_18 
REMARK    8  A    between atoms: C_18  and  C_19 
REMARK    9  A    between atoms: C_19  and  C_20 
REMARK       I    between atoms: C_20  and  N_21 
ROOT
HETATM    1  H           1     -27.709  -7.881 -17.759  0.00  0.00     0.163 HD
HETATM    2  O           1     -28.830  -5.113 -18.717  0.00  0.00    -0.271 OA
HETATM    3  C           1     -28.841  -6.289 -18.439  0.00  0.00     0.249 C 
HETATM    4  N           1     -27.700  -6.897 -17.991  0.00  0.00    -0.344 N 
ENDROOT
BRANCH   3   5
HETATM    5  C           1     -30.114  -7.086 -18.585  0.00  0.00     0.275 C 
BRANCH   5   6
HETATM    6  N           1     -29.775  -8.515 -18.893  0.00  0.00    -0.066 N 
HETATM    7  H           1     -29.424  -8.984 -18.028  0.00  0.00     0.275 HD
HETATM    8  H           1     -30.629  -9.009 -19.237  0.00  0.00     0.275 HD
HETATM    9  H           1     -29.035  -8.544 -19.631  0.00  0.00     0.275 HD
ENDBRANCH   5   6
BRANCH   5  10
HETATM   10  C           1     -30.906  -7.022 -17.287  0.00  0.00     0.053 C 
BRANCH  10  11
HETATM   11  C           1     -32.079  -6.066 -17.453  0.00  0.00     0.115 C 
BRANCH  11  12
HETATM   12  C           1     -31.755  -4.750 -16.788  0.00  0.00     0.172 C 
HETATM   13  O           1     -32.456  -3.742 -17.021  0.00  0.00    -0.648 OA
HETATM   14  O           1     -30.784  -4.670 -16.003  0.00  0.00    -0.648 OA
ENDBRANCH  11  12
ENDBRANCH  10  11
ENDBRANCH   5  10
ENDBRANCH   3   5
BRANCH   4  15
HETATM   15  C           1     -26.477  -6.130 -17.850  0.00  0.00     0.194 C 
BRANCH  15  16
HETATM   16  C           1     -25.965  -6.250 -16.421  0.00  0.00     0.106 C 
BRANCH  16  17
HETATM   17  S           1     -27.209  -7.087 -15.398  0.00  0.00    -0.180 SA
HETATM   18  H           1     -28.043  -6.037 -15.306  0.00  0.00     0.101 HD
ENDBRANCH  16  17
ENDBRANCH  15  16
BRANCH  15  19
HETATM   19  C           1     -25.437  -6.665 -18.804  0.00  0.00     0.197 C 
HETATM   20  O           1     -24.273  -6.879 -18.404  0.00  0.00    -0.646 OA
HETATM   21  O           1     -25.739  -6.894 -19.996  0.00  0.00    -0.646 OA
ENDBRANCH  15  19
ENDBRANCH   4  15
TORSDOF 9
ENDMDL
