MODEL 1
REMARK VINA RESULT:      -5.8      0.000      0.000
REMARK  6 active torsions:
REMARK  status: ('A' for Active; 'I' for Inactive)
REMARK       I    between atoms: C_6  and  N_9 
REMARK    1  A    between atoms: C_6  and  C_10 
REMARK       I    between atoms: C_7  and  N_8 
REMARK    2  A    between atoms: C_7  and  C_15 
REMARK    3  A    between atoms: N_9  and  C_14 
REMARK    4  A    between atoms: C_10  and  N_16 
REMARK    5  A    between atoms: C_14  and  C_15 
REMARK    6  A    between atoms: C_14  and  C_18 
ROOT
HETATM    1  C           1     -28.789  -5.972 -17.448  0.00  0.00     0.194 C 
ENDROOT
BRANCH   1   2
HETATM    2  N           1     -27.553  -6.528 -17.961  0.00  0.00    -0.345 N 
HETATM    3  H           1     -27.566  -7.113 -18.787  0.00  0.00     0.163 HD
HETATM    4  C           1     -26.369  -6.265 -17.328  0.00  0.00     0.243 C 
HETATM    5  O           1     -26.354  -5.568 -16.342  0.00  0.00    -0.272 OA
BRANCH   4   6
HETATM    6  C           1     -25.082  -6.845 -17.862  0.00  0.00     0.332 C 
BRANCH   6   7
HETATM    7  N           1     -24.317  -7.483 -16.740  0.00  0.00    -0.071 N 
HETATM    8  H           1     -23.328  -7.144 -16.756  0.00  0.00     0.274 HD
HETATM    9  H           1     -24.758  -7.228 -15.828  0.00  0.00     0.274 HD
HETATM   10  H           1     -24.329  -8.521 -16.855  0.00  0.00     0.274 HD
ENDBRANCH   6   7
ENDBRANCH   4   6
ENDBRANCH   1   2
BRANCH   1  11
HETATM   11  C           1     -29.300  -4.903 -18.405  0.00  0.00     0.138 C 
BRANCH  11  12
HETATM   12  C           1     -29.495  -3.608 -17.656  0.00  0.00     0.217 C 
HETATM   13  O           1     -28.564  -3.099 -17.078  0.00  0.00    -0.274 OA
HETATM   14  N           1     -30.726  -3.008 -17.632  0.00  0.00    -0.370 N 
HETATM   15  H           1     -31.505  -3.434 -18.116  0.00  0.00     0.159 HD
HETATM   16  H           1     -30.855  -2.140 -17.130  0.00  0.00     0.159 HD
ENDBRANCH  11  12
ENDBRANCH   1  11
BRANCH   1  17
HETATM   17  C           1     -29.819  -7.067 -17.320  0.00  0.00     0.197 C 
HETATM   18  O           1     -31.037  -6.786 -17.343  0.00  0.00    -0.646 OA
HETATM   19  O           1     -29.454  -8.257 -17.192  0.00  0.00    -0.646 OA
ENDBRANCH   1  17
TORSDOF 6
ENDMDL
MODEL 2
REMARK VINA RESULT:      -5.7      9.812     11.427
REMARK  6 active torsions:
REMARK  status: ('A' for Active; 'I' for Inactive)
REMARK       I    between atoms: C_6  and  N_9 
REMARK    1  A    between atoms: C_6  and  C_10 
REMARK       I    between atoms: C_7  and  N_8 
REMARK    2  A    between atoms: C_7  and  C_15 
REMARK    3  A    between atoms: N_9  and  C_14 
REMARK    4  A    between atoms: C_10  and  N_16 
REMARK    5  A    between atoms: C_14  and  C_15 
REMARK    6  A    between atoms: C_14  and  C_18 
ROOT
HETATM    1  C           1     -35.595  -0.332 -12.637  0.00  0.00     0.194 C 
ENDROOT
BRANCH   1   2
HETATM    2  N           1     -36.034   0.274 -11.395  0.00  0.00    -0.345 N 
HETATM    3  H           1     -35.415   0.894 -10.889  0.00  0.00     0.163 HD
HETATM    4  C           1     -37.284   0.006 -10.907  0.00  0.00     0.243 C 
HETATM    5  O           1     -38.022  -0.735 -11.512  0.00  0.00    -0.272 OA
BRANCH   4   6
HETATM    6  C           1     -37.739   0.636  -9.614  0.00  0.00     0.332 C 
BRANCH   6   7
HETATM    7  N           1     -36.592   1.365  -8.980  0.00  0.00    -0.071 N 
HETATM    8  H           1     -36.325   2.181  -9.577  0.00  0.00     0.274 HD
HETATM    9  H           1     -36.875   1.703  -8.033  0.00  0.00     0.274 HD
HETATM   10  H           1     -35.775   0.720  -8.890  0.00  0.00     0.274 HD
ENDBRANCH   6   7
ENDBRANCH   4   6
ENDBRANCH   1   2
BRANCH   1  11
HETATM   11  C           1     -34.784   0.680 -13.437  0.00  0.00     0.138 C 
BRANCH  11  12
HETATM   12  C           1     -35.216   0.643 -14.882  0.00  0.00     0.217 C 
HETATM   13  O           1     -34.946  -0.313 -15.569  0.00  0.00    -0.274 OA
HETATM   14  N           1     -35.915   1.693 -15.415  0.00  0.00    -0.370 N 
HETATM   15  H           1     -36.142   2.494 -14.839  0.00  0.00     0.159 HD
HETATM   16  H           1     -36.205   1.668 -16.384  0.00  0.00     0.159 HD
ENDBRANCH  11  12
ENDBRANCH   1  11
BRANCH   1  17
HETATM   17  C           1     -34.739  -1.537 -12.335  0.00  0.00     0.197 C 
HETATM   18  O           1     -34.075  -1.582 -11.276  0.00  0.00    -0.646 OA
HETATM   19  O           1     -34.695  -2.491 -13.142  0.00  0.00    -0.646 OA
ENDBRANCH   1  17
TORSDOF 6
ENDMDL
MODEL 3
REMARK VINA RESULT:      -5.6      8.578     10.471
REMARK  6 active torsions:
REMARK  status: ('A' for Active; 'I' for Inactive)
REMARK       I    between atoms: C_6  and  N_9 
REMARK    1  A    between atoms: C_6  and  C_10 
REMARK       I    between atoms: C_7  and  N_8 
REMARK    2  A    between atoms: C_7  and  C_15 
REMARK    3  A    between atoms: N_9  and  C_14 
REMARK    4  A    between atoms: C_10  and  N_16 
REMARK    5  A    between atoms: C_14  and  C_15 
REMARK    6  A    between atoms: C_14  and  C_18 
ROOT
HETATM    1  C           1     -34.723  -1.951 -11.642  0.00  0.00     0.194 C 
ENDROOT
BRANCH   1   2
HETATM    2  N           1     -34.487  -0.630 -12.190  0.00  0.00    -0.345 N 
HETATM    3  H           1     -33.899   0.026 -11.693  0.00  0.00     0.163 HD
HETATM    4  C           1     -35.061  -0.269 -13.379  0.00  0.00     0.243 C 
HETATM    5  O           1     -35.763  -1.053 -13.973  0.00  0.00    -0.272 OA
BRANCH   4   6
HETATM    6  C           1     -34.816   1.106 -13.949  0.00  0.00     0.332 C 
BRANCH   6   7
HETATM    7  N           1     -35.784   1.366 -15.066  0.00  0.00    -0.071 N 
HETATM    8  H           1     -35.255   1.570 -15.944  0.00  0.00     0.274 HD
HETATM    9  H           1     -36.385   0.523 -15.208  0.00  0.00     0.274 HD
HETATM   10  H           1     -36.384   2.186 -14.823  0.00  0.00     0.274 HD
ENDBRANCH   6   7
ENDBRANCH   4   6
ENDBRANCH   1   2
BRANCH   1  11
HETATM   11  C           1     -33.455  -2.453 -10.964  0.00  0.00     0.138 C 
BRANCH  11  12
HETATM   12  C           1     -33.329  -3.942 -11.170  0.00  0.00     0.217 C 
HETATM   13  O           1     -33.826  -4.706 -10.376  0.00  0.00    -0.274 OA
HETATM   14  N           1     -32.651  -4.429 -12.255  0.00  0.00    -0.370 N 
HETATM   15  H           1     -32.235  -3.790 -12.920  0.00  0.00     0.159 HD
HETATM   16  H           1     -32.567  -5.428 -12.393  0.00  0.00     0.159 HD
ENDBRANCH  11  12
ENDBRANCH   1  11
BRANCH   1  17
HETATM   17  C           1     -35.842  -1.885 -10.633  0.00  0.00     0.197 C 
HETATM   18  O           1     -36.673  -2.816 -10.558  0.00  0.00    -0.646 OA
HETATM   19  O           1     -35.938  -0.899  -9.869  0.00  0.00    -0.646 OA
ENDBRANCH   1  17
TORSDOF 6
ENDMDL
MODEL 4
REMARK VINA RESULT:      -5.6      8.927     10.573
REMARK  6 active torsions:
REMARK  status: ('A' for Active; 'I' for Inactive)
REMARK       I    between atoms: C_6  and  N_9 
REMARK    1  A    between atoms: C_6  and  C_10 
REMARK       I    between atoms: C_7  and  N_8 
REMARK    2  A    between atoms: C_7  and  C_15 
REMARK    3  A    between atoms: N_9  and  C_14 
REMARK    4  A    between atoms: C_10  and  N_16 
REMARK    5  A    between atoms: C_14  and  C_15 
REMARK    6  A    between atoms: C_14  and  C_18 
ROOT
HETATM    1  C           1     -22.900  -3.702  -9.895  0.00  0.00     0.194 C 
ENDROOT
BRANCH   1   2
HETATM    2  N           1     -22.824  -4.649  -8.799  0.00  0.00    -0.345 N 
HETATM    3  H           1     -23.324  -5.527  -8.855  0.00  0.00     0.163 HD
HETATM    4  C           1     -22.079  -4.354  -7.690  0.00  0.00     0.243 C 
HETATM    5  O           1     -21.483  -3.306  -7.624  0.00  0.00    -0.272 OA
BRANCH   4   6
HETATM    6  C           1     -22.001  -5.340  -6.550  0.00  0.00     0.332 C 
BRANCH   6   7
HETATM    7  N           1     -21.014  -6.418  -6.887  0.00  0.00    -0.071 N 
HETATM    8  H           1     -21.520  -7.238  -7.293  0.00  0.00     0.274 HD
HETATM    9  H           1     -20.325  -6.054  -7.582  0.00  0.00     0.274 HD
HETATM   10  H           1     -20.512  -6.715  -6.020  0.00  0.00     0.274 HD
ENDBRANCH   6   7
ENDBRANCH   4   6
ENDBRANCH   1   2
BRANCH   1  11
HETATM   11  C           1     -22.220  -4.291 -11.123  0.00  0.00     0.138 C 
BRANCH  11  12
HETATM   12  C           1     -20.736  -4.023 -11.056  0.00  0.00     0.217 C 
HETATM   13  O           1     -19.995  -4.846 -10.575  0.00  0.00    -0.274 OA
HETATM   14  N           1     -20.230  -2.846 -11.540  0.00  0.00    -0.370 N 
HETATM   15  H           1     -20.852  -2.156 -11.943  0.00  0.00     0.159 HD
HETATM   16  H           1     -19.236  -2.667 -11.495  0.00  0.00     0.159 HD
ENDBRANCH  11  12
ENDBRANCH   1  11
BRANCH   1  17
HETATM   17  C           1     -24.346  -3.412 -10.210  0.00  0.00     0.197 C 
HETATM   18  O           1     -24.815  -3.715 -11.329  0.00  0.00    -0.646 OA
HETATM   19  O           1     -25.077  -2.869  -9.352  0.00  0.00    -0.646 OA
ENDBRANCH   1  17
TORSDOF 6
ENDMDL
MODEL 5
REMARK VINA RESULT:      -5.4      2.326      3.137
REMARK  6 active torsions:
REMARK  status: ('A' for Active; 'I' for Inactive)
REMARK       I    between atoms: C_6  and  N_9 
REMARK    1  A    between atoms: C_6  and  C_10 
REMARK       I    between atoms: C_7  and  N_8 
REMARK    2  A    between atoms: C_7  and  C_15 
REMARK    3  A    between atoms: N_9  and  C_14 
REMARK    4  A    between atoms: C_10  and  N_16 
REMARK    5  A    between atoms: C_14  and  C_15 
REMARK    6  A    between atoms: C_14  and  C_18 
ROOT
HETATM    1  C           1     -28.786  -6.498 -16.667  0.00  0.00     0.194 C 
ENDROOT
BRANCH   1   2
HETATM    2  N           1     -27.577  -6.860 -15.954  0.00  0.00    -0.345 N 
HETATM    3  H           1     -27.638  -7.302 -15.046  0.00  0.00     0.163 HD
HETATM    4  C           1     -26.352  -6.602 -16.509  0.00  0.00     0.243 C 
HETATM    5  O           1     -26.279  -6.074 -17.593  0.00  0.00    -0.272 OA
BRANCH   4   6
HETATM    6  C           1     -25.094  -6.978 -15.766  0.00  0.00     0.332 C 
BRANCH   6   7
HETATM    7  N           1     -24.198  -7.774 -16.669  0.00  0.00    -0.071 N 
HETATM    8  H           1     -23.454  -8.238 -16.101  0.00  0.00     0.274 HD
HETATM    9  H           1     -24.762  -8.501 -17.166  0.00  0.00     0.274 HD
HETATM   10  H           1     -23.755  -7.139 -17.369  0.00  0.00     0.274 HD
ENDBRANCH   6   7
ENDBRANCH   4   6
ENDBRANCH   1   2
BRANCH   1  11
HETATM   11  C           1     -29.557  -7.759 -17.032  0.00  0.00     0.138 C 
BRANCH  11  12
HETATM   12  C           1     -29.645  -7.880 -18.533  0.00  0.00     0.217 C 
HETATM   13  O           1     -30.683  -8.218 -19.052  0.00  0.00    -0.274 OA
HETATM   14  N           1     -28.551  -7.606 -19.309  0.00  0.00    -0.370 N 
HETATM   15  H           1     -27.682  -7.322 -18.874  0.00  0.00     0.159 HD
HETATM   16  H           1     -28.611  -7.687 -20.315  0.00  0.00     0.159 HD
ENDBRANCH  11  12
ENDBRANCH   1  11
BRANCH   1  17
HETATM   17  C           1     -29.643  -5.620 -15.789  0.00  0.00     0.197 C 
HETATM   18  O           1     -30.558  -4.933 -16.295  0.00  0.00    -0.646 OA
HETATM   19  O           1     -29.441  -5.580 -14.556  0.00  0.00    -0.646 OA
ENDBRANCH   1  17
TORSDOF 6
ENDMDL
MODEL 6
REMARK VINA RESULT:      -5.4      9.041     10.577
REMARK  6 active torsions:
REMARK  status: ('A' for Active; 'I' for Inactive)
REMARK       I    between atoms: C_6  and  N_9 
REMARK    1  A    between atoms: C_6  and  C_10 
REMARK       I    between atoms: C_7  and  N_8 
REMARK    2  A    between atoms: C_7  and  C_15 
REMARK    3  A    between atoms: N_9  and  C_14 
REMARK    4  A    between atoms: C_10  and  N_16 
REMARK    5  A    between atoms: C_14  and  C_15 
REMARK    6  A    between atoms: C_14  and  C_18 
ROOT
HETATM    1  C           1     -22.162  -4.283  -9.933  0.00  0.00     0.194 C 
ENDROOT
BRANCH   1   2
HETATM    2  N           1     -21.241  -4.200  -8.816  0.00  0.00    -0.345 N 
HETATM    3  H           1     -20.271  -3.961  -8.978  0.00  0.00     0.163 HD
HETATM    4  C           1     -21.682  -4.446  -7.545  0.00  0.00     0.243 C 
HETATM    5  O           1     -22.840  -4.731  -7.352  0.00  0.00    -0.272 OA
BRANCH   4   6
HETATM    6  C           1     -20.723  -4.360  -6.383  0.00  0.00     0.332 C 
BRANCH   6   7
HETATM    7  N           1     -19.342  -4.720  -6.846  0.00  0.00    -0.071 N 
HETATM    8  H           1     -19.388  -5.088  -7.823  0.00  0.00     0.274 HD
HETATM    9  H           1     -18.733  -3.871  -6.821  0.00  0.00     0.274 HD
HETATM   10  H           1     -18.943  -5.453  -6.218  0.00  0.00     0.274 HD
ENDBRANCH   6   7
ENDBRANCH   4   6
ENDBRANCH   1   2
BRANCH   1  11
HETATM   11  C           1     -23.152  -3.128  -9.861  0.00  0.00     0.138 C 
BRANCH  11  12
HETATM   12  C           1     -24.541  -3.635 -10.161  0.00  0.00     0.217 C 
HETATM   13  O           1     -25.210  -3.096 -11.011  0.00  0.00    -0.274 OA
HETATM   14  N           1     -25.044  -4.706  -9.472  0.00  0.00    -0.370 N 
HETATM   15  H           1     -24.484  -5.158  -8.761  0.00  0.00     0.159 HD
HETATM   16  H           1     -25.975  -5.046  -9.674  0.00  0.00     0.159 HD
ENDBRANCH  11  12
ENDBRANCH   1  11
BRANCH   1  17
HETATM   17  C           1     -21.392  -4.207 -11.227  0.00  0.00     0.197 C 
HETATM   18  O           1     -20.144  -4.288 -11.219  0.00  0.00    -0.646 OA
HETATM   19  O           1     -22.001  -4.064 -12.310  0.00  0.00    -0.646 OA
ENDBRANCH   1  17
TORSDOF 6
ENDMDL
MODEL 7
REMARK VINA RESULT:      -5.3      2.392      5.330
REMARK  6 active torsions:
REMARK  status: ('A' for Active; 'I' for Inactive)
REMARK       I    between atoms: C_6  and  N_9 
REMARK    1  A    between atoms: C_6  and  C_10 
REMARK       I    between atoms: C_7  and  N_8 
REMARK    2  A    between atoms: C_7  and  C_15 
REMARK    3  A    between atoms: N_9  and  C_14 
REMARK    4  A    between atoms: C_10  and  N_16 
REMARK    5  A    between atoms: C_14  and  C_15 
REMARK    6  A    between atoms: C_14  and  C_18 
ROOT
HETATM    1  C           1     -29.113  -5.441 -17.294  0.00  0.00     0.194 C 
ENDROOT
BRANCH   1   2
HETATM    2  N           1     -30.153  -4.569 -17.802  0.00  0.00    -0.345 N 
HETATM    3  H           1     -30.036  -4.109 -18.696  0.00  0.00     0.163 HD
HETATM    4  C           1     -31.293  -4.365 -17.072  0.00  0.00     0.243 C 
HETATM    5  O           1     -31.432  -4.913 -16.005  0.00  0.00    -0.272 OA
BRANCH   4   6
HETATM    6  C           1     -32.375  -3.456 -17.601  0.00  0.00     0.332 C 
BRANCH   6   7
HETATM    7  N           1     -33.616  -3.622 -16.775  0.00  0.00    -0.071 N 
HETATM    8  H           1     -34.439  -3.255 -17.306  0.00  0.00     0.274 HD
HETATM    9  H           1     -33.761  -4.635 -16.564  0.00  0.00     0.274 HD
HETATM   10  H           1     -33.515  -3.090 -15.882  0.00  0.00     0.274 HD
ENDBRANCH   6   7
ENDBRANCH   4   6
ENDBRANCH   1   2
BRANCH   1  11
HETATM   11  C           1     -28.693  -6.419 -18.383  0.00  0.00     0.138 C 
BRANCH  11  12
HETATM   12  C           1     -29.554  -7.656 -18.310  0.00  0.00     0.217 C 
HETATM   13  O           1     -30.424  -7.737 -17.475  0.00  0.00    -0.274 OA
HETATM   14  N           1     -29.351  -8.686 -19.188  0.00  0.00    -0.370 N 
HETATM   15  H           1     -28.623  -8.618 -19.888  0.00  0.00     0.159 HD
HETATM   16  H           1     -29.929  -9.515 -19.138  0.00  0.00     0.159 HD
ENDBRANCH  11  12
ENDBRANCH   1  11
BRANCH   1  17
HETATM   17  C           1     -27.923  -4.614 -16.874  0.00  0.00     0.197 C 
HETATM   18  O           1     -26.813  -5.161 -16.695  0.00  0.00    -0.646 OA
HETATM   19  O           1     -28.046  -3.381 -16.707  0.00  0.00    -0.646 OA
ENDBRANCH   1  17
TORSDOF 6
ENDMDL
MODEL 8
REMARK VINA RESULT:      -5.2      2.105      3.527
REMARK  6 active torsions:
REMARK  status: ('A' for Active; 'I' for Inactive)
REMARK       I    between atoms: C_6  and  N_9 
REMARK    1  A    between atoms: C_6  and  C_10 
REMARK       I    between atoms: C_7  and  N_8 
REMARK    2  A    between atoms: C_7  and  C_15 
REMARK    3  A    between atoms: N_9  and  C_14 
REMARK    4  A    between atoms: C_10  and  N_16 
REMARK    5  A    between atoms: C_14  and  C_15 
REMARK    6  A    between atoms: C_14  and  C_18 
ROOT
HETATM    1  C           1     -28.267  -5.848 -18.071  0.00  0.00     0.194 C 
ENDROOT
BRANCH   1   2
HETATM    2  N           1     -26.864  -6.210 -18.024  0.00  0.00    -0.345 N 
HETATM    3  H           1     -26.368  -6.199 -17.142  0.00  0.00     0.163 HD
HETATM    4  C           1     -26.209  -6.563 -19.173  0.00  0.00     0.243 C 
HETATM    5  O           1     -26.801  -6.576 -20.226  0.00  0.00    -0.272 OA
BRANCH   4   6
HETATM    6  C           1     -24.748  -6.938 -19.124  0.00  0.00     0.332 C 
BRANCH   6   7
HETATM    7  N           1     -24.482  -8.045 -20.101  0.00  0.00    -0.071 N 
HETATM    8  H           1     -23.548  -8.469 -19.902  0.00  0.00     0.274 HD
HETATM    9  H           1     -25.224  -8.776 -20.010  0.00  0.00     0.274 HD
HETATM   10  H           1     -24.489  -7.662 -21.073  0.00  0.00     0.274 HD
ENDBRANCH   6   7
ENDBRANCH   4   6
ENDBRANCH   1   2
BRANCH   1  11
HETATM   11  C           1     -29.085  -6.891 -17.321  0.00  0.00     0.138 C 
BRANCH  11  12
HETATM   12  C           1     -29.891  -7.703 -18.304  0.00  0.00     0.217 C 
HETATM   13  O           1     -31.091  -7.578 -18.350  0.00  0.00    -0.274 OA
HETATM   14  N           1     -29.262  -8.583 -19.144  0.00  0.00    -0.370 N 
HETATM   15  H           1     -28.256  -8.688 -19.106  0.00  0.00     0.159 HD
HETATM   16  H           1     -29.803  -9.127 -19.804  0.00  0.00     0.159 HD
ENDBRANCH  11  12
ENDBRANCH   1  11
BRANCH   1  17
HETATM   17  C           1     -28.460  -4.498 -17.428  0.00  0.00     0.197 C 
HETATM   18  O           1     -29.426  -3.777 -17.764  0.00  0.00    -0.646 OA
HETATM   19  O           1     -27.656  -4.098 -16.558  0.00  0.00    -0.646 OA
ENDBRANCH   1  17
TORSDOF 6
ENDMDL
MODEL 9
REMARK VINA RESULT:      -5.1      2.087      3.131
REMARK  6 active torsions:
REMARK  status: ('A' for Active; 'I' for Inactive)
REMARK       I    between atoms: C_6  and  N_9 
REMARK    1  A    between atoms: C_6  and  C_10 
REMARK       I    between atoms: C_7  and  N_8 
REMARK    2  A    between atoms: C_7  and  C_15 
REMARK    3  A    between atoms: N_9  and  C_14 
REMARK    4  A    between atoms: C_10  and  N_16 
REMARK    5  A    between atoms: C_14  and  C_15 
REMARK    6  A    between atoms: C_14  and  C_18 
ROOT
HETATM    1  C           1     -28.211  -6.051 -18.021  0.00  0.00     0.194 C 
ENDROOT
BRANCH   1   2
HETATM    2  N           1     -26.795  -6.359 -17.971  0.00  0.00    -0.345 N 
HETATM    3  H           1     -26.315  -6.387 -17.080  0.00  0.00     0.163 HD
HETATM    4  C           1     -26.107  -6.609 -19.127  0.00  0.00     0.243 C 
HETATM    5  O           1     -26.680  -6.575 -20.190  0.00  0.00    -0.272 OA
BRANCH   4   6
HETATM    6  C           1     -24.633  -6.928 -19.074  0.00  0.00     0.332 C 
BRANCH   6   7
HETATM    7  N           1     -24.283  -7.455 -17.714  0.00  0.00    -0.071 N 
HETATM    8  H           1     -24.118  -6.654 -17.062  0.00  0.00     0.274 HD
HETATM    9  H           1     -25.070  -8.041 -17.355  0.00  0.00     0.274 HD
HETATM   10  H           1     -23.417  -8.035 -17.776  0.00  0.00     0.274 HD
ENDBRANCH   6   7
ENDBRANCH   4   6
ENDBRANCH   1   2
BRANCH   1  11
HETATM   11  C           1     -28.964  -6.971 -17.069  0.00  0.00     0.138 C 
BRANCH  11  12
HETATM   12  C           1     -28.420  -6.804 -15.671  0.00  0.00     0.217 C 
HETATM   13  O           1     -27.437  -7.417 -15.329  0.00  0.00    -0.274 OA
HETATM   14  N           1     -29.039  -5.957 -14.791  0.00  0.00    -0.370 N 
HETATM   15  H           1     -29.862  -5.443 -15.078  0.00  0.00     0.159 HD
HETATM   16  H           1     -28.674  -5.846 -13.854  0.00  0.00     0.159 HD
ENDBRANCH  11  12
ENDBRANCH   1  11
BRANCH   1  17
HETATM   17  C           1     -28.429  -4.616 -17.613  0.00  0.00     0.197 C 
HETATM   18  O           1     -29.413  -3.982 -18.054  0.00  0.00    -0.646 OA
HETATM   19  O           1     -27.626  -4.059 -16.832  0.00  0.00    -0.646 OA
ENDBRANCH   1  17
TORSDOF 6
ENDMDL
