MODEL 1
REMARK VINA RESULT:      -6.9      0.000      0.000
REMARK  9 active torsions:
REMARK  status: ('A' for Active; 'I' for Inactive)
REMARK    1  A    between atoms: C_1  and  C_6 
REMARK    2  A    between atoms: C_1  and  C_12 
REMARK    3  A    between atoms: C_2  and  C_24 
REMARK    4  A    between atoms: C_2  and  C_14 
REMARK    5  A    between atoms: C_6  and  C_16 
REMARK    6  A    between atoms: N_8  and  C_16 
REMARK       I    between atoms: N_11  and  C_12 
REMARK    7  A    between atoms: N_15  and  C_24 
REMARK       I    between atoms: N_15  and  C_17 
REMARK    8  A    between atoms: C_16  and  C_17 
REMARK    9  A    between atoms: C_22  and  C_24 
ROOT
HETATM    1  H           1     -26.876  -4.982 -17.052  0.00  0.00     0.163 HD
HETATM    2  O           1     -28.522  -6.624 -15.439  0.00  0.00    -0.271 OA
HETATM    3  N           1     -27.053  -5.977 -16.992  0.00  0.00    -0.344 N 
HETATM    4  C           1     -28.288  -6.429 -16.608  0.00  0.00     0.249 C 
ENDROOT
BRANCH   3   5
HETATM    5  C           1     -26.002  -6.922 -17.313  0.00  0.00     0.191 C 
BRANCH   5   6
HETATM    6  C           1     -25.142  -6.359 -18.437  0.00  0.00     0.094 C 
BRANCH   6   7
HETATM    7  C           1     -25.338  -7.178 -19.675  0.00  0.00     0.028 A 
HETATM    8  C           1     -24.321  -7.746 -20.405  0.00  0.00     0.114 A 
HETATM    9  N           1     -24.944  -8.394 -21.436  0.00  0.00    -0.360 N 
HETATM   10  C           1     -26.288  -8.197 -21.291  0.00  0.00     0.180 A 
HETATM   11  H           1     -24.475  -8.942 -22.198  0.00  0.00     0.166 HD
HETATM   12  N           1     -26.555  -7.466 -20.234  0.00  0.00    -0.354 N 
ATOM     13  HN          1     -27.474  -7.175 -19.899  1.00  0.00     0.166 HD
ENDBRANCH   6   7
ENDBRANCH   5   6
BRANCH   5  14
HETATM   14  C           1     -25.146  -7.155 -16.093  0.00  0.00     0.197 C 
HETATM   15  O           1     -25.197  -6.357 -15.132  0.00  0.00    -0.646 OA
HETATM   16  O           1     -24.387  -8.146 -16.041  0.00  0.00    -0.646 OA
ENDBRANCH   5  14
ENDBRANCH   3   5
BRANCH   4  17
HETATM   17  C           1     -29.354  -6.685 -17.644  0.00  0.00     0.275 C 
BRANCH  17  18
HETATM   18  C           1     -30.684  -6.129 -17.153  0.00  0.00     0.052 C 
BRANCH  18  19
HETATM   19  C           1     -30.676  -4.611 -17.277  0.00  0.00     0.105 C 
BRANCH  19  20
HETATM   20  C           1     -32.091  -4.092 -17.194  0.00  0.00     0.215 C 
HETATM   21  O           1     -32.370  -3.020 -17.678  0.00  0.00    -0.274 OA
HETATM   22  N           1     -33.058  -4.835 -16.573  0.00  0.00    -0.370 N 
HETATM   23  H           1     -34.007  -4.486 -16.517  0.00  0.00     0.159 HD
HETATM   24  H           1     -32.825  -5.732 -16.167  0.00  0.00     0.159 HD
ENDBRANCH  19  20
ENDBRANCH  18  19
ENDBRANCH  17  18
BRANCH  17  25
HETATM   25  N           1     -29.483  -8.162 -17.872  0.00  0.00    -0.066 N 
HETATM   26  H           1     -30.452  -8.381 -18.198  0.00  0.00     0.275 HD
HETATM   27  H           1     -28.796  -8.463 -18.599  0.00  0.00     0.275 HD
HETATM   28  H           1     -29.293  -8.670 -16.979  0.00  0.00     0.275 HD
ENDBRANCH  17  25
ENDBRANCH   4  17
TORSDOF 9
ENDMDL
MODEL 2
REMARK VINA RESULT:      -6.2      2.246      6.927
REMARK  9 active torsions:
REMARK  status: ('A' for Active; 'I' for Inactive)
REMARK    1  A    between atoms: C_1  and  C_6 
REMARK    2  A    between atoms: C_1  and  C_12 
REMARK    3  A    between atoms: C_2  and  C_24 
REMARK    4  A    between atoms: C_2  and  C_14 
REMARK    5  A    between atoms: C_6  and  C_16 
REMARK    6  A    between atoms: N_8  and  C_16 
REMARK       I    between atoms: N_11  and  C_12 
REMARK    7  A    between atoms: N_15  and  C_24 
REMARK       I    between atoms: N_15  and  C_17 
REMARK    8  A    between atoms: C_16  and  C_17 
REMARK    9  A    between atoms: C_22  and  C_24 
ROOT
HETATM    1  H           1     -29.973  -4.836 -19.394  0.00  0.00     0.163 HD
HETATM    2  O           1     -29.242  -7.389 -18.419  0.00  0.00    -0.271 OA
HETATM    3  N           1     -29.562  -5.182 -18.537  0.00  0.00    -0.344 N 
HETATM    4  C           1     -28.759  -6.292 -18.563  0.00  0.00     0.249 C 
ENDROOT
BRANCH   3   5
HETATM    5  C           1     -29.821  -4.504 -17.283  0.00  0.00     0.191 C 
BRANCH   5   6
HETATM    6  C           1     -30.954  -5.211 -16.550  0.00  0.00     0.094 C 
BRANCH   6   7
HETATM    7  C           1     -32.207  -4.400 -16.664  0.00  0.00     0.028 A 
HETATM    8  C           1     -32.453  -3.476 -17.652  0.00  0.00     0.114 A 
HETATM    9  N           1     -33.697  -2.982 -17.374  0.00  0.00    -0.360 N 
HETATM   10  C           1     -34.147  -3.613 -16.250  0.00  0.00     0.180 A 
HETATM   11  H           1     -34.211  -2.250 -17.924  0.00  0.00     0.166 HD
HETATM   12  N           1     -33.267  -4.478 -15.799  0.00  0.00    -0.354 N 
ATOM     13  HN          1     -33.354  -5.079 -14.979  1.00  0.00     0.166 HD
ENDBRANCH   6   7
ENDBRANCH   5   6
BRANCH   5  14
HETATM   14  C           1     -28.577  -4.529 -16.431  0.00  0.00     0.197 C 
HETATM   15  O           1     -27.657  -3.711 -16.644  0.00  0.00    -0.646 OA
HETATM   16  O           1     -28.466  -5.368 -15.511  0.00  0.00    -0.646 OA
ENDBRANCH   5  14
ENDBRANCH   3   5
BRANCH   4  17
HETATM   17  C           1     -27.272  -6.143 -18.772  0.00  0.00     0.275 C 
BRANCH  17  18
HETATM   18  C           1     -26.844  -6.961 -19.982  0.00  0.00     0.052 C 
BRANCH  18  19
HETATM   19  C           1     -25.518  -6.430 -20.511  0.00  0.00     0.105 C 
BRANCH  19  20
HETATM   20  C           1     -24.384  -7.248 -19.943  0.00  0.00     0.215 C 
HETATM   21  O           1     -23.852  -6.910 -18.912  0.00  0.00    -0.274 OA
HETATM   22  N           1     -23.958  -8.374 -20.595  0.00  0.00    -0.370 N 
HETATM   23  H           1     -23.198  -8.922 -20.215  0.00  0.00     0.159 HD
HETATM   24  H           1     -24.403  -8.657 -21.459  0.00  0.00     0.159 HD
ENDBRANCH  19  20
ENDBRANCH  18  19
ENDBRANCH  17  18
BRANCH  17  25
HETATM   25  N           1     -26.546  -6.634 -17.554  0.00  0.00    -0.066 N 
HETATM   26  H           1     -26.938  -7.557 -17.263  0.00  0.00     0.275 HD
HETATM   27  H           1     -25.530  -6.740 -17.775  0.00  0.00     0.275 HD
HETATM   28  H           1     -26.664  -5.944 -16.778  0.00  0.00     0.275 HD
ENDBRANCH  17  25
ENDBRANCH   4  17
TORSDOF 9
ENDMDL
MODEL 3
REMARK VINA RESULT:      -6.1     12.874     15.287
REMARK  9 active torsions:
REMARK  status: ('A' for Active; 'I' for Inactive)
REMARK    1  A    between atoms: C_1  and  C_6 
REMARK    2  A    between atoms: C_1  and  C_12 
REMARK    3  A    between atoms: C_2  and  C_24 
REMARK    4  A    between atoms: C_2  and  C_14 
REMARK    5  A    between atoms: C_6  and  C_16 
REMARK    6  A    between atoms: N_8  and  C_16 
REMARK       I    between atoms: N_11  and  C_12 
REMARK    7  A    between atoms: N_15  and  C_24 
REMARK       I    between atoms: N_15  and  C_17 
REMARK    8  A    between atoms: C_16  and  C_17 
REMARK    9  A    between atoms: C_22  and  C_24 
ROOT
HETATM    1  H           1     -21.427  -5.641  -2.531  0.00  0.00     0.163 HD
HETATM    2  O           1     -22.967  -6.168  -4.846  0.00  0.00    -0.271 OA
HETATM    3  N           1     -21.560  -6.443  -3.134  0.00  0.00    -0.344 N 
HETATM    4  C           1     -21.824  -6.262  -4.465  0.00  0.00     0.249 C 
ENDROOT
BRANCH   3   5
HETATM    5  C           1     -21.469  -7.783  -2.588  0.00  0.00     0.191 C 
BRANCH   5   6
HETATM    6  C           1     -20.004  -8.190  -2.484  0.00  0.00     0.094 C 
BRANCH   6   7
HETATM    7  C           1     -19.682  -9.178  -3.562  0.00  0.00     0.028 A 
HETATM    8  C           1     -18.437  -9.349  -4.118  0.00  0.00     0.114 A 
HETATM    9  N           1     -18.597 -10.339  -5.047  0.00  0.00    -0.360 N 
HETATM   10  C           1     -19.908 -10.721  -5.018  0.00  0.00     0.180 A 
HETATM   11  H           1     -17.849 -10.733  -5.670  0.00  0.00     0.166 HD
HETATM   12  N           1     -20.588 -10.036  -4.127  0.00  0.00    -0.354 N 
ATOM     13  HN          1     -21.580 -10.125  -3.905  1.00  0.00     0.166 HD
ENDBRANCH   6   7
ENDBRANCH   5   6
BRANCH   5  14
HETATM   14  C           1     -22.097  -7.811  -1.217  0.00  0.00     0.197 C 
HETATM   15  O           1     -22.015  -8.839  -0.512  0.00  0.00    -0.646 OA
HETATM   16  O           1     -22.701  -6.805  -0.785  0.00  0.00    -0.646 OA
ENDBRANCH   5  14
ENDBRANCH   3   5
BRANCH   4  17
HETATM   17  C           1     -20.690  -6.181  -5.456  0.00  0.00     0.275 C 
BRANCH  17  18
HETATM   18  C           1     -20.738  -4.840  -6.176  0.00  0.00     0.052 C 
BRANCH  18  19
HETATM   19  C           1     -21.083  -5.063  -7.643  0.00  0.00     0.105 C 
BRANCH  19  20
HETATM   20  C           1     -22.316  -4.270  -7.997  0.00  0.00     0.215 C 
HETATM   21  O           1     -22.312  -3.548  -8.967  0.00  0.00    -0.274 OA
HETATM   22  N           1     -23.440  -4.367  -7.222  0.00  0.00    -0.370 N 
HETATM   23  H           1     -24.267  -3.834  -7.459  0.00  0.00     0.159 HD
HETATM   24  H           1     -23.443  -4.970  -6.410  0.00  0.00     0.159 HD
ENDBRANCH  19  20
ENDBRANCH  18  19
ENDBRANCH  17  18
BRANCH  17  25
HETATM   25  N           1     -20.821  -7.291  -6.457  0.00  0.00    -0.066 N 
HETATM   26  H           1     -20.478  -6.963  -7.388  0.00  0.00     0.275 HD
HETATM   27  H           1     -20.252  -8.109  -6.145  0.00  0.00     0.275 HD
HETATM   28  H           1     -21.825  -7.572  -6.535  0.00  0.00     0.275 HD
ENDBRANCH  17  25
ENDBRANCH   4  17
TORSDOF 9
ENDMDL
MODEL 4
REMARK VINA RESULT:      -6.0      2.062      6.431
REMARK  9 active torsions:
REMARK  status: ('A' for Active; 'I' for Inactive)
REMARK    1  A    between atoms: C_1  and  C_6 
REMARK    2  A    between atoms: C_1  and  C_12 
REMARK    3  A    between atoms: C_2  and  C_24 
REMARK    4  A    between atoms: C_2  and  C_14 
REMARK    5  A    between atoms: C_6  and  C_16 
REMARK    6  A    between atoms: N_8  and  C_16 
REMARK       I    between atoms: N_11  and  C_12 
REMARK    7  A    between atoms: N_15  and  C_24 
REMARK       I    between atoms: N_15  and  C_17 
REMARK    8  A    between atoms: C_16  and  C_17 
REMARK    9  A    between atoms: C_22  and  C_24 
ROOT
HETATM    1  H           1     -26.781  -4.505 -17.524  0.00  0.00     0.163 HD
HETATM    2  O           1     -28.422  -5.323 -19.679  0.00  0.00    -0.271 OA
HETATM    3  N           1     -27.450  -5.251 -17.670  0.00  0.00    -0.344 N 
HETATM    4  C           1     -27.609  -5.791 -18.918  0.00  0.00     0.249 C 
ENDROOT
BRANCH   3   5
HETATM    5  C           1     -28.237  -5.747 -16.558  0.00  0.00     0.191 C 
BRANCH   5   6
HETATM    6  C           1     -29.524  -6.369 -17.087  0.00  0.00     0.094 C 
BRANCH   6   7
HETATM    7  C           1     -30.620  -5.349 -17.060  0.00  0.00     0.028 A 
HETATM    8  C           1     -30.462  -4.023 -17.385  0.00  0.00     0.114 A 
HETATM    9  N           1     -31.701  -3.469 -17.224  0.00  0.00    -0.360 N 
HETATM   10  C           1     -32.545  -4.463 -16.816  0.00  0.00     0.180 A 
HETATM   11  H           1     -31.957  -2.463 -17.385  0.00  0.00     0.166 HD
HETATM   12  N           1     -31.918  -5.611 -16.709  0.00  0.00    -0.354 N 
ATOM     13  HN          1     -32.314  -6.508 -16.424  1.00  0.00     0.166 HD
ENDBRANCH   6   7
ENDBRANCH   5   6
BRANCH   5  14
HETATM   14  C           1     -27.446  -6.788 -15.807  0.00  0.00     0.197 C 
HETATM   15  O           1     -28.034  -7.610 -15.071  0.00  0.00    -0.646 OA
HETATM   16  O           1     -26.202  -6.830 -15.921  0.00  0.00    -0.646 OA
ENDBRANCH   5  14
ENDBRANCH   3   5
BRANCH   4  17
HETATM   17  C           1     -26.771  -6.972 -19.343  0.00  0.00     0.275 C 
BRANCH  17  18
HETATM   18  C           1     -25.516  -6.477 -20.048  0.00  0.00     0.052 C 
BRANCH  18  19
HETATM   19  C           1     -24.378  -7.461 -19.809  0.00  0.00     0.105 C 
BRANCH  19  20
HETATM   20  C           1     -24.069  -8.195 -21.090  0.00  0.00     0.215 C 
HETATM   21  O           1     -24.840  -8.140 -22.019  0.00  0.00    -0.274 OA
HETATM   22  N           1     -22.915  -8.923 -21.201  0.00  0.00    -0.370 N 
HETATM   23  H           1     -22.708  -9.417 -22.060  0.00  0.00     0.159 HD
HETATM   24  H           1     -22.270  -8.971 -20.424  0.00  0.00     0.159 HD
ENDBRANCH  19  20
ENDBRANCH  18  19
ENDBRANCH  17  18
BRANCH  17  25
HETATM   25  N           1     -27.563  -7.836 -20.279  0.00  0.00    -0.066 N 
HETATM   26  H           1     -28.372  -7.292 -20.655  0.00  0.00     0.275 HD
HETATM   27  H           1     -26.953  -8.142 -21.070  0.00  0.00     0.275 HD
HETATM   28  H           1     -27.915  -8.674 -19.764  0.00  0.00     0.275 HD
ENDBRANCH  17  25
ENDBRANCH   4  17
TORSDOF 9
ENDMDL
MODEL 5
REMARK VINA RESULT:      -6.0     11.916     14.491
REMARK  9 active torsions:
REMARK  status: ('A' for Active; 'I' for Inactive)
REMARK    1  A    between atoms: C_1  and  C_6 
REMARK    2  A    between atoms: C_1  and  C_12 
REMARK    3  A    between atoms: C_2  and  C_24 
REMARK    4  A    between atoms: C_2  and  C_14 
REMARK    5  A    between atoms: C_6  and  C_16 
REMARK    6  A    between atoms: N_8  and  C_16 
REMARK       I    between atoms: N_11  and  C_12 
REMARK    7  A    between atoms: N_15  and  C_24 
REMARK       I    between atoms: N_15  and  C_17 
REMARK    8  A    between atoms: C_16  and  C_17 
REMARK    9  A    between atoms: C_22  and  C_24 
ROOT
HETATM    1  H           1     -21.862  -7.903  -6.718  0.00  0.00     0.163 HD
HETATM    2  O           1     -23.261  -6.254  -4.894  0.00  0.00    -0.271 OA
HETATM    3  N           1     -21.756  -6.952  -6.389  0.00  0.00    -0.344 N 
HETATM    4  C           1     -22.133  -6.624  -5.114  0.00  0.00     0.249 C 
ENDROOT
BRANCH   3   5
HETATM    5  C           1     -21.206  -5.937  -7.267  0.00  0.00     0.191 C 
BRANCH   5   6
HETATM    6  C           1     -21.883  -4.602  -6.984  0.00  0.00     0.094 C 
BRANCH   6   7
HETATM    7  C           1     -22.631  -4.154  -8.201  0.00  0.00     0.028 A 
HETATM    8  C           1     -22.060  -3.927  -9.430  0.00  0.00     0.114 A 
HETATM    9  N           1     -23.094  -3.538 -10.236  0.00  0.00    -0.360 N 
HETATM   10  C           1     -24.229  -3.544  -9.477  0.00  0.00     0.180 A 
HETATM   11  H           1     -23.027  -3.281 -11.252  0.00  0.00     0.166 HD
HETATM   12  N           1     -23.980  -3.914  -8.242  0.00  0.00    -0.354 N 
ATOM     13  HN          1     -24.648  -4.003  -7.476  1.00  0.00     0.166 HD
ENDBRANCH   6   7
ENDBRANCH   5   6
BRANCH   5  14
HETATM   14  C           1     -19.723  -5.812  -7.022  0.00  0.00     0.197 C 
HETATM   15  O           1     -19.188  -4.683  -6.989  0.00  0.00    -0.646 OA
HETATM   16  O           1     -19.029  -6.837  -6.851  0.00  0.00    -0.646 OA
ENDBRANCH   5  14
ENDBRANCH   3   5
BRANCH   4  17
HETATM   17  C           1     -21.138  -6.724  -3.983  0.00  0.00     0.275 C 
BRANCH  17  18
HETATM   18  C           1     -21.431  -7.969  -3.157  0.00  0.00     0.052 C 
BRANCH  18  19
HETATM   19  C           1     -20.844  -7.802  -1.761  0.00  0.00     0.105 C 
BRANCH  19  20
HETATM   20  C           1     -21.960  -7.771  -0.746  0.00  0.00     0.215 C 
HETATM   21  O           1     -22.760  -6.866  -0.755  0.00  0.00    -0.274 OA
HETATM   22  N           1     -22.066  -8.769   0.186  0.00  0.00    -0.370 N 
HETATM   23  H           1     -22.813  -8.748   0.867  0.00  0.00     0.159 HD
HETATM   24  H           1     -21.396  -9.526   0.194  0.00  0.00     0.159 HD
ENDBRANCH  19  20
ENDBRANCH  18  19
ENDBRANCH  17  18
BRANCH  17  25
HETATM   25  N           1     -21.249  -5.508  -3.112  0.00  0.00    -0.066 N 
HETATM   26  H           1     -20.679  -4.733  -3.520  0.00  0.00     0.275 HD
HETATM   27  H           1     -22.249  -5.211  -3.053  0.00  0.00     0.275 HD
HETATM   28  H           1     -20.895  -5.734  -2.154  0.00  0.00     0.275 HD
ENDBRANCH  17  25
ENDBRANCH   4  17
TORSDOF 9
ENDMDL
MODEL 6
REMARK VINA RESULT:      -5.7     20.234     22.344
REMARK  9 active torsions:
REMARK  status: ('A' for Active; 'I' for Inactive)
REMARK    1  A    between atoms: C_1  and  C_6 
REMARK    2  A    between atoms: C_1  and  C_12 
REMARK    3  A    between atoms: C_2  and  C_24 
REMARK    4  A    between atoms: C_2  and  C_14 
REMARK    5  A    between atoms: C_6  and  C_16 
REMARK    6  A    between atoms: N_8  and  C_16 
REMARK       I    between atoms: N_11  and  C_12 
REMARK    7  A    between atoms: N_15  and  C_24 
REMARK       I    between atoms: N_15  and  C_17 
REMARK    8  A    between atoms: C_16  and  C_17 
REMARK    9  A    between atoms: C_22  and  C_24 
ROOT
HETATM    1  H           1     -10.836   7.850 -21.975  0.00  0.00     0.163 HD
HETATM    2  O           1     -13.613   7.312 -22.018  0.00  0.00    -0.271 OA
HETATM    3  N           1     -11.598   7.977 -21.322  0.00  0.00    -0.344 N 
HETATM    4  C           1     -12.651   7.101 -21.320  0.00  0.00     0.249 C 
ENDROOT
BRANCH   3   5
HETATM    5  C           1     -11.576   9.087 -20.389  0.00  0.00     0.191 C 
BRANCH   5   6
HETATM    6  C           1     -12.574   8.826 -19.269  0.00  0.00     0.094 C 
BRANCH   6   7
HETATM    7  C           1     -13.382  10.061 -19.020  0.00  0.00     0.028 A 
HETATM    8  C           1     -14.137  10.288 -17.894  0.00  0.00     0.114 A 
HETATM    9  N           1     -14.696  11.521 -18.085  0.00  0.00    -0.360 N 
HETATM   10  C           1     -14.266  11.984 -19.295  0.00  0.00     0.180 A 
HETATM   11  H           1     -15.339  12.020 -17.421  0.00  0.00     0.166 HD
HETATM   12  N           1     -13.469  11.122 -19.884  0.00  0.00    -0.354 N 
ATOM     13  HN          1     -13.012  11.221 -20.790  1.00  0.00     0.166 HD
ENDBRANCH   6   7
ENDBRANCH   5   6
BRANCH   5  14
HETATM   14  C           1     -10.191   9.227 -19.808  0.00  0.00     0.197 C 
HETATM   15  O           1      -9.259   9.670 -20.514  0.00  0.00    -0.646 OA
HETATM   16  O           1      -9.975   8.901 -18.621  0.00  0.00    -0.646 OA
ENDBRANCH   5  14
ENDBRANCH   3   5
BRANCH   4  17
HETATM   17  C           1     -12.608   5.872 -20.446  0.00  0.00     0.275 C 
BRANCH  17  18
HETATM   18  C           1     -11.614   4.873 -21.020  0.00  0.00     0.052 C 
BRANCH  18  19
HETATM   19  C           1     -10.706   4.363 -19.908  0.00  0.00     0.105 C 
BRANCH  19  20
HETATM   20  C           1      -9.760   5.460 -19.486  0.00  0.00     0.215 C 
HETATM   21  O           1      -9.154   6.089 -20.321  0.00  0.00    -0.274 OA
HETATM   22  N           1      -9.589   5.743 -18.158  0.00  0.00    -0.370 N 
HETATM   23  H           1      -8.954   6.479 -17.875  0.00  0.00     0.159 HD
HETATM   24  H           1     -10.096   5.216 -17.458  0.00  0.00     0.159 HD
ENDBRANCH  19  20
ENDBRANCH  18  19
ENDBRANCH  17  18
BRANCH  17  25
HETATM   25  N           1     -13.971   5.248 -20.395  0.00  0.00    -0.066 N 
HETATM   26  H           1     -14.045   4.511 -21.133  0.00  0.00     0.275 HD
HETATM   27  H           1     -14.122   4.815 -19.456  0.00  0.00     0.275 HD
HETATM   28  H           1     -14.696   5.982 -20.562  0.00  0.00     0.275 HD
ENDBRANCH  17  25
ENDBRANCH   4  17
TORSDOF 9
ENDMDL
MODEL 7
REMARK VINA RESULT:      -5.5     13.705     16.094
REMARK  9 active torsions:
REMARK  status: ('A' for Active; 'I' for Inactive)
REMARK    1  A    between atoms: C_1  and  C_6 
REMARK    2  A    between atoms: C_1  and  C_12 
REMARK    3  A    between atoms: C_2  and  C_24 
REMARK    4  A    between atoms: C_2  and  C_14 
REMARK    5  A    between atoms: C_6  and  C_16 
REMARK    6  A    between atoms: N_8  and  C_16 
REMARK       I    between atoms: N_11  and  C_12 
REMARK    7  A    between atoms: N_15  and  C_24 
REMARK       I    between atoms: N_15  and  C_17 
REMARK    8  A    between atoms: C_16  and  C_17 
REMARK    9  A    between atoms: C_22  and  C_24 
ROOT
HETATM    1  H           1     -19.965  -7.123  -2.335  0.00  0.00     0.163 HD
HETATM    2  O           1     -22.488  -5.885  -2.663  0.00  0.00    -0.271 OA
HETATM    3  N           1     -20.907  -7.453  -2.497  0.00  0.00    -0.344 N 
HETATM    4  C           1     -21.785  -6.692  -3.222  0.00  0.00     0.249 C 
ENDROOT
BRANCH   3   5
HETATM    5  C           1     -21.328  -8.733  -1.961  0.00  0.00     0.191 C 
BRANCH   5   6
HETATM    6  C           1     -20.188  -9.735  -2.089  0.00  0.00     0.094 C 
BRANCH   6   7
HETATM    7  C           1     -19.726  -9.789  -3.512  0.00  0.00     0.028 A 
HETATM    8  C           1     -20.464 -10.298  -4.554  0.00  0.00     0.114 A 
HETATM    9  N           1     -19.670 -10.149  -5.657  0.00  0.00    -0.360 N 
HETATM   10  C           1     -18.504  -9.566  -5.247  0.00  0.00     0.180 A 
HETATM   11  H           1     -19.912 -10.431  -6.639  0.00  0.00     0.166 HD
HETATM   12  N           1     -18.511  -9.336  -3.954  0.00  0.00    -0.354 N 
ATOM     13  HN          1     -17.769  -8.911  -3.398  1.00  0.00     0.166 HD
ENDBRANCH   6   7
ENDBRANCH   5   6
BRANCH   5  14
HETATM   14  C           1     -21.697  -8.573  -0.508  0.00  0.00     0.197 C 
HETATM   15  O           1     -22.807  -8.091  -0.194  0.00  0.00    -0.646 OA
HETATM   16  O           1     -20.894  -8.921   0.384  0.00  0.00    -0.646 OA
ENDBRANCH   5  14
ENDBRANCH   3   5
BRANCH   4  17
HETATM   17  C           1     -21.873  -6.862  -4.719  0.00  0.00     0.275 C 
BRANCH  17  18
HETATM   18  C           1     -20.551  -6.458  -5.356  0.00  0.00     0.052 C 
BRANCH  18  19
HETATM   19  C           1     -20.406  -4.942  -5.308  0.00  0.00     0.105 C 
BRANCH  19  20
HETATM   20  C           1     -20.434  -4.388  -6.711  0.00  0.00     0.215 C 
HETATM   21  O           1     -21.431  -3.847  -7.127  0.00  0.00    -0.274 OA
HETATM   22  N           1     -19.330  -4.499  -7.513  0.00  0.00    -0.370 N 
HETATM   23  H           1     -19.349  -4.128  -8.455  0.00  0.00     0.159 HD
HETATM   24  H           1     -18.496  -4.952  -7.166  0.00  0.00     0.159 HD
ENDBRANCH  19  20
ENDBRANCH  18  19
ENDBRANCH  17  18
BRANCH  17  25
HETATM   25  N           1     -22.973  -5.995  -5.256  0.00  0.00    -0.066 N 
HETATM   26  H           1     -22.700  -5.627  -6.195  0.00  0.00     0.275 HD
HETATM   27  H           1     -23.849  -6.557  -5.343  0.00  0.00     0.275 HD
HETATM   28  H           1     -23.135  -5.195  -4.602  0.00  0.00     0.275 HD
ENDBRANCH  17  25
ENDBRANCH   4  17
TORSDOF 9
ENDMDL
MODEL 8
REMARK VINA RESULT:      -5.5     12.660     15.282
REMARK  9 active torsions:
REMARK  status: ('A' for Active; 'I' for Inactive)
REMARK    1  A    between atoms: C_1  and  C_6 
REMARK    2  A    between atoms: C_1  and  C_12 
REMARK    3  A    between atoms: C_2  and  C_24 
REMARK    4  A    between atoms: C_2  and  C_14 
REMARK    5  A    between atoms: C_6  and  C_16 
REMARK    6  A    between atoms: N_8  and  C_16 
REMARK       I    between atoms: N_11  and  C_12 
REMARK    7  A    between atoms: N_15  and  C_24 
REMARK       I    between atoms: N_15  and  C_17 
REMARK    8  A    between atoms: C_16  and  C_17 
REMARK    9  A    between atoms: C_22  and  C_24 
ROOT
HETATM    1  H           1     -21.824  -8.449  -6.253  0.00  0.00     0.163 HD
HETATM    2  O           1     -19.669  -6.749  -6.938  0.00  0.00    -0.271 OA
HETATM    3  N           1     -21.088  -7.986  -5.736  0.00  0.00    -0.344 N 
HETATM    4  C           1     -20.601  -6.782  -6.170  0.00  0.00     0.249 C 
ENDROOT
BRANCH   3   5
HETATM    5  C           1     -20.548  -8.598  -4.538  0.00  0.00     0.191 C 
BRANCH   5   6
HETATM    6  C           1     -21.616  -9.470  -3.889  0.00  0.00     0.094 C 
BRANCH   6   7
HETATM    7  C           1     -21.328  -9.610  -2.427  0.00  0.00     0.028 A 
HETATM    8  C           1     -21.794  -8.759  -1.454  0.00  0.00     0.114 A 
HETATM    9  N           1     -21.296  -9.255  -0.281  0.00  0.00    -0.360 N 
HETATM   10  C           1     -20.562 -10.367  -0.585  0.00  0.00     0.180 A 
HETATM   11  H           1     -21.449  -8.855   0.677  0.00  0.00     0.166 HD
HETATM   12  N           1     -20.565 -10.606  -1.876  0.00  0.00    -0.354 N 
ATOM     13  HN          1     -20.098 -11.371  -2.365  1.00  0.00     0.166 HD
ENDBRANCH   6   7
ENDBRANCH   5   6
BRANCH   5  14
HETATM   14  C           1     -19.356  -9.448  -4.900  0.00  0.00     0.197 C 
HETATM   15  O           1     -18.375  -9.510  -4.129  0.00  0.00    -0.646 OA
HETATM   16  O           1     -19.349 -10.091  -5.972  0.00  0.00    -0.646 OA
ENDBRANCH   5  14
ENDBRANCH   3   5
BRANCH   4  17
HETATM   17  C           1     -21.227  -5.497  -5.688  0.00  0.00     0.275 C 
BRANCH  17  18
HETATM   18  C           1     -22.307  -5.058  -6.668  0.00  0.00     0.052 C 
BRANCH  18  19
HETATM   19  C           1     -21.754  -3.970  -7.579  0.00  0.00     0.105 C 
BRANCH  19  20
HETATM   20  C           1     -22.710  -3.736  -8.723  0.00  0.00     0.215 C 
HETATM   21  O           1     -22.284  -3.500  -9.828  0.00  0.00    -0.274 OA
HETATM   22  N           1     -24.061  -3.792  -8.508  0.00  0.00    -0.370 N 
HETATM   23  H           1     -24.703  -3.635  -9.275  0.00  0.00     0.159 HD
HETATM   24  H           1     -24.419  -3.989  -7.583  0.00  0.00     0.159 HD
ENDBRANCH  19  20
ENDBRANCH  18  19
ENDBRANCH  17  18
BRANCH  17  25
HETATM   25  N           1     -20.174  -4.432  -5.595  0.00  0.00    -0.066 N 
HETATM   26  H           1     -19.368  -4.787  -5.032  0.00  0.00     0.275 HD
HETATM   27  H           1     -19.846  -4.183  -6.555  0.00  0.00     0.275 HD
HETATM   28  H           1     -20.577  -3.585  -5.132  0.00  0.00     0.275 HD
ENDBRANCH  17  25
ENDBRANCH   4  17
TORSDOF 9
ENDMDL
MODEL 9
REMARK VINA RESULT:      -5.5     12.337     14.740
REMARK  9 active torsions:
REMARK  status: ('A' for Active; 'I' for Inactive)
REMARK    1  A    between atoms: C_1  and  C_6 
REMARK    2  A    between atoms: C_1  and  C_12 
REMARK    3  A    between atoms: C_2  and  C_24 
REMARK    4  A    between atoms: C_2  and  C_14 
REMARK    5  A    between atoms: C_6  and  C_16 
REMARK    6  A    between atoms: N_8  and  C_16 
REMARK       I    between atoms: N_11  and  C_12 
REMARK    7  A    between atoms: N_15  and  C_24 
REMARK       I    between atoms: N_15  and  C_17 
REMARK    8  A    between atoms: C_16  and  C_17 
REMARK    9  A    between atoms: C_22  and  C_24 
ROOT
HETATM    1  H           1     -20.191  -6.971  -3.528  0.00  0.00     0.163 HD
HETATM    2  O           1     -22.139  -6.498  -5.525  0.00  0.00    -0.271 OA
HETATM    3  N           1     -20.328  -7.283  -4.480  0.00  0.00    -0.344 N 
HETATM    4  C           1     -20.939  -6.460  -5.389  0.00  0.00     0.249 C 
ENDROOT
BRANCH   3   5
HETATM    5  C           1     -19.875  -8.600  -4.884  0.00  0.00     0.191 C 
BRANCH   5   6
HETATM    6  C           1     -18.939  -9.161  -3.821  0.00  0.00     0.094 C 
BRANCH   6   7
HETATM    7  C           1     -17.669  -9.623  -4.467  0.00  0.00     0.028 A 
HETATM    8  C           1     -17.559 -10.022  -5.777  0.00  0.00     0.114 A 
HETATM    9  N           1     -16.243 -10.355  -5.937  0.00  0.00    -0.360 N 
HETATM   10  C           1     -15.619 -10.148  -4.740  0.00  0.00     0.180 A 
HETATM   11  H           1     -15.794 -10.706  -6.819  0.00  0.00     0.166 HD
HETATM   12  N           1     -16.458  -9.704  -3.832  0.00  0.00    -0.354 N 
ATOM     13  HN          1     -16.251  -9.470  -2.861  1.00  0.00     0.166 HD
ENDBRANCH   6   7
ENDBRANCH   5   6
BRANCH   5  14
HETATM   14  C           1     -21.065  -9.514  -5.040  0.00  0.00     0.197 C 
HETATM   15  O           1     -21.898  -9.619  -4.114  0.00  0.00    -0.646 OA
HETATM   16  O           1     -21.219 -10.165  -6.096  0.00  0.00    -0.646 OA
ENDBRANCH   5  14
ENDBRANCH   3   5
BRANCH   4  17
HETATM   17  C           1     -20.116  -5.508  -6.219  0.00  0.00     0.275 C 
BRANCH  17  18
HETATM   18  C           1     -20.914  -4.237  -6.478  0.00  0.00     0.052 C 
BRANCH  18  19
HETATM   19  C           1     -21.121  -4.064  -7.977  0.00  0.00     0.105 C 
BRANCH  19  20
HETATM   20  C           1     -22.565  -4.335  -8.321  0.00  0.00     0.215 C 
HETATM   21  O           1     -22.874  -4.604  -9.458  0.00  0.00    -0.274 OA
HETATM   22  N           1     -23.524  -4.276  -7.347  0.00  0.00    -0.370 N 
HETATM   23  H           1     -24.493  -4.456  -7.578  0.00  0.00     0.159 HD
HETATM   24  H           1     -23.265  -4.049  -6.395  0.00  0.00     0.159 HD
ENDBRANCH  19  20
ENDBRANCH  18  19
ENDBRANCH  17  18
BRANCH  17  25
HETATM   25  N           1     -19.770  -6.156  -7.527  0.00  0.00    -0.066 N 
HETATM   26  H           1     -20.637  -6.543  -7.964  0.00  0.00     0.275 HD
HETATM   27  H           1     -19.345  -5.447  -8.166  0.00  0.00     0.275 HD
HETATM   28  H           1     -19.087  -6.930  -7.361  0.00  0.00     0.275 HD
ENDBRANCH  17  25
ENDBRANCH   4  17
TORSDOF 9
ENDMDL
