MODEL 1
REMARK VINA RESULT:      -7.5      0.000      0.000
REMARK  9 active torsions:
REMARK  status: ('A' for Active; 'I' for Inactive)
REMARK    1  A    between atoms: O_1  and  C_25 
REMARK    2  A    between atoms: C_4  and  C_9 
REMARK    3  A    between atoms: C_4  and  C_5 
REMARK    4  A    between atoms: C_9  and  C_18 
REMARK    5  A    between atoms: C_9  and  N_22 
REMARK    6  A    between atoms: O_10  and  C_11 
REMARK    7  A    between atoms: C_11  and  C_12 
REMARK    8  A    between atoms: C_12  and  C_17 
REMARK    9  A    between atoms: C_12  and  N_24 
REMARK       I    between atoms: C_18  and  N_24 
ROOT
HETATM    1  C           1     -35.949  -0.498 -11.115  0.00  0.00     0.278 C 
ENDROOT
BRANCH   1   2
HETATM    2  C           1     -36.344  -1.888 -10.631  0.00  0.00     0.081 C 
BRANCH   2   3
HETATM    3  C           1     -35.240  -2.853 -10.931  0.00  0.00    -0.056 A 
HETATM    4  C           1     -33.953  -2.382 -11.186  0.00  0.00     0.010 A 
HETATM    5  C           1     -32.923  -3.283 -11.464  0.00  0.00     0.037 A 
HETATM    6  C           1     -33.183  -4.653 -11.486  0.00  0.00     0.065 A 
HETATM    7  C           1     -34.470  -5.123 -11.230  0.00  0.00     0.037 A 
HETATM    8  C           1     -35.499  -4.223 -10.951  0.00  0.00     0.010 A 
BRANCH   6   9
HETATM    9  O           1     -32.183  -5.527 -11.756  0.00  0.00    -0.361 OA
HETATM   10  H           1     -32.489  -6.417 -11.512  0.00  0.00     0.217 HD
ENDBRANCH   6   9
ENDBRANCH   2   3
ENDBRANCH   1   2
BRANCH   1  11
HETATM   11  C           1     -36.514  -0.267 -12.496  0.00  0.00     0.249 C 
HETATM   12  O           1     -37.701  -0.378 -12.690  0.00  0.00    -0.271 OA
HETATM   13  N           1     -35.680   0.068 -13.530  0.00  0.00    -0.343 N 
HETATM   14  H           1     -34.685   0.161 -13.367  0.00  0.00     0.163 HD
BRANCH  13  15
HETATM   15  C           1     -36.222   0.290 -14.856  0.00  0.00     0.209 C 
BRANCH  15  16
HETATM   16  C           1     -35.705   1.614 -15.401  0.00  0.00     0.200 C 
BRANCH  16  17
HETATM   17  O           1     -36.649   2.158 -16.283  0.00  0.00    -0.398 OA
HETATM   18  H           1     -36.482   3.084 -16.326  0.00  0.00     0.209 HD
ENDBRANCH  16  17
ENDBRANCH  15  16
BRANCH  15  19
HETATM   19  C           1     -35.791  -0.832 -15.768  0.00  0.00     0.198 C 
HETATM   20  O           1     -35.110  -1.778 -15.317  0.00  0.00    -0.646 OA
HETATM   21  O           1     -36.116  -0.816 -16.976  0.00  0.00    -0.646 OA
ENDBRANCH  15  19
ENDBRANCH  13  15
ENDBRANCH   1  11
BRANCH   1  22
HETATM   22  N           1     -36.496   0.533 -10.173  0.00  0.00    -0.066 N 
HETATM   23  H           1     -35.971   0.494  -9.271  0.00  0.00     0.275 HD
HETATM   24  H           1     -36.389   1.482 -10.597  0.00  0.00     0.275 HD
HETATM   25  H           1     -37.508   0.341  -9.996  0.00  0.00     0.275 HD
ENDBRANCH   1  22
TORSDOF 9
ENDMDL
MODEL 2
REMARK VINA RESULT:      -7.1      1.579      2.246
REMARK  9 active torsions:
REMARK  status: ('A' for Active; 'I' for Inactive)
REMARK    1  A    between atoms: O_1  and  C_25 
REMARK    2  A    between atoms: C_4  and  C_9 
REMARK    3  A    between atoms: C_4  and  C_5 
REMARK    4  A    between atoms: C_9  and  C_18 
REMARK    5  A    between atoms: C_9  and  N_22 
REMARK    6  A    between atoms: O_10  and  C_11 
REMARK    7  A    between atoms: C_11  and  C_12 
REMARK    8  A    between atoms: C_12  and  C_17 
REMARK    9  A    between atoms: C_12  and  N_24 
REMARK       I    between atoms: C_18  and  N_24 
ROOT
HETATM    1  C           1     -34.607  -2.288 -11.887  0.00  0.00     0.278 C 
ENDROOT
BRANCH   1   2
HETATM    2  C           1     -35.471  -3.154 -10.979  0.00  0.00     0.081 C 
BRANCH   2   3
HETATM    3  C           1     -34.841  -4.504 -10.831  0.00  0.00    -0.056 A 
HETATM    4  C           1     -35.522  -5.521 -10.163  0.00  0.00     0.010 A 
HETATM    5  C           1     -34.935  -6.780 -10.026  0.00  0.00     0.037 A 
HETATM    6  C           1     -33.668  -7.019 -10.557  0.00  0.00     0.065 A 
HETATM    7  C           1     -32.988  -6.002 -11.225  0.00  0.00     0.037 A 
HETATM    8  C           1     -33.575  -4.744 -11.363  0.00  0.00     0.010 A 
BRANCH   6   9
HETATM    9  O           1     -33.098  -8.242 -10.424  0.00  0.00    -0.361 OA
HETATM   10  H           1     -33.601  -8.735  -9.754  0.00  0.00     0.217 HD
ENDBRANCH   6   9
ENDBRANCH   2   3
ENDBRANCH   1   2
BRANCH   1  11
HETATM   11  C           1     -35.493  -1.507 -12.828  0.00  0.00     0.249 C 
HETATM   12  O           1     -36.635  -1.265 -12.522  0.00  0.00    -0.271 OA
HETATM   13  N           1     -35.000  -1.073 -14.030  0.00  0.00    -0.343 N 
HETATM   14  H           1     -34.042  -1.276 -14.287  0.00  0.00     0.163 HD
BRANCH  13  15
HETATM   15  C           1     -35.850  -0.324 -14.934  0.00  0.00     0.209 C 
BRANCH  15  16
HETATM   16  C           1     -35.365   1.117 -15.011  0.00  0.00     0.200 C 
BRANCH  16  17
HETATM   17  O           1     -36.151   1.828 -15.928  0.00  0.00    -0.398 OA
HETATM   18  H           1     -35.585   2.076 -16.640  0.00  0.00     0.209 HD
ENDBRANCH  16  17
ENDBRANCH  15  16
BRANCH  15  19
HETATM   19  C           1     -35.795  -0.947 -16.307  0.00  0.00     0.198 C 
HETATM   20  O           1     -36.735  -0.772 -17.112  0.00  0.00    -0.646 OA
HETATM   21  O           1     -34.807  -1.638 -16.640  0.00  0.00    -0.646 OA
ENDBRANCH  15  19
ENDBRANCH  13  15
ENDBRANCH   1  11
BRANCH   1  22
HETATM   22  N           1     -33.803  -1.335 -11.052  0.00  0.00    -0.066 N 
HETATM   23  H           1     -32.829  -1.699 -10.950  0.00  0.00     0.275 HD
HETATM   24  H           1     -33.779  -0.401 -11.519  0.00  0.00     0.275 HD
HETATM   25  H           1     -34.242  -1.244 -10.109  0.00  0.00     0.275 HD
ENDBRANCH   1  22
TORSDOF 9
ENDMDL
MODEL 3
REMARK VINA RESULT:      -7.1     13.590     16.920
REMARK  9 active torsions:
REMARK  status: ('A' for Active; 'I' for Inactive)
REMARK    1  A    between atoms: O_1  and  C_25 
REMARK    2  A    between atoms: C_4  and  C_9 
REMARK    3  A    between atoms: C_4  and  C_5 
REMARK    4  A    between atoms: C_9  and  C_18 
REMARK    5  A    between atoms: C_9  and  N_22 
REMARK    6  A    between atoms: O_10  and  C_11 
REMARK    7  A    between atoms: C_11  and  C_12 
REMARK    8  A    between atoms: C_12  and  C_17 
REMARK    9  A    between atoms: C_12  and  N_24 
REMARK       I    between atoms: C_18  and  N_24 
ROOT
HETATM    1  C           1     -22.106  -5.178  -6.624  0.00  0.00     0.278 C 
ENDROOT
BRANCH   1   2
HETATM    2  C           1     -21.542  -3.869  -7.162  0.00  0.00     0.081 C 
BRANCH   2   3
HETATM    3  C           1     -21.585  -3.886  -8.659  0.00  0.00    -0.056 A 
HETATM    4  C           1     -20.439  -4.208  -9.386  0.00  0.00     0.010 A 
HETATM    5  C           1     -20.480  -4.224 -10.781  0.00  0.00     0.037 A 
HETATM    6  C           1     -21.666  -3.918 -11.447  0.00  0.00     0.065 A 
HETATM    7  C           1     -22.811  -3.597 -10.720  0.00  0.00     0.037 A 
HETATM    8  C           1     -22.772  -3.581  -9.325  0.00  0.00     0.010 A 
BRANCH   6   9
HETATM    9  O           1     -21.706  -3.933 -12.802  0.00  0.00    -0.361 OA
HETATM   10  H           1     -21.276  -4.751 -13.104  0.00  0.00     0.217 HD
ENDBRANCH   6   9
ENDBRANCH   2   3
ENDBRANCH   1   2
BRANCH   1  11
HETATM   11  C           1     -21.376  -5.558  -5.359  0.00  0.00     0.249 C 
HETATM   12  O           1     -20.195  -5.331  -5.251  0.00  0.00    -0.271 OA
HETATM   13  N           1     -22.054  -6.161  -4.332  0.00  0.00    -0.343 N 
HETATM   14  H           1     -23.044  -6.352  -4.423  0.00  0.00     0.163 HD
BRANCH  13  15
HETATM   15  C           1     -21.353  -6.526  -3.117  0.00  0.00     0.209 C 
BRANCH  15  16
HETATM   16  C           1     -22.237  -6.232  -1.913  0.00  0.00     0.200 C 
BRANCH  16  17
HETATM   17  O           1     -22.272  -7.354  -1.072  0.00  0.00    -0.398 OA
HETATM   18  H           1     -22.455  -8.100  -1.618  0.00  0.00     0.209 HD
ENDBRANCH  16  17
ENDBRANCH  15  16
BRANCH  15  19
HETATM   19  C           1     -21.023  -7.998  -3.151  0.00  0.00     0.198 C 
HETATM   20  O           1     -19.994  -8.422  -2.583  0.00  0.00    -0.646 OA
HETATM   21  O           1     -21.780  -8.794  -3.749  0.00  0.00    -0.646 OA
ENDBRANCH  15  19
ENDBRANCH  13  15
ENDBRANCH   1  11
BRANCH   1  22
HETATM   22  N           1     -23.566  -5.007  -6.326  0.00  0.00    -0.066 N 
HETATM   23  H           1     -24.027  -4.504  -7.118  0.00  0.00     0.275 HD
HETATM   24  H           1     -24.009  -5.946  -6.206  0.00  0.00     0.275 HD
HETATM   25  H           1     -23.680  -4.452  -5.448  0.00  0.00     0.275 HD
ENDBRANCH   1  22
TORSDOF 9
ENDMDL
MODEL 4
REMARK VINA RESULT:      -6.9     12.924     15.414
REMARK  9 active torsions:
REMARK  status: ('A' for Active; 'I' for Inactive)
REMARK    1  A    between atoms: O_1  and  C_25 
REMARK    2  A    between atoms: C_4  and  C_9 
REMARK    3  A    between atoms: C_4  and  C_5 
REMARK    4  A    between atoms: C_9  and  C_18 
REMARK    5  A    between atoms: C_9  and  N_22 
REMARK    6  A    between atoms: O_10  and  C_11 
REMARK    7  A    between atoms: C_11  and  C_12 
REMARK    8  A    between atoms: C_12  and  C_17 
REMARK    9  A    between atoms: C_12  and  N_24 
REMARK       I    between atoms: C_18  and  N_24 
ROOT
HETATM    1  C           1     -21.200  -5.713  -6.968  0.00  0.00     0.278 C 
ENDROOT
BRANCH   1   2
HETATM    2  C           1     -21.014  -5.195  -5.548  0.00  0.00     0.081 C 
BRANCH   2   3
HETATM    3  C           1     -21.224  -6.316  -4.577  0.00  0.00    -0.056 A 
HETATM    4  C           1     -21.381  -7.621  -5.042  0.00  0.00     0.010 A 
HETATM    5  C           1     -21.576  -8.665  -4.137  0.00  0.00     0.037 A 
HETATM    6  C           1     -21.613  -8.402  -2.767  0.00  0.00     0.065 A 
HETATM    7  C           1     -21.455  -7.098  -2.303  0.00  0.00     0.037 A 
HETATM    8  C           1     -21.260  -6.053  -3.208  0.00  0.00     0.010 A 
BRANCH   6   9
HETATM    9  O           1     -21.802  -9.417  -1.889  0.00  0.00    -0.361 OA
HETATM   10  H           1     -20.956  -9.883  -1.783  0.00  0.00     0.217 HD
ENDBRANCH   6   9
ENDBRANCH   2   3
ENDBRANCH   1   2
BRANCH   1  11
HETATM   11  C           1     -21.681  -4.590  -7.855  0.00  0.00     0.249 C 
HETATM   12  O           1     -21.695  -3.456  -7.439  0.00  0.00    -0.271 OA
HETATM   13  N           1     -22.102  -4.857  -9.130  0.00  0.00    -0.343 N 
HETATM   14  H           1     -22.091  -5.807  -9.479  0.00  0.00     0.163 HD
BRANCH  13  15
HETATM   15  C           1     -22.564  -3.778  -9.982  0.00  0.00     0.209 C 
BRANCH  15  16
HETATM   16  C           1     -21.837  -3.838 -11.318  0.00  0.00     0.200 C 
BRANCH  16  17
HETATM   17  O           1     -22.654  -4.470 -12.267  0.00  0.00    -0.398 OA
HETATM   18  H           1     -22.761  -5.362 -11.985  0.00  0.00     0.209 HD
ENDBRANCH  16  17
ENDBRANCH  15  16
BRANCH  15  19
HETATM   19  C           1     -24.049  -3.920 -10.210  0.00  0.00     0.198 C 
HETATM   20  O           1     -24.627  -4.989  -9.917  0.00  0.00    -0.646 OA
HETATM   21  O           1     -24.701  -2.968 -10.692  0.00  0.00    -0.646 OA
ENDBRANCH  15  19
ENDBRANCH  13  15
ENDBRANCH   1  11
BRANCH   1  22
HETATM   22  N           1     -19.890  -6.232  -7.485  0.00  0.00    -0.066 N 
HETATM   23  H           1     -19.753  -7.215  -7.162  0.00  0.00     0.275 HD
HETATM   24  H           1     -19.895  -6.207  -8.530  0.00  0.00     0.275 HD
HETATM   25  H           1     -19.113  -5.634  -7.125  0.00  0.00     0.275 HD
ENDBRANCH   1  22
TORSDOF 9
ENDMDL
MODEL 5
REMARK VINA RESULT:      -6.7      6.424      8.063
REMARK  9 active torsions:
REMARK  status: ('A' for Active; 'I' for Inactive)
REMARK    1  A    between atoms: O_1  and  C_25 
REMARK    2  A    between atoms: C_4  and  C_9 
REMARK    3  A    between atoms: C_4  and  C_5 
REMARK    4  A    between atoms: C_9  and  C_18 
REMARK    5  A    between atoms: C_9  and  N_22 
REMARK    6  A    between atoms: O_10  and  C_11 
REMARK    7  A    between atoms: C_11  and  C_12 
REMARK    8  A    between atoms: C_12  and  C_17 
REMARK    9  A    between atoms: C_12  and  N_24 
REMARK       I    between atoms: C_18  and  N_24 
ROOT
HETATM    1  C           1     -30.941  -4.150 -17.518  0.00  0.00     0.278 C 
ENDROOT
BRANCH   1   2
HETATM    2  C           1     -30.271  -5.112 -16.545  0.00  0.00     0.081 C 
BRANCH   2   3
HETATM    3  C           1     -28.946  -5.536 -17.098  0.00  0.00    -0.056 A 
HETATM    4  C           1     -28.818  -5.833 -18.454  0.00  0.00     0.010 A 
HETATM    5  C           1     -27.582  -6.228 -18.969  0.00  0.00     0.037 A 
HETATM    6  C           1     -26.475  -6.325 -18.126  0.00  0.00     0.065 A 
HETATM    7  C           1     -26.603  -6.028 -16.770  0.00  0.00     0.037 A 
HETATM    8  C           1     -27.838  -5.633 -16.255  0.00  0.00     0.010 A 
BRANCH   6   9
HETATM    9  O           1     -25.275  -6.709 -18.626  0.00  0.00    -0.361 OA
HETATM   10  H           1     -25.167  -7.658 -18.449  0.00  0.00     0.217 HD
ENDBRANCH   6   9
ENDBRANCH   2   3
ENDBRANCH   1   2
BRANCH   1  11
HETATM   11  C           1     -32.336  -3.837 -17.035  0.00  0.00     0.249 C 
HETATM   12  O           1     -32.999  -3.001 -17.600  0.00  0.00    -0.271 OA
HETATM   13  N           1     -32.852  -4.501 -15.953  0.00  0.00    -0.343 N 
HETATM   14  H           1     -32.297  -5.202 -15.479  0.00  0.00     0.163 HD
BRANCH  13  15
HETATM   15  C           1     -34.191  -4.200 -15.488  0.00  0.00     0.209 C 
BRANCH  15  16
HETATM   16  C           1     -35.021  -5.477 -15.468  0.00  0.00     0.200 C 
BRANCH  16  17
HETATM   17  O           1     -35.252  -5.863 -14.140  0.00  0.00    -0.398 OA
HETATM   18  H           1     -34.637  -6.549 -13.943  0.00  0.00     0.209 HD
ENDBRANCH  16  17
ENDBRANCH  15  16
BRANCH  15  19
HETATM   19  C           1     -34.121  -3.624 -14.096  0.00  0.00     0.198 C 
HETATM   20  O           1     -33.277  -4.056 -13.282  0.00  0.00    -0.646 OA
HETATM   21  O           1     -34.908  -2.713 -13.756  0.00  0.00    -0.646 OA
ENDBRANCH  15  19
ENDBRANCH  13  15
ENDBRANCH   1  11
BRANCH   1  22
HETATM   22  N           1     -30.144  -2.882 -17.596  0.00  0.00    -0.066 N 
HETATM   23  H           1     -30.056  -2.586 -18.594  0.00  0.00     0.275 HD
HETATM   24  H           1     -30.629  -2.133 -17.052  0.00  0.00     0.275 HD
HETATM   25  H           1     -29.192  -3.044 -17.196  0.00  0.00     0.275 HD
ENDBRANCH   1  22
TORSDOF 9
ENDMDL
MODEL 6
REMARK VINA RESULT:      -6.6      5.527      7.353
REMARK  9 active torsions:
REMARK  status: ('A' for Active; 'I' for Inactive)
REMARK    1  A    between atoms: O_1  and  C_25 
REMARK    2  A    between atoms: C_4  and  C_9 
REMARK    3  A    between atoms: C_4  and  C_5 
REMARK    4  A    between atoms: C_9  and  C_18 
REMARK    5  A    between atoms: C_9  and  N_22 
REMARK    6  A    between atoms: O_10  and  C_11 
REMARK    7  A    between atoms: C_11  and  C_12 
REMARK    8  A    between atoms: C_12  and  C_17 
REMARK    9  A    between atoms: C_12  and  N_24 
REMARK       I    between atoms: C_18  and  N_24 
ROOT
HETATM    1  C           1     -32.876  -4.510 -16.699  0.00  0.00     0.278 C 
ENDROOT
BRANCH   1   2
HETATM    2  C           1     -31.447  -4.504 -16.170  0.00  0.00     0.081 C 
BRANCH   2   3
HETATM    3  C           1     -30.580  -5.331 -17.068  0.00  0.00    -0.056 A 
HETATM    4  C           1     -30.892  -6.670 -17.299  0.00  0.00     0.010 A 
HETATM    5  C           1     -30.083  -7.440 -18.136  0.00  0.00     0.037 A 
HETATM    6  C           1     -28.964  -6.869 -18.742  0.00  0.00     0.065 A 
HETATM    7  C           1     -28.654  -5.530 -18.512  0.00  0.00     0.037 A 
HETATM    8  C           1     -29.461  -4.760 -17.675  0.00  0.00     0.010 A 
BRANCH   6   9
HETATM    9  O           1     -28.180  -7.617 -19.556  0.00  0.00    -0.361 OA
HETATM   10  H           1     -28.474  -8.541 -19.489  0.00  0.00     0.217 HD
ENDBRANCH   6   9
ENDBRANCH   2   3
ENDBRANCH   1   2
BRANCH   1  11
HETATM   11  C           1     -33.841  -4.455 -15.540  0.00  0.00     0.249 C 
HETATM   12  O           1     -35.007  -4.721 -15.711  0.00  0.00    -0.271 OA
HETATM   13  N           1     -33.396  -4.104 -14.293  0.00  0.00    -0.343 N 
HETATM   14  H           1     -32.419  -3.881 -14.150  0.00  0.00     0.163 HD
BRANCH  13  15
HETATM   15  C           1     -34.323  -4.051 -13.180  0.00  0.00     0.209 C 
BRANCH  15  16
HETATM   16  C           1     -33.756  -4.842 -12.009  0.00  0.00     0.200 C 
BRANCH  16  17
HETATM   17  O           1     -32.356  -4.808 -12.055  0.00  0.00    -0.398 OA
HETATM   18  H           1     -32.045  -5.452 -11.441  0.00  0.00     0.209 HD
ENDBRANCH  16  17
ENDBRANCH  15  16
BRANCH  15  19
HETATM   19  C           1     -34.527  -2.615 -12.765  0.00  0.00     0.198 C 
HETATM   20  O           1     -34.101  -2.217 -11.660  0.00  0.00    -0.646 OA
HETATM   21  O           1     -35.122  -1.823 -13.528  0.00  0.00    -0.646 OA
ENDBRANCH  15  19
ENDBRANCH  13  15
ENDBRANCH   1  11
BRANCH   1  22
HETATM   22  N           1     -33.086  -3.314 -17.580  0.00  0.00    -0.066 N 
HETATM   23  H           1     -33.828  -2.705 -17.169  0.00  0.00     0.275 HD
HETATM   24  H           1     -32.194  -2.776 -17.654  0.00  0.00     0.275 HD
HETATM   25  H           1     -33.383  -3.631 -18.531  0.00  0.00     0.275 HD
ENDBRANCH   1  22
TORSDOF 9
ENDMDL
MODEL 7
REMARK VINA RESULT:      -6.4     13.747     17.270
REMARK  9 active torsions:
REMARK  status: ('A' for Active; 'I' for Inactive)
REMARK    1  A    between atoms: O_1  and  C_25 
REMARK    2  A    between atoms: C_4  and  C_9 
REMARK    3  A    between atoms: C_4  and  C_5 
REMARK    4  A    between atoms: C_9  and  C_18 
REMARK    5  A    between atoms: C_9  and  N_22 
REMARK    6  A    between atoms: O_10  and  C_11 
REMARK    7  A    between atoms: C_11  and  C_12 
REMARK    8  A    between atoms: C_12  and  C_17 
REMARK    9  A    between atoms: C_12  and  N_24 
REMARK       I    between atoms: C_18  and  N_24 
ROOT
HETATM    1  C           1     -22.159  -5.556  -6.720  0.00  0.00     0.278 C 
ENDROOT
BRANCH   1   2
HETATM    2  C           1     -21.198  -4.460  -7.163  0.00  0.00     0.081 C 
BRANCH   2   3
HETATM    3  C           1     -21.309  -4.267  -8.643  0.00  0.00    -0.056 A 
HETATM    4  C           1     -20.237  -4.595  -9.472  0.00  0.00     0.010 A 
HETATM    5  C           1     -20.341  -4.416 -10.852  0.00  0.00     0.037 A 
HETATM    6  C           1     -21.518  -3.910 -11.402  0.00  0.00     0.065 A 
HETATM    7  C           1     -22.591  -3.583 -10.573  0.00  0.00     0.037 A 
HETATM    8  C           1     -22.487  -3.762  -9.194  0.00  0.00     0.010 A 
BRANCH   6   9
HETATM    9  O           1     -21.619  -3.736 -12.742  0.00  0.00    -0.361 OA
HETATM   10  H           1     -22.209  -4.426 -13.090  0.00  0.00     0.217 HD
ENDBRANCH   6   9
ENDBRANCH   2   3
ENDBRANCH   1   2
BRANCH   1  11
HETATM   11  C           1     -21.590  -6.268  -5.517  0.00  0.00     0.249 C 
HETATM   12  O           1     -21.584  -5.723  -4.439  0.00  0.00    -0.271 OA
HETATM   13  N           1     -21.079  -7.532  -5.647  0.00  0.00    -0.343 N 
HETATM   14  H           1     -21.084  -7.989  -6.550  0.00  0.00     0.163 HD
BRANCH  13  15
HETATM   15  C           1     -20.532  -8.216  -4.492  0.00  0.00     0.209 C 
BRANCH  15  16
HETATM   16  C           1     -21.526  -9.261  -4.002  0.00  0.00     0.200 C 
BRANCH  16  17
HETATM   17  O           1     -20.882 -10.501  -3.886  0.00  0.00    -0.398 OA
HETATM   18  H           1     -21.555 -11.146  -3.749  0.00  0.00     0.209 HD
ENDBRANCH  16  17
ENDBRANCH  15  16
BRANCH  15  19
HETATM   19  C           1     -19.239  -8.892  -4.875  0.00  0.00     0.198 C 
HETATM   20  O           1     -19.056  -9.270  -6.052  0.00  0.00    -0.646 OA
HETATM   21  O           1     -18.350  -9.074  -4.014  0.00  0.00    -0.646 OA
ENDBRANCH  15  19
ENDBRANCH  13  15
ENDBRANCH   1  11
BRANCH   1  22
HETATM   22  N           1     -23.481  -4.945  -6.360  0.00  0.00    -0.066 N 
HETATM   23  H           1     -23.917  -5.491  -5.583  0.00  0.00     0.275 HD
HETATM   24  H           1     -23.334  -3.957  -6.051  0.00  0.00     0.275 HD
HETATM   25  H           1     -24.111  -4.961  -7.194  0.00  0.00     0.275 HD
ENDBRANCH   1  22
TORSDOF 9
ENDMDL
MODEL 8
REMARK VINA RESULT:      -6.2     13.840     17.419
REMARK  9 active torsions:
REMARK  status: ('A' for Active; 'I' for Inactive)
REMARK    1  A    between atoms: O_1  and  C_25 
REMARK    2  A    between atoms: C_4  and  C_9 
REMARK    3  A    between atoms: C_4  and  C_5 
REMARK    4  A    between atoms: C_9  and  C_18 
REMARK    5  A    between atoms: C_9  and  N_22 
REMARK    6  A    between atoms: O_10  and  C_11 
REMARK    7  A    between atoms: C_11  and  C_12 
REMARK    8  A    between atoms: C_12  and  C_17 
REMARK    9  A    between atoms: C_12  and  N_24 
REMARK       I    between atoms: C_18  and  N_24 
ROOT
HETATM    1  C           1     -21.782  -5.761  -6.739  0.00  0.00     0.278 C 
ENDROOT
BRANCH   1   2
HETATM    2  C           1     -21.027  -4.515  -7.185  0.00  0.00     0.081 C 
BRANCH   2   3
HETATM    3  C           1     -21.215  -4.318  -8.657  0.00  0.00    -0.056 A 
HETATM    4  C           1     -22.455  -3.916  -9.154  0.00  0.00     0.010 A 
HETATM    5  C           1     -22.629  -3.732 -10.527  0.00  0.00     0.037 A 
HETATM    6  C           1     -21.564  -3.951 -11.401  0.00  0.00     0.065 A 
HETATM    7  C           1     -20.325  -4.352 -10.903  0.00  0.00     0.037 A 
HETATM    8  C           1     -20.150  -4.536  -9.531  0.00  0.00     0.010 A 
BRANCH   6   9
HETATM    9  O           1     -21.733  -3.772 -12.733  0.00  0.00    -0.361 OA
HETATM   10  H           1     -22.503  -3.194 -12.862  0.00  0.00     0.217 HD
ENDBRANCH   6   9
ENDBRANCH   2   3
ENDBRANCH   1   2
BRANCH   1  11
HETATM   11  C           1     -20.797  -6.801  -6.262  0.00  0.00     0.249 C 
HETATM   12  O           1     -19.658  -6.783  -6.661  0.00  0.00    -0.271 OA
HETATM   13  N           1     -21.197  -7.766  -5.376  0.00  0.00    -0.343 N 
HETATM   14  H           1     -22.151  -7.781  -5.041  0.00  0.00     0.163 HD
BRANCH  13  15
HETATM   15  C           1     -20.251  -8.765  -4.918  0.00  0.00     0.209 C 
BRANCH  15  16
HETATM   16  C           1     -20.041  -8.615  -3.417  0.00  0.00     0.200 C 
BRANCH  16  17
HETATM   17  O           1     -19.312  -9.710  -2.934  0.00  0.00    -0.398 OA
HETATM   18  H           1     -19.634  -9.894  -2.068  0.00  0.00     0.209 HD
ENDBRANCH  16  17
ENDBRANCH  15  16
BRANCH  15  19
HETATM   19  C           1     -20.794 -10.142  -5.214  0.00  0.00     0.198 C 
HETATM   20  O           1     -21.574 -10.693  -4.409  0.00  0.00    -0.646 OA
HETATM   21  O           1     -20.462 -10.731  -6.266  0.00  0.00    -0.646 OA
ENDBRANCH  15  19
ENDBRANCH  13  15
ENDBRANCH   1  11
BRANCH   1  22
HETATM   22  N           1     -22.715  -5.405  -5.620  0.00  0.00    -0.066 N 
HETATM   23  H           1     -23.175  -4.491  -5.827  0.00  0.00     0.275 HD
HETATM   24  H           1     -23.443  -6.149  -5.526  0.00  0.00     0.275 HD
HETATM   25  H           1     -22.176  -5.330  -4.728  0.00  0.00     0.275 HD
ENDBRANCH   1  22
TORSDOF 9
ENDMDL
MODEL 9
REMARK VINA RESULT:      -6.1      9.929     12.141
REMARK  9 active torsions:
REMARK  status: ('A' for Active; 'I' for Inactive)
REMARK    1  A    between atoms: O_1  and  C_25 
REMARK    2  A    between atoms: C_4  and  C_9 
REMARK    3  A    between atoms: C_4  and  C_5 
REMARK    4  A    between atoms: C_9  and  C_18 
REMARK    5  A    between atoms: C_9  and  N_22 
REMARK    6  A    between atoms: O_10  and  C_11 
REMARK    7  A    between atoms: C_11  and  C_12 
REMARK    8  A    between atoms: C_12  and  C_17 
REMARK    9  A    between atoms: C_12  and  N_24 
REMARK       I    between atoms: C_18  and  N_24 
ROOT
HETATM    1  C           1     -28.359  -6.633 -19.372  0.00  0.00     0.278 C 
ENDROOT
BRANCH   1   2
HETATM    2  C           1     -28.405  -6.169 -17.922  0.00  0.00     0.081 C 
BRANCH   2   3
HETATM    3  C           1     -29.701  -5.466 -17.664  0.00  0.00    -0.056 A 
HETATM    4  C           1     -30.805  -6.185 -17.208  0.00  0.00     0.010 A 
HETATM    5  C           1     -32.014  -5.529 -16.967  0.00  0.00     0.037 A 
HETATM    6  C           1     -32.115  -4.154 -17.181  0.00  0.00     0.065 A 
HETATM    7  C           1     -31.010  -3.436 -17.635  0.00  0.00     0.037 A 
HETATM    8  C           1     -29.802  -4.091 -17.877  0.00  0.00     0.010 A 
BRANCH   6   9
HETATM    9  O           1     -33.288  -3.518 -16.947  0.00  0.00    -0.361 OA
HETATM   10  H           1     -33.924  -3.803 -17.624  0.00  0.00     0.217 HD
ENDBRANCH   6   9
ENDBRANCH   2   3
ENDBRANCH   1   2
BRANCH   1  11
HETATM   11  C           1     -26.971  -6.423 -19.925  0.00  0.00     0.249 C 
HETATM   12  O           1     -26.788  -5.626 -20.813  0.00  0.00    -0.271 OA
HETATM   13  N           1     -25.917  -7.137 -19.419  0.00  0.00    -0.343 N 
HETATM   14  H           1     -26.070  -7.806 -18.675  0.00  0.00     0.163 HD
BRANCH  13  15
HETATM   15  C           1     -24.583  -6.936 -19.950  0.00  0.00     0.209 C 
BRANCH  15  16
HETATM   16  C           1     -23.565  -7.055 -18.824  0.00  0.00     0.200 C 
BRANCH  16  17
HETATM   17  O           1     -24.168  -6.705 -17.608  0.00  0.00    -0.398 OA
HETATM   18  H           1     -25.045  -7.049 -17.629  0.00  0.00     0.209 HD
ENDBRANCH  16  17
ENDBRANCH  15  16
BRANCH  15  19
HETATM   19  C           1     -24.298  -7.983 -20.999  0.00  0.00     0.198 C 
HETATM   20  O           1     -25.205  -8.357 -21.771  0.00  0.00    -0.646 OA
HETATM   21  O           1     -23.152  -8.475 -21.095  0.00  0.00    -0.646 OA
ENDBRANCH  15  19
ENDBRANCH  13  15
ENDBRANCH   1  11
BRANCH   1  22
HETATM   22  N           1     -28.708  -8.091 -19.440  0.00  0.00    -0.066 N 
HETATM   23  H           1     -27.963  -8.604 -19.962  0.00  0.00     0.275 HD
HETATM   24  H           1     -28.782  -8.476 -18.471  0.00  0.00     0.275 HD
HETATM   25  H           1     -29.622  -8.208 -19.933  0.00  0.00     0.275 HD
ENDBRANCH   1  22
TORSDOF 9
ENDMDL
