MODEL 1
REMARK VINA RESULT:      -7.6      0.000      0.000
REMARK  10 active torsions:
REMARK  status: ('A' for Active; 'I' for Inactive)
REMARK    1  A    between atoms: C_1  and  C_30 
REMARK    2  A    between atoms: N_10  and  C_17 
REMARK    3  A    between atoms: O_13  and  P_14 
REMARK    4  A    between atoms: P_14  and  O_15 
REMARK    5  A    between atoms: O_15  and  C_16 
REMARK    6  A    between atoms: C_16  and  C_17 
REMARK    7  A    between atoms: C_17  and  C_18 
REMARK       I    between atoms: C_18  and  N_19 
REMARK    8  A    between atoms: N_19  and  C_30 
REMARK    9  A    between atoms: C_28  and  C_29 
REMARK   10  A    between atoms: C_29  and  C_30 
ROOT
HETATM    1  H           1     -20.127  -7.447  -7.504  0.00  0.00     0.163 HD
HETATM    2  O           1     -19.229  -4.794  -7.104  0.00  0.00    -0.271 OA
HETATM    3  C           1     -20.237  -5.448  -6.981  0.00  0.00     0.251 C 
HETATM    4  N           1     -20.154  -6.791  -6.733  0.00  0.00    -0.344 N 
ENDROOT
BRANCH   4   5
HETATM    5  C           1     -20.107  -7.275  -5.367  0.00  0.00     0.190 C 
BRANCH   5   6
HETATM    6  C           1     -19.128  -8.420  -5.273  0.00  0.00     0.197 C 
HETATM    7  O           1     -18.575  -8.855  -6.305  0.00  0.00    -0.646 OA
HETATM    8  O           1     -18.872  -8.933  -4.161  0.00  0.00    -0.646 OA
ENDBRANCH   5   6
BRANCH   5   9
HETATM    9  C           1     -21.492  -7.755  -4.951  0.00  0.00     0.077 C 
BRANCH   9  10
HETATM   10  C           1     -21.807  -7.241  -3.581  0.00  0.00    -0.028 A 
HETATM   11  C           1     -21.860  -8.014  -2.387  0.00  0.00    -0.002 A 
HETATM   12  C           1     -21.661  -9.377  -2.093  0.00  0.00     0.014 A 
HETATM   13  C           1     -22.187  -7.142  -1.348  0.00  0.00     0.042 A 
HETATM   14  C           1     -21.795  -9.818  -0.771  0.00  0.00     0.001 A 
HETATM   15  C           1     -22.122  -8.924   0.247  0.00  0.00     0.002 A 
HETATM   16  C           1     -22.325  -7.567  -0.021  0.00  0.00     0.030 A 
HETATM   17  N           1     -22.325  -5.889  -1.899  0.00  0.00    -0.365 N 
HETATM   18  H           1     -22.569  -5.020  -1.363  0.00  0.00     0.165 HD
HETATM   19  C           1     -22.098  -5.937  -3.249  0.00  0.00     0.096 A 
ENDBRANCH   9  10
ENDBRANCH   5   9
ENDBRANCH   4   5
BRANCH   3  20
HETATM   20  C           1     -21.587  -4.783  -7.099  0.00  0.00     0.298 C 
BRANCH  20  21
HETATM   21  N           1     -21.454  -3.325  -6.774  0.00  0.00    -0.064 N 
HETATM   22  H           1     -21.913  -3.130  -5.855  0.00  0.00     0.275 HD
HETATM   23  H           1     -21.915  -2.757  -7.521  0.00  0.00     0.275 HD
HETATM   24  H           1     -20.441  -3.070  -6.719  0.00  0.00     0.275 HD
ENDBRANCH  20  21
BRANCH  20  25
HETATM   25  C           1     -22.107  -4.940  -8.521  0.00  0.00     0.224 C 
BRANCH  25  26
HETATM   26  O           1     -23.299  -4.215  -8.666  0.00  0.00    -0.287 OA
BRANCH  26  27
HETATM   27  P           1     -23.774  -3.931 -10.183  0.00  0.00     0.406 P 
HETATM   28  O           1     -23.828  -5.207 -10.931  0.00  0.00    -0.624 OA
HETATM   29  O           1     -25.116  -3.308 -10.171  0.00  0.00    -0.624 OA
BRANCH  27  30
HETATM   30  O           1     -22.725  -2.933 -10.899  0.00  0.00    -0.300 OA
HETATM   31  H           1     -23.258  -2.284 -11.324  0.00  0.00     0.223 HD
ENDBRANCH  27  30
ENDBRANCH  26  27
ENDBRANCH  25  26
ENDBRANCH  20  25
ENDBRANCH   3  20
TORSDOF 10
ENDMDL
MODEL 2
REMARK VINA RESULT:      -7.4      2.001      2.674
REMARK  10 active torsions:
REMARK  status: ('A' for Active; 'I' for Inactive)
REMARK    1  A    between atoms: C_1  and  C_30 
REMARK    2  A    between atoms: N_10  and  C_17 
REMARK    3  A    between atoms: O_13  and  P_14 
REMARK    4  A    between atoms: P_14  and  O_15 
REMARK    5  A    between atoms: O_15  and  C_16 
REMARK    6  A    between atoms: C_16  and  C_17 
REMARK    7  A    between atoms: C_17  and  C_18 
REMARK       I    between atoms: C_18  and  N_19 
REMARK    8  A    between atoms: N_19  and  C_30 
REMARK    9  A    between atoms: C_28  and  C_29 
REMARK   10  A    between atoms: C_29  and  C_30 
ROOT
HETATM    1  H           1     -19.611  -7.183  -6.923  0.00  0.00     0.163 HD
HETATM    2  O           1     -20.075  -4.494  -6.175  0.00  0.00    -0.271 OA
HETATM    3  C           1     -20.618  -5.380  -6.789  0.00  0.00     0.251 C 
HETATM    4  N           1     -20.368  -6.687  -6.469  0.00  0.00    -0.344 N 
ENDROOT
BRANCH   4   5
HETATM    5  C           1     -21.187  -7.362  -5.482  0.00  0.00     0.190 C 
BRANCH   5   6
HETATM    6  C           1     -21.984  -6.341  -4.707  0.00  0.00     0.197 C 
HETATM    7  O           1     -23.176  -6.121  -5.008  0.00  0.00    -0.646 OA
HETATM    8  O           1     -21.450  -5.716  -3.765  0.00  0.00    -0.646 OA
ENDBRANCH   5   6
BRANCH   5   9
HETATM    9  C           1     -20.291  -8.140  -4.526  0.00  0.00     0.077 C 
BRANCH   9  10
HETATM   10  C           1     -21.126  -9.077  -3.710  0.00  0.00    -0.028 A 
HETATM   11  C           1     -21.443  -8.933  -2.331  0.00  0.00    -0.002 A 
HETATM   12  C           1     -21.126  -7.976  -1.347  0.00  0.00     0.014 A 
HETATM   13  C           1     -22.239 -10.023  -1.976  0.00  0.00     0.042 A 
HETATM   14  C           1     -21.617  -8.142  -0.047  0.00  0.00     0.001 A 
HETATM   15  C           1     -22.410  -9.242   0.279  0.00  0.00     0.002 A 
HETATM   16  C           1     -22.737 -10.204  -0.680  0.00  0.00     0.030 A 
HETATM   17  N           1     -22.394 -10.794  -3.106  0.00  0.00    -0.365 N 
HETATM   18  H           1     -22.946 -11.686  -3.152  0.00  0.00     0.165 HD
HETATM   19  C           1     -21.726 -10.231  -4.160  0.00  0.00     0.096 A 
ENDBRANCH   9  10
ENDBRANCH   5   9
ENDBRANCH   4   5
BRANCH   3  20
HETATM   20  C           1     -21.575  -5.046  -7.908  0.00  0.00     0.298 C 
BRANCH  20  21
HETATM   21  N           1     -22.722  -4.248  -7.362  0.00  0.00    -0.064 N 
HETATM   22  H           1     -22.521  -3.229  -7.475  0.00  0.00     0.275 HD
HETATM   23  H           1     -22.849  -4.468  -6.349  0.00  0.00     0.275 HD
HETATM   24  H           1     -23.595  -4.492  -7.883  0.00  0.00     0.275 HD
ENDBRANCH  20  21
BRANCH  20  25
HETATM   25  C           1     -20.850  -4.232  -8.970  0.00  0.00     0.224 C 
BRANCH  25  26
HETATM   26  O           1     -21.177  -4.725 -10.242  0.00  0.00    -0.287 OA
BRANCH  26  27
HETATM   27  P           1     -22.201  -3.825 -11.107  0.00  0.00     0.406 P 
HETATM   28  O           1     -23.342  -3.419 -10.255  0.00  0.00    -0.624 OA
HETATM   29  O           1     -21.500  -2.619 -11.602  0.00  0.00    -0.624 OA
BRANCH  27  30
HETATM   30  O           1     -22.746  -4.683 -12.362  0.00  0.00    -0.300 OA
HETATM   31  H           1     -22.218  -4.408 -13.093  0.00  0.00     0.223 HD
ENDBRANCH  27  30
ENDBRANCH  26  27
ENDBRANCH  25  26
ENDBRANCH  20  25
ENDBRANCH   3  20
TORSDOF 10
ENDMDL
MODEL 3
REMARK VINA RESULT:      -7.3      1.312      1.996
REMARK  10 active torsions:
REMARK  status: ('A' for Active; 'I' for Inactive)
REMARK    1  A    between atoms: C_1  and  C_30 
REMARK    2  A    between atoms: N_10  and  C_17 
REMARK    3  A    between atoms: O_13  and  P_14 
REMARK    4  A    between atoms: P_14  and  O_15 
REMARK    5  A    between atoms: O_15  and  C_16 
REMARK    6  A    between atoms: C_16  and  C_17 
REMARK    7  A    between atoms: C_17  and  C_18 
REMARK       I    between atoms: C_18  and  N_19 
REMARK    8  A    between atoms: N_19  and  C_30 
REMARK    9  A    between atoms: C_28  and  C_29 
REMARK   10  A    between atoms: C_29  and  C_30 
ROOT
HETATM    1  H           1     -19.113  -7.484  -7.292  0.00  0.00     0.163 HD
HETATM    2  O           1     -19.623  -4.888  -6.290  0.00  0.00    -0.271 OA
HETATM    3  C           1     -20.232  -5.873  -6.632  0.00  0.00     0.251 C 
HETATM    4  N           1     -19.652  -7.108  -6.522  0.00  0.00    -0.344 N 
ENDROOT
BRANCH   4   5
HETATM    5  C           1     -19.811  -7.878  -5.303  0.00  0.00     0.190 C 
BRANCH   5   6
HETATM    6  C           1     -18.738  -8.936  -5.234  0.00  0.00     0.197 C 
HETATM    7  O           1     -18.437  -9.589  -6.255  0.00  0.00    -0.646 OA
HETATM    8  O           1     -18.150  -9.160  -4.153  0.00  0.00    -0.646 OA
ENDBRANCH   5   6
BRANCH   5   9
HETATM    9  C           1     -21.182  -8.543  -5.298  0.00  0.00     0.077 C 
BRANCH   9  10
HETATM   10  C           1     -21.487  -9.047  -3.923  0.00  0.00    -0.028 A 
HETATM   11  C           1     -21.773  -8.248  -2.781  0.00  0.00    -0.002 A 
HETATM   12  C           1     -21.863  -6.861  -2.554  0.00  0.00     0.014 A 
HETATM   13  C           1     -21.996  -9.119  -1.715  0.00  0.00     0.042 A 
HETATM   14  C           1     -22.174  -6.396  -1.270  0.00  0.00     0.001 A 
HETATM   15  C           1     -22.391  -7.291  -0.224  0.00  0.00     0.002 A 
HETATM   16  C           1     -22.307  -8.671  -0.425  0.00  0.00     0.030 A 
HETATM   17  N           1     -21.848 -10.399  -2.201  0.00  0.00    -0.365 N 
HETATM   18  H           1     -21.956 -11.274  -1.631  0.00  0.00     0.165 HD
HETATM   19  C           1     -21.540 -10.367  -3.535  0.00  0.00     0.096 A 
ENDBRANCH   9  10
ENDBRANCH   5   9
ENDBRANCH   4   5
BRANCH   3  20
HETATM   20  C           1     -21.632  -5.742  -7.181  0.00  0.00     0.298 C 
BRANCH  20  21
HETATM   21  N           1     -22.548  -5.254  -6.098  0.00  0.00    -0.064 N 
HETATM   22  H           1     -21.980  -4.890  -5.300  0.00  0.00     0.275 HD
HETATM   23  H           1     -23.150  -6.041  -5.768  0.00  0.00     0.275 HD
HETATM   24  H           1     -23.153  -4.487  -6.473  0.00  0.00     0.275 HD
ENDBRANCH  20  21
BRANCH  20  25
HETATM   25  C           1     -21.634  -4.749  -8.335  0.00  0.00     0.224 C 
BRANCH  25  26
HETATM   26  O           1     -22.792  -3.960  -8.271  0.00  0.00    -0.287 OA
BRANCH  26  27
HETATM   27  P           1     -23.615  -3.798  -9.651  0.00  0.00     0.406 P 
HETATM   28  O           1     -22.727  -3.231 -10.691  0.00  0.00    -0.624 OA
HETATM   29  O           1     -24.106  -5.123 -10.089  0.00  0.00    -0.624 OA
BRANCH  27  30
HETATM   30  O           1     -24.871  -2.809  -9.418  0.00  0.00    -0.300 OA
HETATM   31  H           1     -24.748  -2.458  -8.553  0.00  0.00     0.223 HD
ENDBRANCH  27  30
ENDBRANCH  26  27
ENDBRANCH  25  26
ENDBRANCH  20  25
ENDBRANCH   3  20
TORSDOF 10
ENDMDL
MODEL 4
REMARK VINA RESULT:      -7.0      4.088      8.236
REMARK  10 active torsions:
REMARK  status: ('A' for Active; 'I' for Inactive)
REMARK    1  A    between atoms: C_1  and  C_30 
REMARK    2  A    between atoms: N_10  and  C_17 
REMARK    3  A    between atoms: O_13  and  P_14 
REMARK    4  A    between atoms: P_14  and  O_15 
REMARK    5  A    between atoms: O_15  and  C_16 
REMARK    6  A    between atoms: C_16  and  C_17 
REMARK    7  A    between atoms: C_17  and  C_18 
REMARK       I    between atoms: C_18  and  N_19 
REMARK    8  A    between atoms: N_19  and  C_30 
REMARK    9  A    between atoms: C_28  and  C_29 
REMARK   10  A    between atoms: C_29  and  C_30 
ROOT
HETATM    1  H           1     -23.467  -6.289  -4.229  0.00  0.00     0.163 HD
HETATM    2  O           1     -21.082  -5.679  -2.834  0.00  0.00    -0.271 OA
HETATM    3  C           1     -21.661  -6.640  -3.281  0.00  0.00     0.251 C 
HETATM    4  N           1     -22.486  -6.499  -4.364  0.00  0.00    -0.344 N 
ENDROOT
BRANCH   4   5
HETATM    5  C           1     -21.955  -6.652  -5.704  0.00  0.00     0.190 C 
BRANCH   5   6
HETATM    6  C           1     -20.929  -7.760  -5.715  0.00  0.00     0.197 C 
HETATM    7  O           1     -21.299  -8.953  -5.738  0.00  0.00    -0.646 OA
HETATM    8  O           1     -19.710  -7.483  -5.700  0.00  0.00    -0.646 OA
ENDBRANCH   5   6
BRANCH   5   9
HETATM    9  C           1     -21.299  -5.348  -6.142  0.00  0.00     0.077 C 
BRANCH   9  10
HETATM   10  C           1     -22.068  -4.763  -7.285  0.00  0.00    -0.028 A 
HETATM   11  C           1     -21.571  -4.525  -8.596  0.00  0.00    -0.002 A 
HETATM   12  C           1     -20.326  -4.728  -9.224  0.00  0.00     0.014 A 
HETATM   13  C           1     -22.615  -3.973  -9.338  0.00  0.00     0.042 A 
HETATM   14  C           1     -20.171  -4.373 -10.569  0.00  0.00     0.001 A 
HETATM   15  C           1     -21.233  -3.823 -11.285  0.00  0.00     0.002 A 
HETATM   16  C           1     -22.477  -3.612 -10.684  0.00  0.00     0.030 A 
HETATM   17  N           1     -23.703  -3.882  -8.500  0.00  0.00    -0.365 N 
HETATM   18  H           1     -24.643  -3.504  -8.774  0.00  0.00     0.165 HD
HETATM   19  C           1     -23.383  -4.357  -7.255  0.00  0.00     0.096 A 
ENDBRANCH   9  10
ENDBRANCH   5   9
ENDBRANCH   4   5
BRANCH   3  20
HETATM   20  C           1     -21.476  -7.996  -2.644  0.00  0.00     0.298 C 
BRANCH  20  21
HETATM   21  N           1     -20.029  -8.385  -2.715  0.00  0.00    -0.064 N 
HETATM   22  H           1     -19.844  -8.874  -3.619  0.00  0.00     0.275 HD
HETATM   23  H           1     -19.801  -9.025  -1.920  0.00  0.00     0.275 HD
HETATM   24  H           1     -19.433  -7.528  -2.653  0.00  0.00     0.275 HD
ENDBRANCH  20  21
BRANCH  20  25
HETATM   25  C           1     -21.915  -7.937  -1.187  0.00  0.00     0.224 C 
BRANCH  25  26
HETATM   26  O           1     -20.901  -8.460  -0.371  0.00  0.00    -0.287 OA
BRANCH  26  27
HETATM   27  P           1     -21.106  -9.984   0.121  0.00  0.00     0.406 P 
HETATM   28  O           1     -22.551 -10.305   0.148  0.00  0.00    -0.624 OA
HETATM   29  O           1     -20.413 -10.901  -0.812  0.00  0.00    -0.624 OA
BRANCH  27  30
HETATM   30  O           1     -20.489 -10.160   1.603  0.00  0.00    -0.300 OA
HETATM   31  H           1     -20.084 -11.010   1.600  0.00  0.00     0.223 HD
ENDBRANCH  27  30
ENDBRANCH  26  27
ENDBRANCH  25  26
ENDBRANCH  20  25
ENDBRANCH   3  20
TORSDOF 10
ENDMDL
MODEL 5
REMARK VINA RESULT:      -6.9      2.937      5.295
REMARK  10 active torsions:
REMARK  status: ('A' for Active; 'I' for Inactive)
REMARK    1  A    between atoms: C_1  and  C_30 
REMARK    2  A    between atoms: N_10  and  C_17 
REMARK    3  A    between atoms: O_13  and  P_14 
REMARK    4  A    between atoms: P_14  and  O_15 
REMARK    5  A    between atoms: O_15  and  C_16 
REMARK    6  A    between atoms: C_16  and  C_17 
REMARK    7  A    between atoms: C_17  and  C_18 
REMARK       I    between atoms: C_18  and  N_19 
REMARK    8  A    between atoms: N_19  and  C_30 
REMARK    9  A    between atoms: C_28  and  C_29 
REMARK   10  A    between atoms: C_29  and  C_30 
ROOT
HETATM    1  H           1     -19.942  -7.085  -2.068  0.00  0.00     0.163 HD
HETATM    2  O           1     -22.459  -5.832  -2.391  0.00  0.00    -0.271 OA
HETATM    3  C           1     -21.708  -6.551  -3.006  0.00  0.00     0.251 C 
HETATM    4  N           1     -20.867  -7.397  -2.334  0.00  0.00    -0.344 N 
ENDROOT
BRANCH   4   5
HETATM    5  C           1     -21.302  -8.741  -2.005  0.00  0.00     0.190 C 
BRANCH   5   6
HETATM    6  C           1     -21.931  -8.744  -0.633  0.00  0.00     0.197 C 
HETATM    7  O           1     -22.995  -9.367  -0.436  0.00  0.00    -0.646 OA
HETATM    8  O           1     -21.387  -8.121   0.305  0.00  0.00    -0.646 OA
ENDBRANCH   5   6
BRANCH   5   9
HETATM    9  C           1     -20.101  -9.679  -2.016  0.00  0.00     0.077 C 
BRANCH   9  10
HETATM   10  C           1     -19.569  -9.792  -3.410  0.00  0.00    -0.028 A 
HETATM   11  C           1     -18.198  -9.760  -3.789  0.00  0.00    -0.002 A 
HETATM   12  C           1     -16.989  -9.625  -3.081  0.00  0.00     0.014 A 
HETATM   13  C           1     -18.152  -9.897  -5.177  0.00  0.00     0.042 A 
HETATM   14  C           1     -15.778  -9.634  -3.784  0.00  0.00     0.001 A 
HETATM   15  C           1     -15.763  -9.773  -5.171  0.00  0.00     0.002 A 
HETATM   16  C           1     -16.951  -9.908  -5.896  0.00  0.00     0.030 A 
HETATM   17  N           1     -19.452 -10.009  -5.615  0.00  0.00    -0.365 N 
HETATM   18  H           1     -19.740 -10.125  -6.618  0.00  0.00     0.165 HD
HETATM   19  C           1     -20.317  -9.946  -4.555  0.00  0.00     0.096 A 
ENDBRANCH   9  10
ENDBRANCH   5   9
ENDBRANCH   4   5
BRANCH   3  20
HETATM   20  C           1     -21.697  -6.517  -4.515  0.00  0.00     0.298 C 
BRANCH  20  21
HETATM   21  N           1     -23.064  -6.155  -5.015  0.00  0.00    -0.064 N 
HETATM   22  H           1     -23.081  -5.146  -5.284  0.00  0.00     0.275 HD
HETATM   23  H           1     -23.768  -6.327  -4.262  0.00  0.00     0.275 HD
HETATM   24  H           1     -23.297  -6.742  -5.849  0.00  0.00     0.275 HD
ENDBRANCH  20  21
BRANCH  20  25
HETATM   25  C           1     -20.691  -5.479  -4.992  0.00  0.00     0.224 C 
BRANCH  25  26
HETATM   26  O           1     -21.230  -4.768  -6.075  0.00  0.00    -0.287 OA
BRANCH  26  27
HETATM   27  P           1     -20.563  -5.063  -7.516  0.00  0.00     0.406 P 
HETATM   28  O           1     -19.564  -4.014  -7.821  0.00  0.00    -0.624 OA
HETATM   29  O           1     -19.900  -6.386  -7.491  0.00  0.00    -0.624 OA
BRANCH  27  30
HETATM   30  O           1     -21.710  -5.059  -8.653  0.00  0.00    -0.300 OA
HETATM   31  H           1     -21.881  -5.968  -8.830  0.00  0.00     0.223 HD
ENDBRANCH  27  30
ENDBRANCH  26  27
ENDBRANCH  25  26
ENDBRANCH  20  25
ENDBRANCH   3  20
TORSDOF 10
ENDMDL
MODEL 6
REMARK VINA RESULT:      -6.7      4.300      6.601
REMARK  10 active torsions:
REMARK  status: ('A' for Active; 'I' for Inactive)
REMARK    1  A    between atoms: C_1  and  C_30 
REMARK    2  A    between atoms: N_10  and  C_17 
REMARK    3  A    between atoms: O_13  and  P_14 
REMARK    4  A    between atoms: P_14  and  O_15 
REMARK    5  A    between atoms: O_15  and  C_16 
REMARK    6  A    between atoms: C_16  and  C_17 
REMARK    7  A    between atoms: C_17  and  C_18 
REMARK       I    between atoms: C_18  and  N_19 
REMARK    8  A    between atoms: N_19  and  C_30 
REMARK    9  A    between atoms: C_28  and  C_29 
REMARK   10  A    between atoms: C_29  and  C_30 
ROOT
HETATM    1  H           1     -19.427  -7.454  -4.038  0.00  0.00     0.163 HD
HETATM    2  O           1     -21.183  -8.266  -6.102  0.00  0.00    -0.271 OA
HETATM    3  C           1     -20.605  -8.738  -5.153  0.00  0.00     0.251 C 
HETATM    4  N           1     -20.307  -7.952  -4.073  0.00  0.00    -0.344 N 
ENDROOT
BRANCH   4   5
HETATM    5  C           1     -21.251  -7.834  -2.979  0.00  0.00     0.190 C 
BRANCH   5   6
HETATM    6  C           1     -21.831  -6.441  -2.964  0.00  0.00     0.197 C 
HETATM    7  O           1     -22.536  -6.068  -2.002  0.00  0.00    -0.646 OA
HETATM    8  O           1     -21.607  -5.660  -3.915  0.00  0.00    -0.646 OA
ENDBRANCH   5   6
BRANCH   5   9
HETATM    9  C           1     -20.537  -8.101  -1.661  0.00  0.00     0.077 C 
BRANCH   9  10
HETATM   10  C           1     -20.636  -9.557  -1.325  0.00  0.00    -0.028 A 
HETATM   11  C           1     -21.783 -10.221  -0.808  0.00  0.00    -0.002 A 
HETATM   12  C           1     -23.084  -9.805  -0.463  0.00  0.00     0.014 A 
HETATM   13  C           1     -21.440 -11.563  -0.642  0.00  0.00     0.042 A 
HETATM   14  C           1     -23.994 -10.746   0.033  0.00  0.00     0.001 A 
HETATM   15  C           1     -23.623 -12.081   0.188  0.00  0.00     0.002 A 
HETATM   16  C           1     -22.338 -12.517  -0.147  0.00  0.00     0.030 A 
HETATM   17  N           1     -20.131 -11.699  -1.047  0.00  0.00    -0.365 N 
HETATM   18  H           1     -19.591 -12.599  -1.039  0.00  0.00     0.165 HD
HETATM   19  C           1     -19.635 -10.492  -1.462  0.00  0.00     0.096 A 
ENDBRANCH   9  10
ENDBRANCH   5   9
ENDBRANCH   4   5
BRANCH   3  20
HETATM   20  C           1     -20.214 -10.196  -5.157  0.00  0.00     0.298 C 
BRANCH  20  21
HETATM   21  N           1     -20.964 -10.911  -6.241  0.00  0.00    -0.064 N 
HETATM   22  H           1     -21.967 -10.620  -6.220  0.00  0.00     0.275 HD
HETATM   23  H           1     -20.897 -11.943  -6.090  0.00  0.00     0.275 HD
HETATM   24  H           1     -20.550 -10.668  -7.170  0.00  0.00     0.275 HD
ENDBRANCH  20  21
BRANCH  20  25
HETATM   25  C           1     -18.717 -10.319  -5.410  0.00  0.00     0.224 C 
BRANCH  25  26
HETATM   26  O           1     -18.019  -9.543  -4.473  0.00  0.00    -0.287 OA
BRANCH  26  27
HETATM   27  P           1     -16.550 -10.076  -4.068  0.00  0.00     0.406 P 
HETATM   28  O           1     -16.602 -11.536  -3.831  0.00  0.00    -0.624 OA
HETATM   29  O           1     -15.601  -9.787  -5.167  0.00  0.00    -0.624 OA
BRANCH  27  30
HETATM   30  O           1     -16.056  -9.330  -2.723  0.00  0.00    -0.300 OA
HETATM   31  H           1     -15.628  -9.999  -2.216  0.00  0.00     0.223 HD
ENDBRANCH  27  30
ENDBRANCH  26  27
ENDBRANCH  25  26
ENDBRANCH  20  25
ENDBRANCH   3  20
TORSDOF 10
ENDMDL
MODEL 7
REMARK VINA RESULT:      -6.6      1.521      2.078
REMARK  10 active torsions:
REMARK  status: ('A' for Active; 'I' for Inactive)
REMARK    1  A    between atoms: C_1  and  C_30 
REMARK    2  A    between atoms: N_10  and  C_17 
REMARK    3  A    between atoms: O_13  and  P_14 
REMARK    4  A    between atoms: P_14  and  O_15 
REMARK    5  A    between atoms: O_15  and  C_16 
REMARK    6  A    between atoms: C_16  and  C_17 
REMARK    7  A    between atoms: C_17  and  C_18 
REMARK       I    between atoms: C_18  and  N_19 
REMARK    8  A    between atoms: N_19  and  C_30 
REMARK    9  A    between atoms: C_28  and  C_29 
REMARK   10  A    between atoms: C_29  and  C_30 
ROOT
HETATM    1  H           1     -21.811  -8.055  -6.732  0.00  0.00     0.163 HD
HETATM    2  O           1     -19.531  -6.501  -7.357  0.00  0.00    -0.271 OA
HETATM    3  C           1     -20.521  -6.438  -6.669  0.00  0.00     0.251 C 
HETATM    4  N           1     -21.096  -7.585  -6.191  0.00  0.00    -0.344 N 
ENDROOT
BRANCH   4   5
HETATM    5  C           1     -20.682  -8.125  -4.911  0.00  0.00     0.190 C 
BRANCH   5   6
HETATM    6  C           1     -19.718  -9.265  -5.135  0.00  0.00     0.197 C 
HETATM    7  O           1     -18.583  -9.234  -4.614  0.00  0.00    -0.646 OA
HETATM    8  O           1     -20.056 -10.240  -5.842  0.00  0.00    -0.646 OA
ENDBRANCH   5   6
BRANCH   5   9
HETATM    9  C           1     -21.903  -8.634  -4.156  0.00  0.00     0.077 C 
BRANCH   9  10
HETATM   10  C           1     -21.562  -8.797  -2.708  0.00  0.00    -0.028 A 
HETATM   11  C           1     -21.983  -9.861  -1.863  0.00  0.00    -0.002 A 
HETATM   12  C           1     -22.777 -11.009  -2.053  0.00  0.00     0.014 A 
HETATM   13  C           1     -21.441  -9.622  -0.600  0.00  0.00     0.042 A 
HETATM   14  C           1     -22.998 -11.875  -0.976  0.00  0.00     0.001 A 
HETATM   15  C           1     -22.444 -11.610   0.275  0.00  0.00     0.002 A 
HETATM   16  C           1     -21.653 -10.477   0.488  0.00  0.00     0.030 A 
HETATM   17  N           1     -20.719  -8.453  -0.685  0.00  0.00    -0.365 N 
HETATM   18  H           1     -20.192  -8.013   0.110  0.00  0.00     0.165 HD
HETATM   19  C           1     -20.786  -7.946  -1.955  0.00  0.00     0.096 A 
ENDBRANCH   9  10
ENDBRANCH   5   9
ENDBRANCH   4   5
BRANCH   3  20
HETATM   20  C           1     -21.124  -5.095  -6.334  0.00  0.00     0.298 C 
BRANCH  20  21
HETATM   21  N           1     -20.195  -4.344  -5.428  0.00  0.00    -0.064 N 
HETATM   22  H           1     -19.796  -4.998  -4.717  0.00  0.00     0.275 HD
HETATM   23  H           1     -20.720  -3.582  -4.944  0.00  0.00     0.275 HD
HETATM   24  H           1     -19.419  -3.927  -5.991  0.00  0.00     0.275 HD
ENDBRANCH  20  21
BRANCH  20  25
HETATM   25  C           1     -21.336  -4.301  -7.615  0.00  0.00     0.224 C 
BRANCH  25  26
HETATM   26  O           1     -22.047  -5.082  -8.538  0.00  0.00    -0.287 OA
BRANCH  26  27
HETATM   27  P           1     -23.091  -4.289  -9.480  0.00  0.00     0.406 P 
HETATM   28  O           1     -22.367  -3.269 -10.271  0.00  0.00    -0.624 OA
HETATM   29  O           1     -23.754  -5.246 -10.395  0.00  0.00    -0.624 OA
BRANCH  27  30
HETATM   30  O           1     -24.205  -3.566  -8.561  0.00  0.00    -0.300 OA
HETATM   31  H           1     -24.888  -3.315  -9.159  0.00  0.00     0.223 HD
ENDBRANCH  27  30
ENDBRANCH  26  27
ENDBRANCH  25  26
ENDBRANCH  20  25
ENDBRANCH   3  20
TORSDOF 10
ENDMDL
MODEL 8
REMARK VINA RESULT:      -6.6      2.889      4.603
REMARK  10 active torsions:
REMARK  status: ('A' for Active; 'I' for Inactive)
REMARK    1  A    between atoms: C_1  and  C_30 
REMARK    2  A    between atoms: N_10  and  C_17 
REMARK    3  A    between atoms: O_13  and  P_14 
REMARK    4  A    between atoms: P_14  and  O_15 
REMARK    5  A    between atoms: O_15  and  C_16 
REMARK    6  A    between atoms: C_16  and  C_17 
REMARK    7  A    between atoms: C_17  and  C_18 
REMARK       I    between atoms: C_18  and  N_19 
REMARK    8  A    between atoms: N_19  and  C_30 
REMARK    9  A    between atoms: C_28  and  C_29 
REMARK   10  A    between atoms: C_29  and  C_30 
ROOT
HETATM    1  H           1     -20.757  -5.898  -2.400  0.00  0.00     0.163 HD
HETATM    2  O           1     -22.708  -6.099  -4.439  0.00  0.00    -0.271 OA
HETATM    3  C           1     -21.596  -6.500  -4.193  0.00  0.00     0.251 C 
HETATM    4  N           1     -21.199  -6.663  -2.893  0.00  0.00    -0.344 N 
ENDROOT
BRANCH   4   5
HETATM    5  C           1     -21.411  -7.931  -2.224  0.00  0.00     0.190 C 
BRANCH   5   6
HETATM    6  C           1     -22.110  -7.694  -0.907  0.00  0.00     0.197 C 
HETATM    7  O           1     -22.753  -6.639  -0.723  0.00  0.00    -0.646 OA
HETATM    8  O           1     -22.045  -8.553  -0.001  0.00  0.00    -0.646 OA
ENDBRANCH   5   6
BRANCH   5   9
HETATM    9  C           1     -20.067  -8.603  -1.972  0.00  0.00     0.077 C 
BRANCH   9  10
HETATM   10  C           1     -19.717  -9.472  -3.139  0.00  0.00    -0.028 A 
HETATM   11  C           1     -20.572 -10.422  -3.763  0.00  0.00    -0.002 A 
HETATM   12  C           1     -21.898 -10.843  -3.539  0.00  0.00     0.014 A 
HETATM   13  C           1     -19.848 -11.006  -4.803  0.00  0.00     0.042 A 
HETATM   14  C           1     -22.451 -11.829  -4.364  0.00  0.00     0.001 A 
HETATM   15  C           1     -21.704 -12.394  -5.396  0.00  0.00     0.002 A 
HETATM   16  C           1     -20.387 -11.994  -5.637  0.00  0.00     0.030 A 
HETATM   17  N           1     -18.600 -10.425  -4.803  0.00  0.00    -0.365 N 
HETATM   18  H           1     -17.829 -10.659  -5.475  0.00  0.00     0.165 HD
HETATM   19  C           1     -18.510  -9.496  -3.801  0.00  0.00     0.096 A 
ENDBRANCH   9  10
ENDBRANCH   5   9
ENDBRANCH   4   5
BRANCH   3  20
HETATM   20  C           1     -20.644  -6.823  -5.320  0.00  0.00     0.298 C 
BRANCH  20  21
HETATM   21  N           1     -21.216  -7.931  -6.153  0.00  0.00    -0.064 N 
HETATM   22  H           1     -20.499  -8.256  -6.840  0.00  0.00     0.275 HD
HETATM   23  H           1     -22.058  -7.584  -6.666  0.00  0.00     0.275 HD
HETATM   24  H           1     -21.491  -8.728  -5.533  0.00  0.00     0.275 HD
ENDBRANCH  20  21
BRANCH  20  25
HETATM   25  C           1     -20.445  -5.587  -6.186  0.00  0.00     0.224 C 
BRANCH  25  26
HETATM   26  O           1     -21.270  -5.671  -7.317  0.00  0.00    -0.287 OA
BRANCH  26  27
HETATM   27  P           1     -22.162  -4.364  -7.641  0.00  0.00     0.406 P 
HETATM   28  O           1     -21.444  -3.152  -7.187  0.00  0.00    -0.624 OA
HETATM   29  O           1     -22.403  -4.281  -9.099  0.00  0.00    -0.624 OA
BRANCH  27  30
HETATM   30  O           1     -23.577  -4.471  -6.868  0.00  0.00    -0.300 OA
HETATM   31  H           1     -23.896  -5.335  -7.063  0.00  0.00     0.223 HD
ENDBRANCH  27  30
ENDBRANCH  26  27
ENDBRANCH  25  26
ENDBRANCH  20  25
ENDBRANCH   3  20
TORSDOF 10
ENDMDL
MODEL 9
REMARK VINA RESULT:      -6.6      4.709      7.369
REMARK  10 active torsions:
REMARK  status: ('A' for Active; 'I' for Inactive)
REMARK    1  A    between atoms: C_1  and  C_30 
REMARK    2  A    between atoms: N_10  and  C_17 
REMARK    3  A    between atoms: O_13  and  P_14 
REMARK    4  A    between atoms: P_14  and  O_15 
REMARK    5  A    between atoms: O_15  and  C_16 
REMARK    6  A    between atoms: C_16  and  C_17 
REMARK    7  A    between atoms: C_17  and  C_18 
REMARK       I    between atoms: C_18  and  N_19 
REMARK    8  A    between atoms: N_19  and  C_30 
REMARK    9  A    between atoms: C_28  and  C_29 
REMARK   10  A    between atoms: C_29  and  C_30 
ROOT
HETATM    1  H           1     -19.572  -9.684  -2.731  0.00  0.00     0.163 HD
HETATM    2  O           1     -20.395 -12.359  -3.140  0.00  0.00    -0.271 OA
HETATM    3  C           1     -20.882 -11.267  -2.977  0.00  0.00     0.251 C 
HETATM    4  N           1     -20.201 -10.148  -3.374  0.00  0.00    -0.344 N 
ENDROOT
BRANCH   4   5
HETATM    5  C           1     -20.382  -9.627  -4.715  0.00  0.00     0.190 C 
BRANCH   5   6
HETATM    6  C           1     -19.733 -10.561  -5.708  0.00  0.00     0.197 C 
HETATM    7  O           1     -18.489 -10.676  -5.736  0.00  0.00    -0.646 OA
HETATM    8  O           1     -20.440 -11.217  -6.504  0.00  0.00    -0.646 OA
ENDBRANCH   5   6
BRANCH   5   9
HETATM    9  C           1     -19.738  -8.250  -4.816  0.00  0.00     0.077 C 
BRANCH   9  10
HETATM   10  C           1     -20.779  -7.237  -5.176  0.00  0.00    -0.028 A 
HETATM   11  C           1     -20.655  -6.222  -6.164  0.00  0.00    -0.002 A 
HETATM   12  C           1     -19.633  -5.842  -7.056  0.00  0.00     0.014 A 
HETATM   13  C           1     -21.852  -5.506  -6.170  0.00  0.00     0.042 A 
HETATM   14  C           1     -19.845  -4.763  -7.921  0.00  0.00     0.001 A 
HETATM   15  C           1     -21.052  -4.066  -7.906  0.00  0.00     0.002 A 
HETATM   16  C           1     -22.081  -4.424  -7.029  0.00  0.00     0.030 A 
HETATM   17  N           1     -22.668  -6.073  -5.217  0.00  0.00    -0.365 N 
HETATM   18  H           1     -23.640  -5.750  -4.989  0.00  0.00     0.165 HD
HETATM   19  C           1     -22.029  -7.121  -4.610  0.00  0.00     0.096 A 
ENDBRANCH   9  10
ENDBRANCH   5   9
ENDBRANCH   4   5
BRANCH   3  20
HETATM   20  C           1     -22.242 -11.135  -2.335  0.00  0.00     0.298 C 
BRANCH  20  21
HETATM   21  N           1     -22.867 -12.492  -2.208  0.00  0.00    -0.064 N 
HETATM   22  H           1     -22.235 -13.208  -2.633  0.00  0.00     0.275 HD
HETATM   23  H           1     -23.787 -12.501  -2.703  0.00  0.00     0.275 HD
HETATM   24  H           1     -23.014 -12.715  -1.197  0.00  0.00     0.275 HD
ENDBRANCH  20  21
BRANCH  20  25
HETATM   25  C           1     -22.093 -10.513  -0.953  0.00  0.00     0.224 C 
BRANCH  25  26
HETATM   26  O           1     -22.790  -9.297  -0.910  0.00  0.00    -0.287 OA
BRANCH  26  27
HETATM   27  P           1     -21.917  -7.995  -0.522  0.00  0.00     0.406 P 
HETATM   28  O           1     -20.637  -8.020  -1.265  0.00  0.00    -0.624 OA
HETATM   29  O           1     -22.671  -6.772  -0.878  0.00  0.00    -0.624 OA
BRANCH  27  30
HETATM   30  O           1     -21.618  -7.999   1.065  0.00  0.00    -0.300 OA
HETATM   31  H           1     -20.694  -8.169   1.139  0.00  0.00     0.223 HD
ENDBRANCH  27  30
ENDBRANCH  26  27
ENDBRANCH  25  26
ENDBRANCH  20  25
ENDBRANCH   3  20
TORSDOF 10
ENDMDL
