MODEL 1
REMARK VINA RESULT:      -6.8      0.000      0.000
REMARK  10 active torsions:
REMARK  status: ('A' for Active; 'I' for Inactive)
REMARK       I    between atoms: N_1  and  C_11 
REMARK    1  A    between atoms: C_2  and  C_3 
REMARK    2  A    between atoms: C_3  and  C_4 
REMARK    3  A    between atoms: C_3  and  N_7 
REMARK    4  A    between atoms: C_4  and  C_14 
REMARK    5  A    between atoms: C_5  and  C_6 
REMARK    6  A    between atoms: C_5  and  C_10 
REMARK    7  A    between atoms: C_5  and  N_22 
REMARK       I    between atoms: C_6  and  N_7 
REMARK    8  A    between atoms: C_8  and  C_9 
REMARK       I    between atoms: C_8  and  N_18 
REMARK    9  A    between atoms: C_9  and  C_10 
REMARK   10  A    between atoms: C_11  and  C_14 
ROOT
HETATM    1  C           1     -25.647  -6.502 -18.134  0.00  0.00     0.249 C 
HETATM    2  N           1     -26.939  -6.145 -17.861  0.00  0.00    -0.345 N 
HETATM    3  H           1     -27.596  -6.001 -18.617  0.00  0.00     0.163 HD
HETATM    4  O           1     -24.863  -6.674 -17.230  0.00  0.00    -0.271 OA
ENDROOT
BRANCH   1   5
HETATM    5  C           1     -25.200  -6.680 -19.564  0.00  0.00     0.275 C 
BRANCH   5   6
HETATM    6  C           1     -26.421  -6.786 -20.469  0.00  0.00     0.052 C 
BRANCH   6   7
HETATM    7  C           1     -26.460  -8.166 -21.111  0.00  0.00     0.105 C 
BRANCH   7   8
HETATM    8  C           1     -27.818  -8.785 -20.892  0.00  0.00     0.215 C 
HETATM    9  N           1     -28.618  -8.338 -19.873  0.00  0.00    -0.370 N 
HETATM   10  H           1     -29.529  -8.753 -19.727  0.00  0.00     0.159 HD
HETATM   11  H           1     -28.298  -7.594 -19.268  0.00  0.00     0.159 HD
HETATM   12  O           1     -28.201  -9.673 -21.615  0.00  0.00    -0.274 OA
ENDBRANCH   7   8
ENDBRANCH   6   7
ENDBRANCH   5   6
BRANCH   5  13
HETATM   13  N           1     -24.383  -7.933 -19.680  0.00  0.00    -0.066 N 
HETATM   14  H           1     -23.367  -7.693 -19.630  0.00  0.00     0.275 HD
HETATM   15  H           1     -24.626  -8.580 -18.897  0.00  0.00     0.275 HD
HETATM   16  H           1     -24.587  -8.398 -20.594  0.00  0.00     0.275 HD
ENDBRANCH   5  13
ENDBRANCH   1   5
BRANCH   2  17
HETATM   17  C           1     -27.369  -5.973 -16.487  0.00  0.00     0.186 C 
BRANCH  17  18
HETATM   18  C           1     -28.162  -7.182 -16.053  0.00  0.00     0.196 C 
HETATM   19  O           1     -29.026  -7.668 -16.814  0.00  0.00    -0.646 OA
HETATM   20  O           1     -27.955  -7.695 -14.933  0.00  0.00    -0.646 OA
ENDBRANCH  17  18
BRANCH  17  21
HETATM   21  C           1     -28.240  -4.729 -16.378  0.00  0.00     0.045 C 
BRANCH  21  22
HETATM   22  C           1     -28.926  -4.470 -17.713  0.00  0.00     0.105 C 
BRANCH  22  23
HETATM   23  C           1     -30.383  -4.158 -17.479  0.00  0.00     0.215 C 
HETATM   24  N           1     -30.856  -2.892 -17.696  0.00  0.00    -0.370 N 
HETATM   25  H           1     -30.227  -2.165 -18.013  0.00  0.00     0.159 HD
HETATM   26  H           1     -31.834  -2.682 -17.538  0.00  0.00     0.159 HD
HETATM   27  O           1     -31.133  -5.025 -17.100  0.00  0.00    -0.274 OA
ENDBRANCH  22  23
ENDBRANCH  21  22
ENDBRANCH  17  21
ENDBRANCH   2  17
TORSDOF 10
ENDMDL
MODEL 2
REMARK VINA RESULT:      -6.8      1.864      5.821
REMARK  10 active torsions:
REMARK  status: ('A' for Active; 'I' for Inactive)
REMARK       I    between atoms: N_1  and  C_11 
REMARK    1  A    between atoms: C_2  and  C_3 
REMARK    2  A    between atoms: C_3  and  C_4 
REMARK    3  A    between atoms: C_3  and  N_7 
REMARK    4  A    between atoms: C_4  and  C_14 
REMARK    5  A    between atoms: C_5  and  C_6 
REMARK    6  A    between atoms: C_5  and  C_10 
REMARK    7  A    between atoms: C_5  and  N_22 
REMARK       I    between atoms: C_6  and  N_7 
REMARK    8  A    between atoms: C_8  and  C_9 
REMARK       I    between atoms: C_8  and  N_18 
REMARK    9  A    between atoms: C_9  and  C_10 
REMARK   10  A    between atoms: C_11  and  C_14 
ROOT
HETATM    1  C           1     -28.299  -6.224 -18.669  0.00  0.00     0.249 C 
HETATM    2  N           1     -27.423  -7.135 -19.194  0.00  0.00    -0.345 N 
HETATM    3  H           1     -27.310  -8.039 -18.754  0.00  0.00     0.163 HD
HETATM    4  O           1     -28.434  -5.144 -19.194  0.00  0.00    -0.271 OA
ENDROOT
BRANCH   1   5
HETATM    5  C           1     -29.096  -6.567 -17.435  0.00  0.00     0.275 C 
BRANCH   5   6
HETATM    6  C           1     -29.476  -5.287 -16.702  0.00  0.00     0.052 C 
BRANCH   6   7
HETATM    7  C           1     -30.945  -4.975 -16.953  0.00  0.00     0.105 C 
BRANCH   7   8
HETATM    8  C           1     -31.076  -3.577 -17.504  0.00  0.00     0.215 C 
HETATM    9  N           1     -29.954  -2.830 -17.750  0.00  0.00    -0.370 N 
HETATM   10  H           1     -30.043  -1.892 -18.120  0.00  0.00     0.159 HD
HETATM   11  H           1     -29.038  -3.215 -17.562  0.00  0.00     0.159 HD
HETATM   12  O           1     -32.169  -3.116 -17.730  0.00  0.00    -0.274 OA
ENDBRANCH   7   8
ENDBRANCH   6   7
ENDBRANCH   5   6
BRANCH   5  13
HETATM   13  N           1     -28.270  -7.434 -16.531  0.00  0.00    -0.066 N 
HETATM   14  H           1     -28.047  -8.331 -17.017  0.00  0.00     0.275 HD
HETATM   15  H           1     -27.383  -6.938 -16.291  0.00  0.00     0.275 HD
HETATM   16  H           1     -28.806  -7.635 -15.656  0.00  0.00     0.275 HD
ENDBRANCH   5  13
ENDBRANCH   1   5
BRANCH   2  17
HETATM   17  C           1     -26.657  -6.805 -20.380  0.00  0.00     0.186 C 
BRANCH  17  18
HETATM   18  C           1     -26.499  -8.039 -21.236  0.00  0.00     0.196 C 
HETATM   19  O           1     -27.449  -8.841 -21.357  0.00  0.00    -0.646 OA
HETATM   20  O           1     -25.417  -8.257 -21.822  0.00  0.00    -0.646 OA
ENDBRANCH  17  18
BRANCH  17  21
HETATM   21  C           1     -25.283  -6.291 -19.970  0.00  0.00     0.045 C 
BRANCH  21  22
HETATM   22  C           1     -24.523  -7.394 -19.245  0.00  0.00     0.105 C 
BRANCH  22  23
HETATM   23  C           1     -24.483  -7.090 -17.768  0.00  0.00     0.215 C 
HETATM   24  N           1     -23.572  -7.720 -16.964  0.00  0.00    -0.370 N 
HETATM   25  H           1     -22.925  -8.390 -17.361  0.00  0.00     0.159 HD
HETATM   26  H           1     -23.545  -7.517 -15.973  0.00  0.00     0.159 HD
HETATM   27  O           1     -25.255  -6.291 -17.294  0.00  0.00    -0.274 OA
ENDBRANCH  22  23
ENDBRANCH  21  22
ENDBRANCH  17  21
ENDBRANCH   2  17
TORSDOF 10
ENDMDL
MODEL 3
REMARK VINA RESULT:      -6.8      2.109      2.694
REMARK  10 active torsions:
REMARK  status: ('A' for Active; 'I' for Inactive)
REMARK       I    between atoms: N_1  and  C_11 
REMARK    1  A    between atoms: C_2  and  C_3 
REMARK    2  A    between atoms: C_3  and  C_4 
REMARK    3  A    between atoms: C_3  and  N_7 
REMARK    4  A    between atoms: C_4  and  C_14 
REMARK    5  A    between atoms: C_5  and  C_6 
REMARK    6  A    between atoms: C_5  and  C_10 
REMARK    7  A    between atoms: C_5  and  N_22 
REMARK       I    between atoms: C_6  and  N_7 
REMARK    8  A    between atoms: C_8  and  C_9 
REMARK       I    between atoms: C_8  and  N_18 
REMARK    9  A    between atoms: C_9  and  C_10 
REMARK   10  A    between atoms: C_11  and  C_14 
ROOT
HETATM    1  C           1     -26.348  -6.173 -17.320  0.00  0.00     0.249 C 
HETATM    2  N           1     -27.489  -6.563 -17.967  0.00  0.00    -0.345 N 
HETATM    3  H           1     -27.428  -7.131 -18.802  0.00  0.00     0.163 HD
HETATM    4  O           1     -26.421  -5.495 -16.322  0.00  0.00    -0.271 OA
ENDROOT
BRANCH   1   5
HETATM    5  C           1     -24.999  -6.588 -17.852  0.00  0.00     0.275 C 
BRANCH   5   6
HETATM    6  C           1     -25.139  -7.032 -19.303  0.00  0.00     0.052 C 
BRANCH   6   7
HETATM    7  C           1     -23.760  -7.322 -19.880  0.00  0.00     0.105 C 
BRANCH   7   8
HETATM    8  C           1     -23.896  -8.233 -21.075  0.00  0.00     0.215 C 
HETATM    9  N           1     -22.913  -9.145 -21.355  0.00  0.00    -0.370 N 
HETATM   10  H           1     -23.005  -9.756 -22.157  0.00  0.00     0.159 HD
HETATM   11  H           1     -22.096  -9.207 -20.763  0.00  0.00     0.159 HD
HETATM   12  O           1     -24.871  -8.160 -21.783  0.00  0.00    -0.274 OA
ENDBRANCH   7   8
ENDBRANCH   6   7
ENDBRANCH   5   6
BRANCH   5  13
HETATM   13  N           1     -24.466  -7.725 -17.031  0.00  0.00    -0.066 N 
HETATM   14  H           1     -24.254  -8.536 -17.655  0.00  0.00     0.275 HD
HETATM   15  H           1     -23.593  -7.423 -16.545  0.00  0.00     0.275 HD
HETATM   16  H           1     -25.181  -8.008 -16.323  0.00  0.00     0.275 HD
ENDBRANCH   5  13
ENDBRANCH   1   5
BRANCH   2  17
HETATM   17  C           1     -28.785  -6.165 -17.456  0.00  0.00     0.186 C 
BRANCH  17  18
HETATM   18  C           1     -29.724  -7.346 -17.488  0.00  0.00     0.196 C 
HETATM   19  O           1     -29.369  -8.440 -16.997  0.00  0.00    -0.646 OA
HETATM   20  O           1     -30.856  -7.231 -18.005  0.00  0.00    -0.646 OA
ENDBRANCH  17  18
BRANCH  17  21
HETATM   21  C           1     -29.349  -5.044 -18.319  0.00  0.00     0.045 C 
BRANCH  21  22
HETATM   22  C           1     -29.715  -3.857 -17.438  0.00  0.00     0.105 C 
BRANCH  22  23
HETATM   23  C           1     -31.213  -3.799 -17.267  0.00  0.00     0.215 C 
HETATM   24  N           1     -31.834  -4.638 -16.383  0.00  0.00    -0.370 N 
HETATM   25  H           1     -31.289  -5.298 -15.843  0.00  0.00     0.159 HD
HETATM   26  H           1     -32.840  -4.599 -16.268  0.00  0.00     0.159 HD
HETATM   27  O           1     -31.864  -3.011 -17.911  0.00  0.00    -0.274 OA
ENDBRANCH  22  23
ENDBRANCH  21  22
ENDBRANCH  17  21
ENDBRANCH   2  17
TORSDOF 10
ENDMDL
MODEL 4
REMARK VINA RESULT:      -6.7      9.276     10.955
REMARK  10 active torsions:
REMARK  status: ('A' for Active; 'I' for Inactive)
REMARK       I    between atoms: N_1  and  C_11 
REMARK    1  A    between atoms: C_2  and  C_3 
REMARK    2  A    between atoms: C_3  and  C_4 
REMARK    3  A    between atoms: C_3  and  N_7 
REMARK    4  A    between atoms: C_4  and  C_14 
REMARK    5  A    between atoms: C_5  and  C_6 
REMARK    6  A    between atoms: C_5  and  C_10 
REMARK    7  A    between atoms: C_5  and  N_22 
REMARK       I    between atoms: C_6  and  N_7 
REMARK    8  A    between atoms: C_8  and  C_9 
REMARK       I    between atoms: C_8  and  N_18 
REMARK    9  A    between atoms: C_9  and  C_10 
REMARK   10  A    between atoms: C_11  and  C_14 
ROOT
HETATM    1  C           1     -34.532  -2.453 -12.244  0.00  0.00     0.249 C 
HETATM    2  N           1     -35.469  -1.741 -12.942  0.00  0.00    -0.345 N 
HETATM    3  H           1     -36.045  -2.204 -13.633  0.00  0.00     0.163 HD
HETATM    4  O           1     -33.845  -1.900 -11.417  0.00  0.00    -0.271 OA
ENDROOT
BRANCH   1   5
HETATM    5  C           1     -34.355  -3.928 -12.507  0.00  0.00     0.275 C 
BRANCH   5   6
HETATM    6  C           1     -33.527  -4.549 -11.389  0.00  0.00     0.052 C 
BRANCH   6   7
HETATM    7  C           1     -34.454  -5.154 -10.344  0.00  0.00     0.105 C 
BRANCH   7   8
HETATM    8  C           1     -34.228  -6.644 -10.272  0.00  0.00     0.215 C 
HETATM    9  N           1     -35.142  -7.445  -9.641  0.00  0.00    -0.370 N 
HETATM   10  H           1     -34.990  -8.444  -9.592  0.00  0.00     0.159 HD
HETATM   11  H           1     -35.968  -7.038  -9.222  0.00  0.00     0.159 HD
HETATM   12  O           1     -33.242  -7.130 -10.772  0.00  0.00    -0.274 OA
ENDBRANCH   7   8
ENDBRANCH   6   7
ENDBRANCH   5   6
BRANCH   5  13
HETATM   13  N           1     -33.651  -4.122 -13.817  0.00  0.00    -0.066 N 
HETATM   14  H           1     -32.627  -4.238 -13.648  0.00  0.00     0.275 HD
HETATM   15  H           1     -34.025  -4.974 -14.290  0.00  0.00     0.275 HD
HETATM   16  H           1     -33.812  -3.287 -14.425  0.00  0.00     0.275 HD
ENDBRANCH   5  13
ENDBRANCH   1   5
BRANCH   2  17
HETATM   17  C           1     -35.640  -0.324 -12.689  0.00  0.00     0.186 C 
BRANCH  17  18
HETATM   18  C           1     -36.603  -0.129 -11.544  0.00  0.00     0.196 C 
HETATM   19  O           1     -36.272   0.569 -10.561  0.00  0.00    -0.646 OA
HETATM   20  O           1     -37.731  -0.665 -11.578  0.00  0.00    -0.646 OA
ENDBRANCH  17  18
BRANCH  17  21
HETATM   21  C           1     -36.191   0.352 -13.937  0.00  0.00     0.045 C 
BRANCH  21  22
HETATM   22  C           1     -35.163   0.266 -15.058  0.00  0.00     0.105 C 
BRANCH  22  23
HETATM   23  C           1     -35.544  -0.844 -16.007  0.00  0.00     0.215 C 
HETATM   24  N           1     -36.373  -0.587 -17.065  0.00  0.00    -0.370 N 
HETATM   25  H           1     -36.730   0.349 -17.211  0.00  0.00     0.159 HD
HETATM   26  H           1     -36.628  -1.331 -17.701  0.00  0.00     0.159 HD
HETATM   27  O           1     -35.117  -1.961 -15.832  0.00  0.00    -0.274 OA
ENDBRANCH  22  23
ENDBRANCH  21  22
ENDBRANCH  17  21
ENDBRANCH   2  17
TORSDOF 10
ENDMDL
MODEL 5
REMARK VINA RESULT:      -6.2      2.359      2.917
REMARK  10 active torsions:
REMARK  status: ('A' for Active; 'I' for Inactive)
REMARK       I    between atoms: N_1  and  C_11 
REMARK    1  A    between atoms: C_2  and  C_3 
REMARK    2  A    between atoms: C_3  and  C_4 
REMARK    3  A    between atoms: C_3  and  N_7 
REMARK    4  A    between atoms: C_4  and  C_14 
REMARK    5  A    between atoms: C_5  and  C_6 
REMARK    6  A    between atoms: C_5  and  C_10 
REMARK    7  A    between atoms: C_5  and  N_22 
REMARK       I    between atoms: C_6  and  N_7 
REMARK    8  A    between atoms: C_8  and  C_9 
REMARK       I    between atoms: C_8  and  N_18 
REMARK    9  A    between atoms: C_9  and  C_10 
REMARK   10  A    between atoms: C_11  and  C_14 
ROOT
HETATM    1  C           1     -25.969  -6.902 -19.335  0.00  0.00     0.249 C 
HETATM    2  N           1     -27.306  -6.649 -19.188  0.00  0.00    -0.345 N 
HETATM    3  H           1     -27.975  -7.083 -19.812  0.00  0.00     0.163 HD
HETATM    4  O           1     -25.171  -6.385 -18.590  0.00  0.00    -0.271 OA
ENDROOT
BRANCH   1   5
HETATM    5  C           1     -25.492  -7.827 -20.427  0.00  0.00     0.275 C 
BRANCH   5   6
HETATM    6  C           1     -24.591  -7.059 -21.386  0.00  0.00     0.052 C 
BRANCH   6   7
HETATM    7  C           1     -24.054  -8.008 -22.449  0.00  0.00     0.105 C 
BRANCH   7   8
HETATM    8  C           1     -22.680  -8.485 -22.051  0.00  0.00     0.215 C 
HETATM    9  N           1     -22.336  -8.553 -20.727  0.00  0.00    -0.370 N 
HETATM   10  H           1     -21.414  -8.873 -20.460  0.00  0.00     0.159 HD
HETATM   11  H           1     -23.003  -8.283 -20.016  0.00  0.00     0.159 HD
HETATM   12  O           1     -21.883  -8.808 -22.899  0.00  0.00    -0.274 OA
ENDBRANCH   7   8
ENDBRANCH   6   7
ENDBRANCH   5   6
BRANCH   5  13
HETATM   13  N           1     -26.673  -8.367 -21.177  0.00  0.00    -0.066 N 
HETATM   14  H           1     -27.543  -7.893 -20.845  0.00  0.00     0.275 HD
HETATM   15  H           1     -26.548  -8.190 -22.198  0.00  0.00     0.275 HD
HETATM   16  H           1     -26.752  -9.396 -21.008  0.00  0.00     0.275 HD
ENDBRANCH   5  13
ENDBRANCH   1   5
BRANCH   2  17
HETATM   17  C           1     -27.765  -5.761 -18.138  0.00  0.00     0.186 C 
BRANCH  17  18
HETATM   18  C           1     -28.091  -6.566 -16.904  0.00  0.00     0.196 C 
HETATM   19  O           1     -29.112  -7.287 -16.880  0.00  0.00    -0.646 OA
HETATM   20  O           1     -27.341  -6.512 -15.907  0.00  0.00    -0.646 OA
ENDBRANCH  17  18
BRANCH  17  21
HETATM   21  C           1     -29.011  -5.022 -18.607  0.00  0.00     0.045 C 
BRANCH  21  22
HETATM   22  C           1     -29.361  -3.929 -17.607  0.00  0.00     0.105 C 
BRANCH  22  23
HETATM   23  C           1     -30.834  -3.992 -17.285  0.00  0.00     0.215 C 
HETATM   24  N           1     -31.348  -5.086 -16.643  0.00  0.00    -0.370 N 
HETATM   25  H           1     -30.740  -5.852 -16.383  0.00  0.00     0.159 HD
HETATM   26  H           1     -32.336  -5.128 -16.427  0.00  0.00     0.159 HD
HETATM   27  O           1     -31.560  -3.077 -17.594  0.00  0.00    -0.274 OA
ENDBRANCH  22  23
ENDBRANCH  21  22
ENDBRANCH  17  21
ENDBRANCH   2  17
TORSDOF 10
ENDMDL
MODEL 6
REMARK VINA RESULT:      -6.1     12.591     14.421
REMARK  10 active torsions:
REMARK  status: ('A' for Active; 'I' for Inactive)
REMARK       I    between atoms: N_1  and  C_11 
REMARK    1  A    between atoms: C_2  and  C_3 
REMARK    2  A    between atoms: C_3  and  C_4 
REMARK    3  A    between atoms: C_3  and  N_7 
REMARK    4  A    between atoms: C_4  and  C_14 
REMARK    5  A    between atoms: C_5  and  C_6 
REMARK    6  A    between atoms: C_5  and  C_10 
REMARK    7  A    between atoms: C_5  and  N_22 
REMARK       I    between atoms: C_6  and  N_7 
REMARK    8  A    between atoms: C_8  and  C_9 
REMARK       I    between atoms: C_8  and  N_18 
REMARK    9  A    between atoms: C_9  and  C_10 
REMARK   10  A    between atoms: C_11  and  C_14 
ROOT
HETATM    1  C           1     -20.687  -4.684  -6.250  0.00  0.00     0.249 C 
HETATM    2  N           1     -21.540  -5.615  -5.723  0.00  0.00    -0.345 N 
HETATM    3  H           1     -22.450  -5.762  -6.140  0.00  0.00     0.163 HD
HETATM    4  O           1     -19.600  -4.509  -5.751  0.00  0.00    -0.271 OA
ENDROOT
BRANCH   1   5
HETATM    5  C           1     -21.103  -3.876  -7.454  0.00  0.00     0.275 C 
BRANCH   5   6
HETATM    6  C           1     -22.463  -4.356  -7.944  0.00  0.00     0.052 C 
BRANCH   6   7
HETATM    7  C           1     -22.476  -4.378  -9.466  0.00  0.00     0.105 C 
BRANCH   7   8
HETATM    8  C           1     -23.801  -3.859  -9.967  0.00  0.00     0.215 C 
HETATM    9  N           1     -24.671  -3.253  -9.099  0.00  0.00    -0.370 N 
HETATM   10  H           1     -25.560  -2.906  -9.435  0.00  0.00     0.159 HD
HETATM   11  H           1     -24.425  -3.154  -8.123  0.00  0.00     0.159 HD
HETATM   12  O           1     -24.095  -3.977 -11.132  0.00  0.00    -0.274 OA
ENDBRANCH   7   8
ENDBRANCH   6   7
ENDBRANCH   5   6
BRANCH   5  13
HETATM   13  N           1     -20.090  -4.047  -8.546  0.00  0.00    -0.066 N 
HETATM   14  H           1     -20.541  -3.867  -9.471  0.00  0.00     0.275 HD
HETATM   15  H           1     -19.306  -3.372  -8.403  0.00  0.00     0.275 HD
HETATM   16  H           1     -19.717  -5.024  -8.525  0.00  0.00     0.275 HD
ENDBRANCH   5  13
ENDBRANCH   1   5
BRANCH   2  17
HETATM   17  C           1     -21.140  -6.392  -4.566  0.00  0.00     0.186 C 
BRANCH  17  18
HETATM   18  C           1     -20.710  -7.769  -5.009  0.00  0.00     0.196 C 
HETATM   19  O           1     -21.080  -8.213  -6.118  0.00  0.00    -0.646 OA
HETATM   20  O           1     -19.986  -8.466  -4.267  0.00  0.00    -0.646 OA
ENDBRANCH  17  18
BRANCH  17  21
HETATM   21  C           1     -22.314  -6.511  -3.604  0.00  0.00     0.045 C 
BRANCH  21  22
HETATM   22  C           1     -21.881  -6.066  -2.214  0.00  0.00     0.105 C 
BRANCH  22  23
HETATM   23  C           1     -22.060  -7.205  -1.240  0.00  0.00     0.215 C 
HETATM   24  N           1     -21.298  -8.335  -1.361  0.00  0.00    -0.370 N 
HETATM   25  H           1     -20.614  -8.407  -2.104  0.00  0.00     0.159 HD
HETATM   26  H           1     -21.418  -9.100  -0.708  0.00  0.00     0.159 HD
HETATM   27  O           1     -22.876  -7.119  -0.354  0.00  0.00    -0.274 OA
ENDBRANCH  22  23
ENDBRANCH  21  22
ENDBRANCH  17  21
ENDBRANCH   2  17
TORSDOF 10
ENDMDL
MODEL 7
REMARK VINA RESULT:      -5.8     13.070     15.153
REMARK  10 active torsions:
REMARK  status: ('A' for Active; 'I' for Inactive)
REMARK       I    between atoms: N_1  and  C_11 
REMARK    1  A    between atoms: C_2  and  C_3 
REMARK    2  A    between atoms: C_3  and  C_4 
REMARK    3  A    between atoms: C_3  and  N_7 
REMARK    4  A    between atoms: C_4  and  C_14 
REMARK    5  A    between atoms: C_5  and  C_6 
REMARK    6  A    between atoms: C_5  and  C_10 
REMARK    7  A    between atoms: C_5  and  N_22 
REMARK       I    between atoms: C_6  and  N_7 
REMARK    8  A    between atoms: C_8  and  C_9 
REMARK       I    between atoms: C_8  and  N_18 
REMARK    9  A    between atoms: C_9  and  C_10 
REMARK   10  A    between atoms: C_11  and  C_14 
ROOT
HETATM    1  C           1     -21.386  -5.734  -5.744  0.00  0.00     0.249 C 
HETATM    2  N           1     -20.819  -6.647  -4.896  0.00  0.00    -0.345 N 
HETATM    3  H           1     -19.815  -6.769  -4.883  0.00  0.00     0.163 HD
HETATM    4  O           1     -22.586  -5.588  -5.759  0.00  0.00    -0.271 OA
ENDROOT
BRANCH   1   5
HETATM    5  C           1     -20.514  -4.911  -6.659  0.00  0.00     0.275 C 
BRANCH   5   6
HETATM    6  C           1     -21.320  -3.746  -7.218  0.00  0.00     0.052 C 
BRANCH   6   7
HETATM    7  C           1     -21.542  -3.950  -8.710  0.00  0.00     0.105 C 
BRANCH   7   8
HETATM    8  C           1     -23.013  -3.821  -9.023  0.00  0.00     0.215 C 
HETATM    9  N           1     -23.943  -4.062  -8.048  0.00  0.00    -0.370 N 
HETATM   10  H           1     -24.930  -3.975  -8.259  0.00  0.00     0.159 HD
HETATM   11  H           1     -23.646  -4.327  -7.119  0.00  0.00     0.159 HD
HETATM   12  O           1     -23.368  -3.504 -10.133  0.00  0.00    -0.274 OA
ENDBRANCH   7   8
ENDBRANCH   6   7
ENDBRANCH   5   6
BRANCH   5  13
HETATM   13  N           1     -20.026  -5.768  -7.789  0.00  0.00    -0.066 N 
HETATM   14  H           1     -19.108  -5.405  -8.131  0.00  0.00     0.275 HD
HETATM   15  H           1     -19.910  -6.750  -7.455  0.00  0.00     0.275 HD
HETATM   16  H           1     -20.722  -5.744  -8.569  0.00  0.00     0.275 HD
ENDBRANCH   5  13
ENDBRANCH   1   5
BRANCH   2  17
HETATM   17  C           1     -21.657  -7.438  -4.017  0.00  0.00     0.186 C 
BRANCH  17  18
HETATM   18  C           1     -21.626  -6.849  -2.627  0.00  0.00     0.196 C 
HETATM   19  O           1     -20.847  -7.316  -1.768  0.00  0.00    -0.646 OA
HETATM   20  O           1     -22.379  -5.896  -2.336  0.00  0.00    -0.646 OA
ENDBRANCH  17  18
BRANCH  17  21
HETATM   21  C           1     -21.139  -8.869  -3.973  0.00  0.00     0.045 C 
BRANCH  21  22
HETATM   22  C           1     -19.852  -8.969  -4.781  0.00  0.00     0.105 C 
BRANCH  22  23
HETATM   23  C           1     -18.713  -9.353  -3.869  0.00  0.00     0.215 C 
HETATM   24  N           1     -18.919  -9.447  -2.519  0.00  0.00    -0.370 N 
HETATM   25  H           1     -19.835  -9.259  -2.133  0.00  0.00     0.159 HD
HETATM   26  H           1     -18.154  -9.705  -1.907  0.00  0.00     0.159 HD
HETATM   27  O           1     -17.620  -9.578  -4.330  0.00  0.00    -0.274 OA
ENDBRANCH  22  23
ENDBRANCH  21  22
ENDBRANCH  17  21
ENDBRANCH   2  17
TORSDOF 10
ENDMDL
MODEL 8
REMARK VINA RESULT:      -5.8      2.756      3.594
REMARK  10 active torsions:
REMARK  status: ('A' for Active; 'I' for Inactive)
REMARK       I    between atoms: N_1  and  C_11 
REMARK    1  A    between atoms: C_2  and  C_3 
REMARK    2  A    between atoms: C_3  and  C_4 
REMARK    3  A    between atoms: C_3  and  N_7 
REMARK    4  A    between atoms: C_4  and  C_14 
REMARK    5  A    between atoms: C_5  and  C_6 
REMARK    6  A    between atoms: C_5  and  C_10 
REMARK    7  A    between atoms: C_5  and  N_22 
REMARK       I    between atoms: C_6  and  N_7 
REMARK    8  A    between atoms: C_8  and  C_9 
REMARK       I    between atoms: C_8  and  N_18 
REMARK    9  A    between atoms: C_9  and  C_10 
REMARK   10  A    between atoms: C_11  and  C_14 
ROOT
HETATM    1  C           1     -26.427  -6.548 -19.690  0.00  0.00     0.249 C 
HETATM    2  N           1     -26.794  -6.315 -18.392  0.00  0.00    -0.345 N 
HETATM    3  H           1     -26.115  -6.414 -17.649  0.00  0.00     0.163 HD
HETATM    4  O           1     -27.237  -6.429 -20.578  0.00  0.00    -0.271 OA
ENDROOT
BRANCH   1   5
HETATM    5  C           1     -25.010  -6.956 -20.011  0.00  0.00     0.275 C 
BRANCH   5   6
HETATM    6  C           1     -25.023  -8.043 -21.078  0.00  0.00     0.052 C 
BRANCH   6   7
HETATM    7  C           1     -23.991  -7.716 -22.149  0.00  0.00     0.105 C 
BRANCH   7   8
HETATM    8  C           1     -22.775  -8.589 -21.960  0.00  0.00     0.215 C 
HETATM    9  N           1     -22.467  -9.544 -22.892  0.00  0.00    -0.370 N 
HETATM   10  H           1     -21.651 -10.130 -22.765  0.00  0.00     0.159 HD
HETATM   11  H           1     -23.054  -9.665 -23.707  0.00  0.00     0.159 HD
HETATM   12  O           1     -22.074  -8.445 -20.988  0.00  0.00    -0.274 OA
ENDBRANCH   7   8
ENDBRANCH   6   7
ENDBRANCH   5   6
BRANCH   5  13
HETATM   13  N           1     -24.347  -7.481 -18.772  0.00  0.00    -0.066 N 
HETATM   14  H           1     -23.551  -6.857 -18.512  0.00  0.00     0.275 HD
HETATM   15  H           1     -25.040  -7.505 -17.991  0.00  0.00     0.275 HD
HETATM   16  H           1     -23.989  -8.447 -18.951  0.00  0.00     0.275 HD
ENDBRANCH   5  13
ENDBRANCH   1   5
BRANCH   2  17
HETATM   17  C           1     -28.155  -5.923 -18.083  0.00  0.00     0.186 C 
BRANCH  17  18
HETATM   18  C           1     -28.143  -4.620 -17.321  0.00  0.00     0.196 C 
HETATM   19  O           1     -27.438  -4.503 -16.295  0.00  0.00    -0.646 OA
HETATM   20  O           1     -28.838  -3.659 -17.715  0.00  0.00    -0.646 OA
ENDBRANCH  17  18
BRANCH  17  21
HETATM   21  C           1     -28.814  -7.002 -17.235  0.00  0.00     0.045 C 
BRANCH  21  22
HETATM   22  C           1     -30.165  -6.505 -16.739  0.00  0.00     0.105 C 
BRANCH  22  23
HETATM   23  C           1     -31.257  -7.030 -17.638  0.00  0.00     0.215 C 
HETATM   24  N           1     -32.565  -6.724 -17.378  0.00  0.00    -0.370 N 
HETATM   25  H           1     -32.800  -6.145 -16.581  0.00  0.00     0.159 HD
HETATM   26  H           1     -33.297  -7.076 -17.981  0.00  0.00     0.159 HD
HETATM   27  O           1     -30.976  -7.720 -18.589  0.00  0.00    -0.274 OA
ENDBRANCH  22  23
ENDBRANCH  21  22
ENDBRANCH  17  21
ENDBRANCH   2  17
TORSDOF 10
ENDMDL
MODEL 9
REMARK VINA RESULT:      -5.8     11.432     13.426
REMARK  10 active torsions:
REMARK  status: ('A' for Active; 'I' for Inactive)
REMARK       I    between atoms: N_1  and  C_11 
REMARK    1  A    between atoms: C_2  and  C_3 
REMARK    2  A    between atoms: C_3  and  C_4 
REMARK    3  A    between atoms: C_3  and  N_7 
REMARK    4  A    between atoms: C_4  and  C_14 
REMARK    5  A    between atoms: C_5  and  C_6 
REMARK    6  A    between atoms: C_5  and  C_10 
REMARK    7  A    between atoms: C_5  and  N_22 
REMARK       I    between atoms: C_6  and  N_7 
REMARK    8  A    between atoms: C_8  and  C_9 
REMARK       I    between atoms: C_8  and  N_18 
REMARK    9  A    between atoms: C_9  and  C_10 
REMARK   10  A    between atoms: C_11  and  C_14 
ROOT
HETATM    1  C           1     -22.520  -4.119  -8.150  0.00  0.00     0.249 C 
HETATM    2  N           1     -22.282  -5.215  -7.367  0.00  0.00    -0.345 N 
HETATM    3  H           1     -22.791  -6.074  -7.530  0.00  0.00     0.163 HD
HETATM    4  O           1     -21.912  -3.092  -7.956  0.00  0.00    -0.271 OA
ENDROOT
BRANCH   1   5
HETATM    5  C           1     -23.543  -4.190  -9.257  0.00  0.00     0.275 C 
BRANCH   5   6
HETATM    6  C           1     -22.978  -3.544 -10.515  0.00  0.00     0.052 C 
BRANCH   6   7
HETATM    7  C           1     -22.072  -4.535 -11.233  0.00  0.00     0.105 C 
BRANCH   7   8
HETATM    8  C           1     -20.633  -4.112 -11.068  0.00  0.00     0.215 C 
HETATM    9  N           1     -20.231  -2.873 -11.489  0.00  0.00    -0.370 N 
HETATM   10  H           1     -19.266  -2.590 -11.379  0.00  0.00     0.159 HD
HETATM   11  H           1     -20.898  -2.240 -11.911  0.00  0.00     0.159 HD
HETATM   12  O           1     -19.836  -4.867 -10.565  0.00  0.00    -0.274 OA
ENDBRANCH   7   8
ENDBRANCH   6   7
ENDBRANCH   5   6
BRANCH   5  13
HETATM   13  N           1     -24.786  -3.463  -8.837  0.00  0.00    -0.066 N 
HETATM   14  H           1     -24.527  -2.533  -8.435  0.00  0.00     0.275 HD
HETATM   15  H           1     -25.404  -3.323  -9.666  0.00  0.00     0.275 HD
HETATM   16  H           1     -25.291  -4.026  -8.115  0.00  0.00     0.275 HD
ENDBRANCH   5  13
ENDBRANCH   1   5
BRANCH   2  17
HETATM   17  C           1     -21.298  -5.146  -6.304  0.00  0.00     0.186 C 
BRANCH  17  18
HETATM   18  C           1     -19.947  -5.550  -6.841  0.00  0.00     0.196 C 
HETATM   19  O           1     -19.078  -4.679  -7.064  0.00  0.00    -0.646 OA
HETATM   20  O           1     -19.697  -6.754  -7.063  0.00  0.00    -0.646 OA
ENDBRANCH  17  18
BRANCH  17  21
HETATM   21  C           1     -21.701  -6.090  -5.179  0.00  0.00     0.045 C 
BRANCH  21  22
HETATM   22  C           1     -20.804  -5.854  -3.971  0.00  0.00     0.105 C 
BRANCH  22  23
HETATM   23  C           1     -21.409  -6.513  -2.756  0.00  0.00     0.215 C 
HETATM   24  N           1     -22.439  -5.906  -2.090  0.00  0.00    -0.370 N 
HETATM   25  H           1     -22.795  -5.015  -2.413  0.00  0.00     0.159 HD
HETATM   26  H           1     -22.846  -6.348  -1.275  0.00  0.00     0.159 HD
HETATM   27  O           1     -20.985  -7.576  -2.371  0.00  0.00    -0.274 OA
ENDBRANCH  22  23
ENDBRANCH  21  22
ENDBRANCH  17  21
ENDBRANCH   2  17
TORSDOF 10
ENDMDL
