MODEL 1
REMARK VINA RESULT:      -7.1      0.000      0.000
REMARK  11 active torsions:
REMARK  status: ('A' for Active; 'I' for Inactive)
REMARK       I    between atoms: C_6  and  N_7 
REMARK    1  A    between atoms: C_6  and  C_28 
REMARK    2  A    between atoms: N_7  and  C_8 
REMARK    3  A    between atoms: C_8  and  C_15 
REMARK    4  A    between atoms: C_8  and  C_9 
REMARK    5  A    between atoms: C_12  and  C_28 
REMARK    6  A    between atoms: C_12  and  C_16 
REMARK    7  A    between atoms: N_14  and  C_22 
REMARK    8  A    between atoms: C_15  and  C_21 
REMARK    9  A    between atoms: C_20  and  C_22 
REMARK   10  A    between atoms: C_20  and  C_21 
REMARK   11  A    between atoms: N_27  and  C_28 
ROOT
HETATM    1  C           1     -20.241  -7.295  -5.439  0.00  0.00     0.249 C 
HETATM    2  N           1     -20.090  -8.127  -4.363  0.00  0.00    -0.345 N 
HETATM    3  H           1     -20.713  -8.047  -3.569  0.00  0.00     0.163 HD
HETATM    4  O           1     -19.497  -7.390  -6.386  0.00  0.00    -0.271 OA
ENDROOT
BRANCH   1   5
HETATM    5  C           1     -21.336  -6.256  -5.441  0.00  0.00     0.278 C 
BRANCH   5   6
HETATM    6  C           1     -20.841  -4.997  -6.141  0.00  0.00     0.083 C 
BRANCH   6   7
HETATM    7  C           1     -21.786  -4.632  -7.242  0.00  0.00    -0.028 A 
HETATM    8  C           1     -21.450  -4.459  -8.613  0.00  0.00    -0.002 A 
HETATM    9  C           1     -20.253  -4.554  -9.348  0.00  0.00     0.014 A 
HETATM   10  C           1     -22.626  -4.125  -9.285  0.00  0.00     0.042 A 
HETATM   11  C           1     -20.274  -4.314 -10.727  0.00  0.00     0.001 A 
HETATM   12  C           1     -21.464  -3.982 -11.372  0.00  0.00     0.002 A 
HETATM   13  C           1     -22.665  -3.880 -10.664  0.00  0.00     0.030 A 
HETATM   14  N           1     -23.634  -4.098  -8.348  0.00  0.00    -0.365 N 
HETATM   15  H           1     -24.640  -3.876  -8.554  0.00  0.00     0.165 HD
HETATM   16  C           1     -23.137  -4.404  -7.109  0.00  0.00     0.096 A 
ENDBRANCH   6   7
ENDBRANCH   5   6
BRANCH   5  17
HETATM   17  N           1     -21.714  -5.926  -4.028  0.00  0.00    -0.066 N 
HETATM   18  H           1     -20.868  -5.606  -3.506  0.00  0.00     0.275 HD
HETATM   19  H           1     -22.107  -6.777  -3.565  0.00  0.00     0.275 HD
HETATM   20  H           1     -22.431  -5.166  -4.028  0.00  0.00     0.275 HD
ENDBRANCH   5  17
ENDBRANCH   1   5
BRANCH   2  21
HETATM   21  C           1     -19.038  -9.125  -4.360  0.00  0.00     0.185 C 
BRANCH  21  22
HETATM   22  C           1     -18.642  -9.443  -2.924  0.00  0.00     0.036 C 
BRANCH  22  23
HETATM   23  C           1     -17.390 -10.310  -2.923  0.00  0.00     0.004 C 
BRANCH  23  24
HETATM   24  C           1     -16.267  -9.582  -3.651  0.00  0.00     0.027 C 
BRANCH  24  25
HETATM   25  C           1     -15.643 -10.511  -4.682  0.00  0.00     0.229 C 
BRANCH  25  26
HETATM   26  N           1     -15.974 -10.025  -6.062  0.00  0.00    -0.079 N 
HETATM   27  H           1     -16.428 -10.796  -6.604  0.00  0.00     0.274 HD
HETATM   28  H           1     -16.629  -9.214  -5.996  0.00  0.00     0.274 HD
HETATM   29  H           1     -15.097  -9.728  -6.546  0.00  0.00     0.274 HD
ENDBRANCH  25  26
ENDBRANCH  24  25
ENDBRANCH  23  24
ENDBRANCH  22  23
ENDBRANCH  21  22
BRANCH  21  30
HETATM   30  C           1     -19.536 -10.380  -5.034  0.00  0.00     0.196 C 
HETATM   31  O           1     -19.073 -10.719  -6.145  0.00  0.00    -0.646 OA
HETATM   32  O           1     -20.410 -11.082  -4.481  0.00  0.00    -0.646 OA
ENDBRANCH  21  30
ENDBRANCH   2  21
TORSDOF 11
ENDMDL
MODEL 2
REMARK VINA RESULT:      -7.1      1.559      2.747
REMARK  11 active torsions:
REMARK  status: ('A' for Active; 'I' for Inactive)
REMARK       I    between atoms: C_6  and  N_7 
REMARK    1  A    between atoms: C_6  and  C_28 
REMARK    2  A    between atoms: N_7  and  C_8 
REMARK    3  A    between atoms: C_8  and  C_15 
REMARK    4  A    between atoms: C_8  and  C_9 
REMARK    5  A    between atoms: C_12  and  C_28 
REMARK    6  A    between atoms: C_12  and  C_16 
REMARK    7  A    between atoms: N_14  and  C_22 
REMARK    8  A    between atoms: C_15  and  C_21 
REMARK    9  A    between atoms: C_20  and  C_22 
REMARK   10  A    between atoms: C_20  and  C_21 
REMARK   11  A    between atoms: N_27  and  C_28 
ROOT
HETATM    1  C           1     -20.483  -7.363  -5.441  0.00  0.00     0.249 C 
HETATM    2  N           1     -20.504  -8.232  -4.383  0.00  0.00    -0.345 N 
HETATM    3  H           1     -21.275  -8.215  -3.729  0.00  0.00     0.163 HD
HETATM    4  O           1     -19.561  -7.383  -6.222  0.00  0.00    -0.271 OA
ENDROOT
BRANCH   1   5
HETATM    5  C           1     -21.610  -6.378  -5.630  0.00  0.00     0.278 C 
BRANCH   5   6
HETATM    6  C           1     -21.065  -5.090  -6.233  0.00  0.00     0.083 C 
BRANCH   6   7
HETATM    7  C           1     -21.950  -4.649  -7.356  0.00  0.00    -0.028 A 
HETATM    8  C           1     -21.552  -4.445  -8.707  0.00  0.00    -0.002 A 
HETATM    9  C           1     -20.331  -4.567  -9.397  0.00  0.00     0.014 A 
HETATM   10  C           1     -22.685  -4.040  -9.412  0.00  0.00     0.042 A 
HETATM   11  C           1     -20.287  -4.280 -10.767  0.00  0.00     0.001 A 
HETATM   12  C           1     -21.435  -3.877 -11.446  0.00  0.00     0.002 A 
HETATM   13  C           1     -22.658  -3.749 -10.782  0.00  0.00     0.030 A 
HETATM   14  N           1     -23.728  -4.002  -8.515  0.00  0.00    -0.365 N 
HETATM   15  H           1     -24.715  -3.731  -8.751  0.00  0.00     0.165 HD
HETATM   16  C           1     -23.294  -4.369  -7.268  0.00  0.00     0.096 A 
ENDBRANCH   6   7
ENDBRANCH   5   6
BRANCH   5  17
HETATM   17  N           1     -22.242  -6.080  -4.303  0.00  0.00    -0.066 N 
HETATM   18  H           1     -22.076  -6.880  -3.651  0.00  0.00     0.275 HD
HETATM   19  H           1     -23.270  -5.942  -4.429  0.00  0.00     0.275 HD
HETATM   20  H           1     -21.820  -5.212  -3.904  0.00  0.00     0.275 HD
ENDBRANCH   5  17
ENDBRANCH   1   5
BRANCH   2  21
HETATM   21  C           1     -19.420  -9.178  -4.202  0.00  0.00     0.185 C 
BRANCH  21  22
HETATM   22  C           1     -19.116  -9.324  -2.716  0.00  0.00     0.036 C 
BRANCH  22  23
HETATM   23  C           1     -20.007  -8.379  -1.921  0.00  0.00     0.004 C 
BRANCH  23  24
HETATM   24  C           1     -20.867  -9.185  -0.956  0.00  0.00     0.027 C 
BRANCH  24  25
HETATM   25  C           1     -21.577  -8.240   0.003  0.00  0.00     0.229 C 
BRANCH  25  26
HETATM   26  N           1     -22.312  -7.192  -0.779  0.00  0.00    -0.079 N 
HETATM   27  H           1     -22.201  -7.376  -1.802  0.00  0.00     0.274 HD
HETATM   28  H           1     -23.326  -7.219  -0.528  0.00  0.00     0.274 HD
HETATM   29  H           1     -21.921  -6.249  -0.550  0.00  0.00     0.274 HD
ENDBRANCH  25  26
ENDBRANCH  24  25
ENDBRANCH  23  24
ENDBRANCH  22  23
ENDBRANCH  21  22
BRANCH  21  30
HETATM   30  C           1     -19.824 -10.518  -4.765  0.00  0.00     0.196 C 
HETATM   31  O           1     -19.692 -10.749  -5.986  0.00  0.00    -0.646 OA
HETATM   32  O           1     -20.291 -11.399  -4.010  0.00  0.00    -0.646 OA
ENDBRANCH  21  30
ENDBRANCH   2  21
TORSDOF 11
ENDMDL
MODEL 3
REMARK VINA RESULT:      -7.0      2.290      2.862
REMARK  11 active torsions:
REMARK  status: ('A' for Active; 'I' for Inactive)
REMARK       I    between atoms: C_6  and  N_7 
REMARK    1  A    between atoms: C_6  and  C_28 
REMARK    2  A    between atoms: N_7  and  C_8 
REMARK    3  A    between atoms: C_8  and  C_15 
REMARK    4  A    between atoms: C_8  and  C_9 
REMARK    5  A    between atoms: C_12  and  C_28 
REMARK    6  A    between atoms: C_12  and  C_16 
REMARK    7  A    between atoms: N_14  and  C_22 
REMARK    8  A    between atoms: C_15  and  C_21 
REMARK    9  A    between atoms: C_20  and  C_22 
REMARK   10  A    between atoms: C_20  and  C_21 
REMARK   11  A    between atoms: N_27  and  C_28 
ROOT
HETATM    1  C           1     -21.452  -6.703  -4.504  0.00  0.00     0.249 C 
HETATM    2  N           1     -21.132  -6.713  -3.173  0.00  0.00    -0.345 N 
HETATM    3  H           1     -20.755  -5.882  -2.737  0.00  0.00     0.163 HD
HETATM    4  O           1     -21.901  -7.697  -5.025  0.00  0.00    -0.271 OA
ENDROOT
BRANCH   1   5
HETATM    5  C           1     -21.242  -5.452  -5.322  0.00  0.00     0.278 C 
BRANCH   5   6
HETATM    6  C           1     -20.990  -5.831  -6.775  0.00  0.00     0.083 C 
BRANCH   6   7
HETATM    7  C           1     -21.860  -5.001  -7.666  0.00  0.00    -0.028 A 
HETATM    8  C           1     -21.518  -4.519  -8.960  0.00  0.00    -0.002 A 
HETATM    9  C           1     -20.377  -4.632  -9.777  0.00  0.00     0.014 A 
HETATM   10  C           1     -22.612  -3.793  -9.431  0.00  0.00     0.042 A 
HETATM   11  C           1     -20.372  -4.017 -11.035  0.00  0.00     0.001 A 
HETATM   12  C           1     -21.480  -3.298 -11.479  0.00  0.00     0.002 A 
HETATM   13  C           1     -22.624  -3.172 -10.686  0.00  0.00     0.030 A 
HETATM   14  N           1     -23.579  -3.838  -8.451  0.00  0.00    -0.365 N 
HETATM   15  H           1     -24.522  -3.380  -8.516  0.00  0.00     0.165 HD
HETATM   16  C           1     -23.134  -4.566  -7.380  0.00  0.00     0.096 A 
ENDBRANCH   6   7
ENDBRANCH   5   6
BRANCH   5  17
HETATM   17  N           1     -20.058  -4.701  -4.789  0.00  0.00    -0.066 N 
HETATM   18  H           1     -20.023  -3.752  -5.224  0.00  0.00     0.275 HD
HETATM   19  H           1     -19.182  -5.222  -5.021  0.00  0.00     0.275 HD
HETATM   20  H           1     -20.144  -4.606  -3.753  0.00  0.00     0.275 HD
ENDBRANCH   5  17
ENDBRANCH   1   5
BRANCH   2  21
HETATM   21  C           1     -21.334  -7.915  -2.388  0.00  0.00     0.185 C 
BRANCH  21  22
HETATM   22  C           1     -19.984  -8.468  -1.948  0.00  0.00     0.036 C 
BRANCH  22  23
HETATM   23  C           1     -19.614  -9.657  -2.823  0.00  0.00     0.004 C 
BRANCH  23  24
HETATM   24  C           1     -18.593  -9.221  -3.867  0.00  0.00     0.027 C 
BRANCH  24  25
HETATM   25  C           1     -18.996  -9.763  -5.231  0.00  0.00     0.229 C 
BRANCH  25  26
HETATM   26  N           1     -20.413 -10.254  -5.176  0.00  0.00    -0.079 N 
HETATM   27  H           1     -20.463 -11.112  -4.580  0.00  0.00     0.274 HD
HETATM   28  H           1     -21.022  -9.510  -4.767  0.00  0.00     0.274 HD
HETATM   29  H           1     -20.740 -10.481  -6.143  0.00  0.00     0.274 HD
ENDBRANCH  25  26
ENDBRANCH  24  25
ENDBRANCH  23  24
ENDBRANCH  22  23
ENDBRANCH  21  22
BRANCH  21  30
HETATM   30  C           1     -22.163  -7.586  -1.170  0.00  0.00     0.196 C 
HETATM   31  O           1     -22.566  -6.418  -0.986  0.00  0.00    -0.646 OA
HETATM   32  O           1     -22.447  -8.482  -0.347  0.00  0.00    -0.646 OA
ENDBRANCH  21  30
ENDBRANCH   2  21
TORSDOF 11
ENDMDL
MODEL 4
REMARK VINA RESULT:      -7.0      2.582      3.884
REMARK  11 active torsions:
REMARK  status: ('A' for Active; 'I' for Inactive)
REMARK       I    between atoms: C_6  and  N_7 
REMARK    1  A    between atoms: C_6  and  C_28 
REMARK    2  A    between atoms: N_7  and  C_8 
REMARK    3  A    between atoms: C_8  and  C_15 
REMARK    4  A    between atoms: C_8  and  C_9 
REMARK    5  A    between atoms: C_12  and  C_28 
REMARK    6  A    between atoms: C_12  and  C_16 
REMARK    7  A    between atoms: N_14  and  C_22 
REMARK    8  A    between atoms: C_15  and  C_21 
REMARK    9  A    between atoms: C_20  and  C_22 
REMARK   10  A    between atoms: C_20  and  C_21 
REMARK   11  A    between atoms: N_27  and  C_28 
ROOT
HETATM    1  C           1     -20.843  -7.233  -4.898  0.00  0.00     0.249 C 
HETATM    2  N           1     -21.284  -7.613  -3.659  0.00  0.00    -0.345 N 
HETATM    3  H           1     -22.180  -7.290  -3.319  0.00  0.00     0.163 HD
HETATM    4  O           1     -19.772  -7.618  -5.303  0.00  0.00    -0.271 OA
ENDROOT
BRANCH   1   5
HETATM    5  C           1     -21.694  -6.330  -5.758  0.00  0.00     0.278 C 
BRANCH   5   6
HETATM    6  C           1     -20.974  -5.005  -5.973  0.00  0.00     0.083 C 
BRANCH   6   7
HETATM    7  C           1     -20.850  -4.736  -7.440  0.00  0.00    -0.028 A 
HETATM    8  C           1     -21.905  -4.353  -8.314  0.00  0.00    -0.002 A 
HETATM    9  C           1     -23.282  -4.116  -8.143  0.00  0.00     0.014 A 
HETATM   10  C           1     -21.351  -4.208  -9.586  0.00  0.00     0.042 A 
HETATM   11  C           1     -24.056  -3.742  -9.248  0.00  0.00     0.001 A 
HETATM   12  C           1     -23.475  -3.604 -10.508  0.00  0.00     0.002 A 
HETATM   13  C           1     -22.110  -3.834 -10.703  0.00  0.00     0.030 A 
HETATM   14  N           1     -20.009  -4.494  -9.479  0.00  0.00    -0.365 N 
HETATM   15  H           1     -19.323  -4.470 -10.274  0.00  0.00     0.165 HD
HETATM   16  C           1     -19.695  -4.815  -8.185  0.00  0.00     0.096 A 
ENDBRANCH   6   7
ENDBRANCH   5   6
BRANCH   5  17
HETATM   17  N           1     -23.005  -6.081  -5.074  0.00  0.00    -0.066 N 
HETATM   18  H           1     -22.833  -5.761  -4.094  0.00  0.00     0.275 HD
HETATM   19  H           1     -23.563  -6.965  -5.058  0.00  0.00     0.275 HD
HETATM   20  H           1     -23.533  -5.344  -5.592  0.00  0.00     0.275 HD
ENDBRANCH   5  17
ENDBRANCH   1   5
BRANCH   2  21
HETATM   21  C           1     -20.465  -8.480  -2.834  0.00  0.00     0.185 C 
BRANCH  21  22
HETATM   22  C           1     -20.640  -8.100  -1.369  0.00  0.00     0.036 C 
BRANCH  22  23
HETATM   23  C           1     -21.869  -7.214  -1.217  0.00  0.00     0.004 C 
BRANCH  23  24
HETATM   24  C           1     -22.712  -7.710  -0.049  0.00  0.00     0.027 C 
BRANCH  24  25
HETATM   25  C           1     -22.352  -9.156   0.260  0.00  0.00     0.229 C 
BRANCH  25  26
HETATM   26  N           1     -23.437 -10.062  -0.243  0.00  0.00    -0.079 N 
HETATM   27  H           1     -23.488 -10.915   0.360  0.00  0.00     0.274 HD
HETATM   28  H           1     -24.352  -9.558  -0.212  0.00  0.00     0.274 HD
HETATM   29  H           1     -23.226 -10.344  -1.227  0.00  0.00     0.274 HD
ENDBRANCH  25  26
ENDBRANCH  24  25
ENDBRANCH  23  24
ENDBRANCH  22  23
ENDBRANCH  21  22
BRANCH  21  30
HETATM   30  C           1     -20.891  -9.913  -3.036  0.00  0.00     0.196 C 
HETATM   31  O           1     -22.105 -10.204  -3.086  0.00  0.00    -0.646 OA
HETATM   32  O           1     -20.028 -10.810  -3.153  0.00  0.00    -0.646 OA
ENDBRANCH  21  30
ENDBRANCH   2  21
TORSDOF 11
ENDMDL
MODEL 5
REMARK VINA RESULT:      -6.7      3.021      7.922
REMARK  11 active torsions:
REMARK  status: ('A' for Active; 'I' for Inactive)
REMARK       I    between atoms: C_6  and  N_7 
REMARK    1  A    between atoms: C_6  and  C_28 
REMARK    2  A    between atoms: N_7  and  C_8 
REMARK    3  A    between atoms: C_8  and  C_15 
REMARK    4  A    between atoms: C_8  and  C_9 
REMARK    5  A    between atoms: C_12  and  C_28 
REMARK    6  A    between atoms: C_12  and  C_16 
REMARK    7  A    between atoms: N_14  and  C_22 
REMARK    8  A    between atoms: C_15  and  C_21 
REMARK    9  A    between atoms: C_20  and  C_22 
REMARK   10  A    between atoms: C_20  and  C_21 
REMARK   11  A    between atoms: N_27  and  C_28 
ROOT
HETATM    1  C           1     -20.150  -9.035  -5.039  0.00  0.00     0.249 C 
HETATM    2  N           1     -21.021  -8.195  -5.680  0.00  0.00    -0.345 N 
HETATM    3  H           1     -21.783  -8.577  -6.226  0.00  0.00     0.163 HD
HETATM    4  O           1     -19.240  -8.579  -4.389  0.00  0.00    -0.271 OA
ENDROOT
BRANCH   1   5
HETATM    5  C           1     -20.325 -10.530  -5.148  0.00  0.00     0.278 C 
BRANCH   5   6
HETATM    6  C           1     -20.015 -11.177  -3.805  0.00  0.00     0.083 C 
BRANCH   6   7
HETATM    7  C           1     -21.230 -11.129  -2.934  0.00  0.00    -0.028 A 
HETATM    8  C           1     -21.467 -10.209  -1.875  0.00  0.00    -0.002 A 
HETATM    9  C           1     -20.736  -9.140  -1.324  0.00  0.00     0.014 A 
HETATM   10  C           1     -22.714 -10.520  -1.332  0.00  0.00     0.042 A 
HETATM   11  C           1     -21.277  -8.418  -0.253  0.00  0.00     0.001 A 
HETATM   12  C           1     -22.526  -8.751   0.268  0.00  0.00     0.002 A 
HETATM   13  C           1     -23.271  -9.809  -0.261  0.00  0.00     0.030 A 
HETATM   14  N           1     -23.209 -11.590  -2.042  0.00  0.00    -0.365 N 
HETATM   15  H           1     -24.136 -12.052  -1.866  0.00  0.00     0.165 HD
HETATM   16  C           1     -22.320 -11.966  -3.013  0.00  0.00     0.096 A 
ENDBRANCH   6   7
ENDBRANCH   5   6
BRANCH   5  17
HETATM   17  N           1     -19.390 -11.068  -6.190  0.00  0.00    -0.066 N 
HETATM   18  H           1     -18.695 -11.704  -5.739  0.00  0.00     0.275 HD
HETATM   19  H           1     -18.887 -10.275  -6.650  0.00  0.00     0.275 HD
HETATM   20  H           1     -19.935 -11.598  -6.905  0.00  0.00     0.275 HD
ENDBRANCH   5  17
ENDBRANCH   1   5
BRANCH   2  21
HETATM   21  C           1     -20.853  -6.759  -5.576  0.00  0.00     0.185 C 
BRANCH  21  22
HETATM   22  C           1     -20.982  -6.130  -6.957  0.00  0.00     0.036 C 
BRANCH  22  23
HETATM   23  C           1     -20.382  -4.731  -6.936  0.00  0.00     0.004 C 
BRANCH  23  24
HETATM   24  C           1     -21.445  -3.716  -7.337  0.00  0.00     0.027 C 
BRANCH  24  25
HETATM   25  C           1     -22.383  -4.340  -8.360  0.00  0.00     0.229 C 
BRANCH  25  26
HETATM   26  N           1     -23.805  -4.042  -7.985  0.00  0.00    -0.079 N 
HETATM   27  H           1     -23.989  -3.018  -8.097  0.00  0.00     0.274 HD
HETATM   28  H           1     -24.449  -4.581  -8.607  0.00  0.00     0.274 HD
HETATM   29  H           1     -23.967  -4.318  -6.990  0.00  0.00     0.274 HD
ENDBRANCH  25  26
ENDBRANCH  24  25
ENDBRANCH  23  24
ENDBRANCH  22  23
ENDBRANCH  21  22
BRANCH  21  30
HETATM   30  C           1     -21.915  -6.194  -4.665  0.00  0.00     0.196 C 
HETATM   31  O           1     -23.078  -6.028  -5.090  0.00  0.00    -0.646 OA
HETATM   32  O           1     -21.631  -5.892  -3.486  0.00  0.00    -0.646 OA
ENDBRANCH  21  30
ENDBRANCH   2  21
TORSDOF 11
ENDMDL
MODEL 6
REMARK VINA RESULT:      -6.7      2.903      8.186
REMARK  11 active torsions:
REMARK  status: ('A' for Active; 'I' for Inactive)
REMARK       I    between atoms: C_6  and  N_7 
REMARK    1  A    between atoms: C_6  and  C_28 
REMARK    2  A    between atoms: N_7  and  C_8 
REMARK    3  A    between atoms: C_8  and  C_15 
REMARK    4  A    between atoms: C_8  and  C_9 
REMARK    5  A    between atoms: C_12  and  C_28 
REMARK    6  A    between atoms: C_12  and  C_16 
REMARK    7  A    between atoms: N_14  and  C_22 
REMARK    8  A    between atoms: C_15  and  C_21 
REMARK    9  A    between atoms: C_20  and  C_22 
REMARK   10  A    between atoms: C_20  and  C_21 
REMARK   11  A    between atoms: N_27  and  C_28 
ROOT
HETATM    1  C           1     -20.656  -6.627  -5.696  0.00  0.00     0.249 C 
HETATM    2  N           1     -20.991  -6.455  -7.012  0.00  0.00    -0.345 N 
HETATM    3  H           1     -21.432  -7.207  -7.525  0.00  0.00     0.163 HD
HETATM    4  O           1     -20.128  -5.730  -5.084  0.00  0.00    -0.271 OA
ENDROOT
BRANCH   1   5
HETATM    5  C           1     -20.946  -7.940  -5.010  0.00  0.00     0.278 C 
BRANCH   5   6
HETATM    6  C           1     -19.734  -8.364  -4.190  0.00  0.00     0.083 C 
BRANCH   6   7
HETATM    7  C           1     -20.191  -9.027  -2.929  0.00  0.00    -0.028 A 
HETATM    8  C           1     -21.022  -8.448  -1.930  0.00  0.00    -0.002 A 
HETATM    9  C           1     -21.642  -7.194  -1.778  0.00  0.00     0.014 A 
HETATM   10  C           1     -21.197  -9.408  -0.933  0.00  0.00     0.042 A 
HETATM   11  C           1     -22.416  -6.945  -0.638  0.00  0.00     0.001 A 
HETATM   12  C           1     -22.573  -7.924   0.342  0.00  0.00     0.002 A 
HETATM   13  C           1     -21.966  -9.176   0.213  0.00  0.00     0.030 A 
HETATM   14  N           1     -20.494 -10.527  -1.322  0.00  0.00    -0.365 N 
HETATM   15  H           1     -20.436 -11.421  -0.773  0.00  0.00     0.165 HD
HETATM   16  C           1     -19.882 -10.307  -2.527  0.00  0.00     0.096 A 
ENDBRANCH   6   7
ENDBRANCH   5   6
BRANCH   5  17
HETATM   17  N           1     -21.243  -8.988  -6.041  0.00  0.00    -0.066 N 
HETATM   18  H           1     -21.821  -8.572  -6.805  0.00  0.00     0.275 HD
HETATM   19  H           1     -21.768  -9.775  -5.597  0.00  0.00     0.275 HD
HETATM   20  H           1     -20.347  -9.347  -6.439  0.00  0.00     0.275 HD
ENDBRANCH   5  17
ENDBRANCH   1   5
BRANCH   2  21
HETATM   21  C           1     -20.712  -5.194  -7.672  0.00  0.00     0.185 C 
BRANCH  21  22
HETATM   22  C           1     -20.693  -5.402  -9.181  0.00  0.00     0.036 C 
BRANCH  22  23
HETATM   23  C           1     -20.427  -4.073  -9.873  0.00  0.00     0.004 C 
BRANCH  23  24
HETATM   24  C           1     -21.168  -4.036 -11.204  0.00  0.00     0.027 C 
BRANCH  24  25
HETATM   25  C           1     -22.590  -4.544 -11.008  0.00  0.00     0.229 C 
BRANCH  25  26
HETATM   26  N           1     -23.428  -3.465 -10.390  0.00  0.00    -0.079 N 
HETATM   27  H           1     -23.399  -2.611 -10.993  0.00  0.00     0.274 HD
HETATM   28  H           1     -24.415  -3.797 -10.305  0.00  0.00     0.274 HD
HETATM   29  H           1     -23.054  -3.234  -9.441  0.00  0.00     0.274 HD
ENDBRANCH  25  26
ENDBRANCH  24  25
ENDBRANCH  23  24
ENDBRANCH  22  23
ENDBRANCH  21  22
BRANCH  21  30
HETATM   30  C           1     -21.785  -4.194  -7.316  0.00  0.00     0.196 C 
HETATM   31  O           1     -21.469  -3.077  -6.853  0.00  0.00    -0.646 OA
HETATM   32  O           1     -22.989  -4.483  -7.485  0.00  0.00    -0.646 OA
ENDBRANCH  21  30
ENDBRANCH   2  21
TORSDOF 11
ENDMDL
MODEL 7
REMARK VINA RESULT:      -6.6      2.900      3.858
REMARK  11 active torsions:
REMARK  status: ('A' for Active; 'I' for Inactive)
REMARK       I    between atoms: C_6  and  N_7 
REMARK    1  A    between atoms: C_6  and  C_28 
REMARK    2  A    between atoms: N_7  and  C_8 
REMARK    3  A    between atoms: C_8  and  C_15 
REMARK    4  A    between atoms: C_8  and  C_9 
REMARK    5  A    between atoms: C_12  and  C_28 
REMARK    6  A    between atoms: C_12  and  C_16 
REMARK    7  A    between atoms: N_14  and  C_22 
REMARK    8  A    between atoms: C_15  and  C_21 
REMARK    9  A    between atoms: C_20  and  C_22 
REMARK   10  A    between atoms: C_20  and  C_21 
REMARK   11  A    between atoms: N_27  and  C_28 
ROOT
HETATM    1  C           1     -21.092  -6.781  -4.902  0.00  0.00     0.249 C 
HETATM    2  N           1     -20.793  -6.773  -3.566  0.00  0.00    -0.345 N 
HETATM    3  H           1     -19.992  -6.255  -3.229  0.00  0.00     0.163 HD
HETATM    4  O           1     -22.048  -7.400  -5.304  0.00  0.00    -0.271 OA
ENDROOT
BRANCH   1   5
HETATM    5  C           1     -20.225  -6.018  -5.874  0.00  0.00     0.278 C 
BRANCH   5   6
HETATM    6  C           1     -20.691  -4.570  -5.943  0.00  0.00     0.083 C 
BRANCH   6   7
HETATM    7  C           1     -21.699  -4.421  -7.038  0.00  0.00    -0.028 A 
HETATM    8  C           1     -21.417  -4.193  -8.413  0.00  0.00    -0.002 A 
HETATM    9  C           1     -20.232  -4.042  -9.158  0.00  0.00     0.014 A 
HETATM   10  C           1     -22.641  -4.118  -9.077  0.00  0.00     0.042 A 
HETATM   11  C           1     -20.312  -3.824 -10.538  0.00  0.00     0.001 A 
HETATM   12  C           1     -21.550  -3.754 -11.175  0.00  0.00     0.002 A 
HETATM   13  C           1     -22.740  -3.900 -10.457  0.00  0.00     0.030 A 
HETATM   14  N           1     -23.626  -4.295  -8.132  0.00  0.00    -0.365 N 
HETATM   15  H           1     -24.657  -4.290  -8.330  0.00  0.00     0.165 HD
HETATM   16  C           1     -23.067  -4.479  -6.895  0.00  0.00     0.096 A 
ENDBRANCH   6   7
ENDBRANCH   5   6
BRANCH   5  17
HETATM   17  N           1     -20.329  -6.642  -7.233  0.00  0.00    -0.066 N 
HETATM   18  H           1     -21.295  -7.014  -7.373  0.00  0.00     0.275 HD
HETATM   19  H           1     -19.640  -7.425  -7.311  0.00  0.00     0.275 HD
HETATM   20  H           1     -20.124  -5.923  -7.962  0.00  0.00     0.275 HD
ENDBRANCH   5  17
ENDBRANCH   1   5
BRANCH   2  21
HETATM   21  C           1     -21.627  -7.506  -2.633  0.00  0.00     0.185 C 
BRANCH  21  22
HETATM   22  C           1     -20.787  -8.559  -1.920  0.00  0.00     0.036 C 
BRANCH  22  23
HETATM   23  C           1     -21.430  -9.927  -2.099  0.00  0.00     0.004 C 
BRANCH  23  24
HETATM   24  C           1     -21.923 -10.437  -0.751  0.00  0.00     0.027 C 
BRANCH  24  25
HETATM   25  C           1     -20.744 -10.956   0.060  0.00  0.00     0.229 C 
BRANCH  25  26
HETATM   26  N           1     -20.607 -10.152   1.318  0.00  0.00    -0.079 N 
HETATM   27  H           1     -21.530 -10.109   1.808  0.00  0.00     0.274 HD
HETATM   28  H           1     -19.902 -10.602   1.944  0.00  0.00     0.274 HD
HETATM   29  H           1     -20.295  -9.183   1.080  0.00  0.00     0.274 HD
ENDBRANCH  25  26
ENDBRANCH  24  25
ENDBRANCH  23  24
ENDBRANCH  22  23
ENDBRANCH  21  22
BRANCH  21  30
HETATM   30  C           1     -22.204  -6.551  -1.618  0.00  0.00     0.196 C 
HETATM   31  O           1     -22.102  -5.318  -1.792  0.00  0.00    -0.646 OA
HETATM   32  O           1     -22.783  -6.993  -0.602  0.00  0.00    -0.646 OA
ENDBRANCH  21  30
ENDBRANCH   2  21
TORSDOF 11
ENDMDL
MODEL 8
REMARK VINA RESULT:      -6.2      2.706      3.778
REMARK  11 active torsions:
REMARK  status: ('A' for Active; 'I' for Inactive)
REMARK       I    between atoms: C_6  and  N_7 
REMARK    1  A    between atoms: C_6  and  C_28 
REMARK    2  A    between atoms: N_7  and  C_8 
REMARK    3  A    between atoms: C_8  and  C_15 
REMARK    4  A    between atoms: C_8  and  C_9 
REMARK    5  A    between atoms: C_12  and  C_28 
REMARK    6  A    between atoms: C_12  and  C_16 
REMARK    7  A    between atoms: N_14  and  C_22 
REMARK    8  A    between atoms: C_15  and  C_21 
REMARK    9  A    between atoms: C_20  and  C_22 
REMARK   10  A    between atoms: C_20  and  C_21 
REMARK   11  A    between atoms: N_27  and  C_28 
ROOT
HETATM    1  C           1     -21.032  -6.448  -4.717  0.00  0.00     0.249 C 
HETATM    2  N           1     -20.447  -7.472  -4.020  0.00  0.00    -0.345 N 
HETATM    3  H           1     -19.575  -7.870  -4.342  0.00  0.00     0.163 HD
HETATM    4  O           1     -22.074  -5.974  -4.333  0.00  0.00    -0.271 OA
ENDROOT
BRANCH   1   5
HETATM    5  C           1     -20.375  -5.915  -5.966  0.00  0.00     0.278 C 
BRANCH   5   6
HETATM    6  C           1     -20.752  -4.452  -6.154  0.00  0.00     0.083 C 
BRANCH   6   7
HETATM    7  C           1     -21.752  -4.331  -7.261  0.00  0.00    -0.028 A 
HETATM    8  C           1     -21.459  -4.173  -8.644  0.00  0.00    -0.002 A 
HETATM    9  C           1     -20.267  -4.082  -9.388  0.00  0.00     0.014 A 
HETATM   10  C           1     -22.678  -4.102  -9.317  0.00  0.00     0.042 A 
HETATM   11  C           1     -20.337  -3.926 -10.777  0.00  0.00     0.001 A 
HETATM   12  C           1     -21.570  -3.858 -11.423  0.00  0.00     0.002 A 
HETATM   13  C           1     -22.767  -3.945 -10.706  0.00  0.00     0.030 A 
HETATM   14  N           1     -23.671  -4.214  -8.369  0.00  0.00    -0.365 N 
HETATM   15  H           1     -24.701  -4.196  -8.573  0.00  0.00     0.165 HD
HETATM   16  C           1     -23.122  -4.353  -7.122  0.00  0.00     0.096 A 
ENDBRANCH   6   7
ENDBRANCH   5   6
BRANCH   5  17
HETATM   17  N           1     -20.839  -6.707  -7.152  0.00  0.00    -0.066 N 
HETATM   18  H           1     -20.282  -6.435  -7.993  0.00  0.00     0.275 HD
HETATM   19  H           1     -21.851  -6.511  -7.327  0.00  0.00     0.275 HD
HETATM   20  H           1     -20.708  -7.726  -6.963  0.00  0.00     0.275 HD
ENDBRANCH   5  17
ENDBRANCH   1   5
BRANCH   2  21
HETATM   21  C           1     -21.079  -7.985  -2.820  0.00  0.00     0.185 C 
BRANCH  21  22
HETATM   22  C           1     -22.194  -7.041  -2.389  0.00  0.00     0.036 C 
BRANCH  22  23
HETATM   23  C           1     -22.006  -6.666  -0.925  0.00  0.00     0.004 C 
BRANCH  23  24
HETATM   24  C           1     -22.846  -7.590  -0.052  0.00  0.00     0.027 C 
BRANCH  24  25
HETATM   25  C           1     -21.993  -8.123   1.091  0.00  0.00     0.229 C 
BRANCH  25  26
HETATM   26  N           1     -21.089  -9.205   0.580  0.00  0.00    -0.079 N 
HETATM   27  H           1     -20.093  -8.902   0.675  0.00  0.00     0.274 HD
HETATM   28  H           1     -21.242 -10.077   1.135  0.00  0.00     0.274 HD
HETATM   29  H           1     -21.302  -9.390  -0.427  0.00  0.00     0.274 HD
ENDBRANCH  25  26
ENDBRANCH  24  25
ENDBRANCH  23  24
ENDBRANCH  22  23
ENDBRANCH  21  22
BRANCH  21  30
HETATM   30  C           1     -21.656  -9.350  -3.101  0.00  0.00     0.196 C 
HETATM   31  O           1     -22.159 -10.019  -2.173  0.00  0.00    -0.646 OA
HETATM   32  O           1     -21.632  -9.812  -4.262  0.00  0.00    -0.646 OA
ENDBRANCH  21  30
ENDBRANCH   2  21
TORSDOF 11
ENDMDL
MODEL 9
REMARK VINA RESULT:      -6.1      3.939      6.116
REMARK  11 active torsions:
REMARK  status: ('A' for Active; 'I' for Inactive)
REMARK       I    between atoms: C_6  and  N_7 
REMARK    1  A    between atoms: C_6  and  C_28 
REMARK    2  A    between atoms: N_7  and  C_8 
REMARK    3  A    between atoms: C_8  and  C_15 
REMARK    4  A    between atoms: C_8  and  C_9 
REMARK    5  A    between atoms: C_12  and  C_28 
REMARK    6  A    between atoms: C_12  and  C_16 
REMARK    7  A    between atoms: N_14  and  C_22 
REMARK    8  A    between atoms: C_15  and  C_21 
REMARK    9  A    between atoms: C_20  and  C_22 
REMARK   10  A    between atoms: C_20  and  C_21 
REMARK   11  A    between atoms: N_27  and  C_28 
ROOT
HETATM    1  C           1     -18.966  -9.016  -5.039  0.00  0.00     0.249 C 
HETATM    2  N           1     -18.193  -9.287  -3.942  0.00  0.00    -0.345 N 
HETATM    3  H           1     -18.221  -8.673  -3.138  0.00  0.00     0.163 HD
HETATM    4  O           1     -18.931  -9.748  -5.998  0.00  0.00    -0.271 OA
ENDROOT
BRANCH   1   5
HETATM    5  C           1     -19.860  -7.800  -5.050  0.00  0.00     0.278 C 
BRANCH   5   6
HETATM    6  C           1     -21.273  -8.204  -4.654  0.00  0.00     0.083 C 
BRANCH   6   7
HETATM    7  C           1     -21.658  -7.504  -3.389  0.00  0.00    -0.028 A 
HETATM    8  C           1     -21.773  -8.099  -2.102  0.00  0.00    -0.002 A 
HETATM    9  C           1     -21.590  -9.403  -1.606  0.00  0.00     0.014 A 
HETATM   10  C           1     -22.152  -7.091  -1.215  0.00  0.00     0.042 A 
HETATM   11  C           1     -21.792  -9.654  -0.243  0.00  0.00     0.001 A 
HETATM   12  C           1     -22.171  -8.626   0.619  0.00  0.00     0.002 A 
HETATM   13  C           1     -22.358  -7.323   0.150  0.00  0.00     0.030 A 
HETATM   14  N           1     -22.261  -5.929  -1.946  0.00  0.00    -0.365 N 
HETATM   15  H           1     -22.533  -4.994  -1.552  0.00  0.00     0.165 HD
HETATM   16  C           1     -21.965  -6.168  -3.262  0.00  0.00     0.096 A 
ENDBRANCH   6   7
ENDBRANCH   5   6
BRANCH   5  17
HETATM   17  N           1     -19.877  -7.205  -6.427  0.00  0.00    -0.066 N 
HETATM   18  H           1     -20.803  -7.390  -6.874  0.00  0.00     0.275 HD
HETATM   19  H           1     -19.120  -7.638  -7.003  0.00  0.00     0.275 HD
HETATM   20  H           1     -19.721  -6.175  -6.363  0.00  0.00     0.275 HD
ENDBRANCH   5  17
ENDBRANCH   1   5
BRANCH   2  21
HETATM   21  C           1     -17.334 -10.455  -3.931  0.00  0.00     0.185 C 
BRANCH  21  22
HETATM   22  C           1     -15.915 -10.046  -4.310  0.00  0.00     0.036 C 
BRANCH  22  23
HETATM   23  C           1     -15.513 -10.746  -5.601  0.00  0.00     0.004 C 
BRANCH  23  24
HETATM   24  C           1     -14.411 -11.756  -5.309  0.00  0.00     0.027 C 
BRANCH  24  25
HETATM   25  C           1     -14.910 -13.159  -5.628  0.00  0.00     0.229 C 
BRANCH  25  26
HETATM   26  N           1     -15.665 -13.702  -4.452  0.00  0.00    -0.079 N 
HETATM   27  H           1     -15.083 -14.422  -3.965  0.00  0.00     0.274 HD
HETATM   28  H           1     -15.883 -12.924  -3.789  0.00  0.00     0.274 HD
HETATM   29  H           1     -16.555 -14.140  -4.782  0.00  0.00     0.274 HD
ENDBRANCH  25  26
ENDBRANCH  24  25
ENDBRANCH  23  24
ENDBRANCH  22  23
ENDBRANCH  21  22
BRANCH  21  30
HETATM   30  C           1     -17.330 -11.063  -2.550  0.00  0.00     0.196 C 
HETATM   31  O           1     -18.311 -10.900  -1.793  0.00  0.00    -0.646 OA
HETATM   32  O           1     -16.346 -11.730  -2.164  0.00  0.00    -0.646 OA
ENDBRANCH  21  30
ENDBRANCH   2  21
TORSDOF 11
ENDMDL
