MODEL 1
REMARK VINA RESULT:      -8.3      0.000      0.000
REMARK  8 active torsions:
REMARK  status: ('A' for Active; 'I' for Inactive)
REMARK    1  A    between atoms: C_3  and  C_23 
REMARK    2  A    between atoms: C_5  and  C_21 
REMARK    3  A    between atoms: C_5  and  C_12 
REMARK    4  A    between atoms: C_5  and  N_25 
REMARK       I    between atoms: C_6  and  N_25 
REMARK    5  A    between atoms: C_6  and  C_17 
REMARK    6  A    between atoms: C_9  and  C_12 
REMARK    7  A    between atoms: N_11  and  C_17 
REMARK    8  A    between atoms: C_17  and  C_23 
ROOT
HETATM    1  C           1     -21.884  -6.604  -5.607  0.00  0.00     0.190 C 
ENDROOT
BRANCH   1   2
HETATM    2  C           1     -20.889  -7.734  -5.493  0.00  0.00     0.197 C 
HETATM    3  O           1     -19.671  -7.485  -5.366  0.00  0.00    -0.646 OA
HETATM    4  O           1     -21.284  -8.919  -5.525  0.00  0.00    -0.646 OA
ENDBRANCH   1   2
BRANCH   1   5
HETATM    5  C           1     -21.185  -5.367  -6.155  0.00  0.00     0.077 C 
BRANCH   5   6
HETATM    6  C           1     -21.996  -4.792  -7.276  0.00  0.00    -0.028 A 
HETATM    7  C           1     -23.317  -4.412  -7.209  0.00  0.00     0.096 A 
HETATM    8  N           1     -23.680  -3.940  -8.443  0.00  0.00    -0.365 N 
HETATM    9  H           1     -24.634  -3.578  -8.691  0.00  0.00     0.165 HD
HETATM   10  C           1     -22.613  -4.008  -9.311  0.00  0.00     0.042 A 
HETATM   11  C           1     -21.539  -4.542  -8.600  0.00  0.00    -0.002 A 
HETATM   12  C           1     -22.518  -3.641 -10.659  0.00  0.00     0.030 A 
HETATM   13  C           1     -20.309  -4.722  -9.261  0.00  0.00     0.014 A 
HETATM   14  C           1     -20.197  -4.360 -10.609  0.00  0.00     0.001 A 
HETATM   15  C           1     -21.287  -3.828 -11.295  0.00  0.00     0.002 A 
ENDBRANCH   5   6
ENDBRANCH   1   5
BRANCH   1  16
HETATM   16  N           1     -22.430  -6.309  -4.296  0.00  0.00    -0.344 N 
HETATM   17  C           1     -21.645  -6.436  -3.182  0.00  0.00     0.249 C 
HETATM   18  O           1     -20.995  -5.495  -2.791  0.00  0.00    -0.271 OA
HETATM   19  H           1     -23.392  -6.008  -4.206  0.00  0.00     0.163 HD
BRANCH  17  20
HETATM   20  C           1     -21.589  -7.751  -2.445  0.00  0.00     0.275 C 
BRANCH  20  21
HETATM   21  N           1     -20.176  -8.254  -2.426  0.00  0.00    -0.066 N 
HETATM   22  H           1     -20.146  -9.194  -1.970  0.00  0.00     0.275 HD
HETATM   23  H           1     -19.821  -8.331  -3.406  0.00  0.00     0.275 HD
HETATM   24  H           1     -19.577  -7.587  -1.889  0.00  0.00     0.275 HD
ENDBRANCH  20  21
BRANCH  20  25
HETATM   25  C           1     -22.076  -7.554  -1.015  0.00  0.00     0.046 C 
BRANCH  25  26
HETATM   26  C           1     -21.831  -8.826  -0.215  0.00  0.00    -0.020 C 
HETATM   27  C           1     -23.125  -9.626  -0.126  0.00  0.00     0.009 C 
HETATM   28  C           1     -21.362  -8.462   1.187  0.00  0.00     0.009 C 
ENDBRANCH  25  26
ENDBRANCH  20  25
ENDBRANCH  17  20
ENDBRANCH   1  16
TORSDOF 8
ENDMDL
MODEL 2
REMARK VINA RESULT:      -7.9      1.788      7.577
REMARK  8 active torsions:
REMARK  status: ('A' for Active; 'I' for Inactive)
REMARK    1  A    between atoms: C_3  and  C_23 
REMARK    2  A    between atoms: C_5  and  C_21 
REMARK    3  A    between atoms: C_5  and  C_12 
REMARK    4  A    between atoms: C_5  and  N_25 
REMARK       I    between atoms: C_6  and  N_25 
REMARK    5  A    between atoms: C_6  and  C_17 
REMARK    6  A    between atoms: C_9  and  C_12 
REMARK    7  A    between atoms: N_11  and  C_17 
REMARK    8  A    between atoms: C_17  and  C_23 
ROOT
HETATM    1  C           1     -19.986  -7.401  -5.325  0.00  0.00     0.190 C 
ENDROOT
BRANCH   1   2
HETATM    2  C           1     -19.062  -8.589  -5.216  0.00  0.00     0.197 C 
HETATM    3  O           1     -18.810  -9.085  -4.098  0.00  0.00    -0.646 OA
HETATM    4  O           1     -18.548  -9.077  -6.246  0.00  0.00    -0.646 OA
ENDBRANCH   1   2
BRANCH   1   5
HETATM    5  C           1     -21.397  -7.818  -4.930  0.00  0.00     0.077 C 
BRANCH   5   6
HETATM    6  C           1     -21.713  -7.282  -3.568  0.00  0.00    -0.028 A 
HETATM    7  C           1     -21.944  -5.962  -3.250  0.00  0.00     0.096 A 
HETATM    8  N           1     -22.195  -5.895  -1.904  0.00  0.00    -0.365 N 
HETATM    9  H           1     -22.407  -5.012  -1.376  0.00  0.00     0.165 HD
HETATM   10  C           1     -22.130  -7.151  -1.344  0.00  0.00     0.042 A 
HETATM   11  C           1     -21.827  -8.044  -2.372  0.00  0.00    -0.002 A 
HETATM   12  C           1     -22.315  -7.561  -0.018  0.00  0.00     0.030 A 
HETATM   13  C           1     -21.701  -9.413  -2.067  0.00  0.00     0.014 A 
HETATM   14  C           1     -21.883  -9.840  -0.746  0.00  0.00     0.001 A 
HETATM   15  C           1     -22.185  -8.925   0.261  0.00  0.00     0.002 A 
ENDBRANCH   5   6
ENDBRANCH   1   5
BRANCH   1  16
HETATM   16  N           1     -19.991  -6.917  -6.692  0.00  0.00    -0.344 N 
HETATM   17  C           1     -20.090  -5.575  -6.943  0.00  0.00     0.249 C 
HETATM   18  O           1     -19.090  -4.901  -7.027  0.00  0.00    -0.271 OA
HETATM   19  H           1     -19.921  -7.572  -7.461  0.00  0.00     0.163 HD
BRANCH  17  20
HETATM   20  C           1     -21.447  -4.937  -7.112  0.00  0.00     0.275 C 
BRANCH  20  21
HETATM   21  N           1     -21.334  -3.457  -6.899  0.00  0.00    -0.066 N 
HETATM   22  H           1     -21.948  -2.957  -7.581  0.00  0.00     0.275 HD
HETATM   23  H           1     -21.634  -3.222  -5.925  0.00  0.00     0.275 HD
HETATM   24  H           1     -20.342  -3.160  -7.040  0.00  0.00     0.275 HD
ENDBRANCH  20  21
BRANCH  20  25
HETATM   25  C           1     -21.965  -5.209  -8.519  0.00  0.00     0.046 C 
BRANCH  25  26
HETATM   26  C           1     -21.663  -4.011  -9.411  0.00  0.00    -0.020 C 
HETATM   27  C           1     -22.902  -3.661 -10.225  0.00  0.00     0.009 C 
HETATM   28  C           1     -20.517  -4.355 -10.353  0.00  0.00     0.009 C 
ENDBRANCH  25  26
ENDBRANCH  20  25
ENDBRANCH  17  20
ENDBRANCH   1  16
TORSDOF 8
ENDMDL
MODEL 3
REMARK VINA RESULT:      -7.7      3.220      7.193
REMARK  8 active torsions:
REMARK  status: ('A' for Active; 'I' for Inactive)
REMARK    1  A    between atoms: C_3  and  C_23 
REMARK    2  A    between atoms: C_5  and  C_21 
REMARK    3  A    between atoms: C_5  and  C_12 
REMARK    4  A    between atoms: C_5  and  N_25 
REMARK       I    between atoms: C_6  and  N_25 
REMARK    5  A    between atoms: C_6  and  C_17 
REMARK    6  A    between atoms: C_9  and  C_12 
REMARK    7  A    between atoms: N_11  and  C_17 
REMARK    8  A    between atoms: C_17  and  C_23 
ROOT
HETATM    1  C           1     -21.411  -7.879  -2.391  0.00  0.00     0.190 C 
ENDROOT
BRANCH   1   2
HETATM    2  C           1     -22.208  -7.890  -1.109  0.00  0.00     0.197 C 
HETATM    3  O           1     -22.348  -8.953  -0.468  0.00  0.00    -0.646 OA
HETATM    4  O           1     -22.727  -6.834  -0.687  0.00  0.00    -0.646 OA
ENDBRANCH   1   2
BRANCH   1   5
HETATM    5  C           1     -19.987  -8.339  -2.107  0.00  0.00     0.077 C 
BRANCH   5   6
HETATM    6  C           1     -19.530  -9.252  -3.202  0.00  0.00    -0.028 A 
HETATM    7  C           1     -20.335  -9.864  -4.137  0.00  0.00     0.096 A 
HETATM    8  N           1     -19.530 -10.613  -4.955  0.00  0.00    -0.365 N 
HETATM    9  H           1     -19.868 -11.191  -5.764  0.00  0.00     0.165 HD
HETATM   10  C           1     -18.214 -10.496  -4.566  0.00  0.00     0.042 A 
HETATM   11  C           1     -18.187  -9.644  -3.462  0.00  0.00    -0.002 A 
HETATM   12  C           1     -17.058 -11.075  -5.102  0.00  0.00     0.030 A 
HETATM   13  C           1     -16.948  -9.353  -2.860  0.00  0.00     0.014 A 
HETATM   14  C           1     -15.781  -9.923  -3.383  0.00  0.00     0.001 A 
HETATM   15  C           1     -15.839 -10.771  -4.488  0.00  0.00     0.002 A 
ENDBRANCH   5   6
ENDBRANCH   1   5
BRANCH   1  16
HETATM   16  N           1     -21.385  -6.534  -2.932  0.00  0.00    -0.344 N 
HETATM   17  C           1     -21.645  -6.324  -4.259  0.00  0.00     0.249 C 
HETATM   18  O           1     -22.779  -6.126  -4.628  0.00  0.00    -0.271 OA
HETATM   19  H           1     -21.175  -5.750  -2.327  0.00  0.00     0.163 HD
BRANCH  17  20
HETATM   20  C           1     -20.517  -6.342  -5.261  0.00  0.00     0.275 C 
BRANCH  20  21
HETATM   21  N           1     -20.931  -7.132  -6.466  0.00  0.00    -0.066 N 
HETATM   22  H           1     -20.175  -7.807  -6.718  0.00  0.00     0.275 HD
HETATM   23  H           1     -21.809  -7.658  -6.252  0.00  0.00     0.275 HD
HETATM   24  H           1     -21.099  -6.482  -7.267  0.00  0.00     0.275 HD
ENDBRANCH  20  21
BRANCH  20  25
HETATM   25  C           1     -20.185  -4.915  -5.678  0.00  0.00     0.046 C 
BRANCH  25  26
HETATM   26  C           1     -20.506  -4.731  -7.156  0.00  0.00    -0.020 C 
HETATM   27  C           1     -19.252  -4.282  -7.895  0.00  0.00     0.009 C 
HETATM   28  C           1     -21.593  -3.676  -7.313  0.00  0.00     0.009 C 
ENDBRANCH  25  26
ENDBRANCH  20  25
ENDBRANCH  17  20
ENDBRANCH   1  16
TORSDOF 8
ENDMDL
MODEL 4
REMARK VINA RESULT:      -7.7      1.791      8.034
REMARK  8 active torsions:
REMARK  status: ('A' for Active; 'I' for Inactive)
REMARK    1  A    between atoms: C_3  and  C_23 
REMARK    2  A    between atoms: C_5  and  C_21 
REMARK    3  A    between atoms: C_5  and  C_12 
REMARK    4  A    between atoms: C_5  and  N_25 
REMARK       I    between atoms: C_6  and  N_25 
REMARK    5  A    between atoms: C_6  and  C_17 
REMARK    6  A    between atoms: C_9  and  C_12 
REMARK    7  A    between atoms: N_11  and  C_17 
REMARK    8  A    between atoms: C_17  and  C_23 
ROOT
HETATM    1  C           1     -21.220  -7.324  -5.686  0.00  0.00     0.190 C 
ENDROOT
BRANCH   1   2
HETATM    2  C           1     -21.932  -6.214  -4.951  0.00  0.00     0.197 C 
HETATM    3  O           1     -23.112  -5.927  -5.244  0.00  0.00    -0.646 OA
HETATM    4  O           1     -21.340  -5.581  -4.050  0.00  0.00    -0.646 OA
ENDBRANCH   1   2
BRANCH   1   5
HETATM    5  C           1     -20.285  -8.049  -4.727  0.00  0.00     0.077 C 
BRANCH   5   6
HETATM    6  C           1     -21.077  -8.988  -3.871  0.00  0.00    -0.028 A 
HETATM    7  C           1     -21.632 -10.181  -4.275  0.00  0.00     0.096 A 
HETATM    8  N           1     -22.273 -10.731  -3.195  0.00  0.00    -0.365 N 
HETATM    9  H           1     -22.788 -11.646  -3.205  0.00  0.00     0.165 HD
HETATM   10  C           1     -22.142  -9.913  -2.096  0.00  0.00     0.042 A 
HETATM   11  C           1     -21.393  -8.806  -2.496  0.00  0.00    -0.002 A 
HETATM   12  C           1     -22.625 -10.066  -0.792  0.00  0.00     0.030 A 
HETATM   13  C           1     -21.110  -7.801  -1.551  0.00  0.00     0.014 A 
HETATM   14  C           1     -21.586  -7.939  -0.241  0.00  0.00     0.001 A 
HETATM   15  C           1     -22.333  -9.056   0.130  0.00  0.00     0.002 A 
ENDBRANCH   5   6
ENDBRANCH   1   5
BRANCH   1  16
HETATM   16  N           1     -20.450  -6.763  -6.779  0.00  0.00    -0.344 N 
HETATM   17  C           1     -20.524  -5.424  -7.053  0.00  0.00     0.249 C 
HETATM   18  O           1     -19.759  -4.656  -6.519  0.00  0.00    -0.271 OA
HETATM   19  H           1     -19.857  -7.362  -7.340  0.00  0.00     0.163 HD
BRANCH  17  20
HETATM   20  C           1     -21.561  -4.908  -8.019  0.00  0.00     0.275 C 
BRANCH  20  21
HETATM   21  N           1     -22.227  -3.696  -7.438  0.00  0.00    -0.066 N 
HETATM   22  H           1     -22.214  -2.920  -8.138  0.00  0.00     0.275 HD
HETATM   23  H           1     -23.217  -3.926  -7.193  0.00  0.00     0.275 HD
HETATM   24  H           1     -21.715  -3.397  -6.578  0.00  0.00     0.275 HD
ENDBRANCH  20  21
BRANCH  20  25
HETATM   25  C           1     -20.890  -4.536  -9.335  0.00  0.00     0.046 C 
BRANCH  25  26
HETATM   26  C           1     -21.876  -3.773 -10.210  0.00  0.00    -0.020 C 
HETATM   27  C           1     -22.988  -4.713 -10.659  0.00  0.00     0.009 C 
HETATM   28  C           1     -21.152  -3.224 -11.432  0.00  0.00     0.009 C 
ENDBRANCH  25  26
ENDBRANCH  20  25
ENDBRANCH  17  20
ENDBRANCH   1  16
TORSDOF 8
ENDMDL
MODEL 5
REMARK VINA RESULT:      -7.5      2.344      3.388
REMARK  8 active torsions:
REMARK  status: ('A' for Active; 'I' for Inactive)
REMARK    1  A    between atoms: C_3  and  C_23 
REMARK    2  A    between atoms: C_5  and  C_21 
REMARK    3  A    between atoms: C_5  and  C_12 
REMARK    4  A    between atoms: C_5  and  N_25 
REMARK       I    between atoms: C_6  and  N_25 
REMARK    5  A    between atoms: C_6  and  C_17 
REMARK    6  A    between atoms: C_9  and  C_12 
REMARK    7  A    between atoms: N_11  and  C_17 
REMARK    8  A    between atoms: C_17  and  C_23 
ROOT
HETATM    1  C           1     -20.488  -9.356  -4.304  0.00  0.00     0.190 C 
ENDROOT
BRANCH   1   2
HETATM    2  C           1     -20.543 -10.453  -5.339  0.00  0.00     0.197 C 
HETATM    3  O           1     -19.558 -10.664  -6.080  0.00  0.00    -0.646 OA
HETATM    4  O           1     -21.572 -11.151  -5.456  0.00  0.00    -0.646 OA
ENDBRANCH   1   2
BRANCH   1   5
HETATM    5  C           1     -19.803  -8.132  -4.896  0.00  0.00     0.077 C 
BRANCH   5   6
HETATM    6  C           1     -20.837  -7.125  -5.295  0.00  0.00    -0.028 A 
HETATM    7  C           1     -22.116  -7.035  -4.795  0.00  0.00     0.096 A 
HETATM    8  N           1     -22.737  -5.985  -5.420  0.00  0.00    -0.365 N 
HETATM    9  H           1     -23.724  -5.677  -5.238  0.00  0.00     0.165 HD
HETATM   10  C           1     -21.879  -5.391  -6.318  0.00  0.00     0.042 A 
HETATM   11  C           1     -20.674  -6.092  -6.259  0.00  0.00    -0.002 A 
HETATM   12  C           1     -22.076  -4.298  -7.170  0.00  0.00     0.030 A 
HETATM   13  C           1     -19.612  -5.686  -7.090  0.00  0.00     0.014 A 
HETATM   14  C           1     -19.792  -4.595  -7.948  0.00  0.00     0.001 A 
HETATM   15  C           1     -21.007  -3.913  -7.985  0.00  0.00     0.002 A 
ENDBRANCH   5   6
ENDBRANCH   1   5
BRANCH   1  16
HETATM   16  N           1     -19.738  -9.818  -3.151  0.00  0.00    -0.344 N 
HETATM   17  C           1     -20.330 -10.647  -2.237  0.00  0.00     0.249 C 
HETATM   18  O           1     -20.267 -11.845  -2.378  0.00  0.00    -0.271 OA
HETATM   19  H           1     -18.777  -9.528  -3.024  0.00  0.00     0.163 HD
BRANCH  17  20
HETATM   20  C           1     -21.061 -10.064  -1.052  0.00  0.00     0.275 C 
BRANCH  20  21
HETATM   21  N           1     -20.492 -10.630   0.214  0.00  0.00    -0.066 N 
HETATM   22  H           1     -21.247 -11.114   0.751  0.00  0.00     0.275 HD
HETATM   23  H           1     -19.738 -11.315  -0.019  0.00  0.00     0.275 HD
HETATM   24  H           1     -20.095  -9.856   0.794  0.00  0.00     0.275 HD
ENDBRANCH  20  21
BRANCH  20  25
HETATM   25  C           1     -20.898  -8.549  -1.050  0.00  0.00     0.046 C 
BRANCH  25  26
HETATM   26  C           1     -22.269  -7.892  -0.961  0.00  0.00    -0.020 C 
HETATM   27  C           1     -22.154  -6.425  -1.357  0.00  0.00     0.009 C 
HETATM   28  C           1     -22.790  -7.992   0.467  0.00  0.00     0.009 C 
ENDBRANCH  25  26
ENDBRANCH  20  25
ENDBRANCH  17  20
ENDBRANCH   1  16
TORSDOF 8
ENDMDL
MODEL 6
REMARK VINA RESULT:      -7.4      4.239      7.589
REMARK  8 active torsions:
REMARK  status: ('A' for Active; 'I' for Inactive)
REMARK    1  A    between atoms: C_3  and  C_23 
REMARK    2  A    between atoms: C_5  and  C_21 
REMARK    3  A    between atoms: C_5  and  C_12 
REMARK    4  A    between atoms: C_5  and  N_25 
REMARK       I    between atoms: C_6  and  N_25 
REMARK    5  A    between atoms: C_6  and  C_17 
REMARK    6  A    between atoms: C_9  and  C_12 
REMARK    7  A    between atoms: N_11  and  C_17 
REMARK    8  A    between atoms: C_17  and  C_23 
ROOT
HETATM    1  C           1     -21.202  -7.689  -3.032  0.00  0.00     0.190 C 
ENDROOT
BRANCH   1   2
HETATM    2  C           1     -21.957  -6.396  -3.216  0.00  0.00     0.197 C 
HETATM    3  O           1     -22.438  -6.106  -4.332  0.00  0.00    -0.646 OA
HETATM    4  O           1     -22.103  -5.615  -2.251  0.00  0.00    -0.646 OA
ENDBRANCH   1   2
BRANCH   1   5
HETATM    5  C           1     -20.832  -7.857  -1.564  0.00  0.00     0.077 C 
BRANCH   5   6
HETATM    6  C           1     -21.967  -8.508  -0.834  0.00  0.00    -0.028 A 
HETATM    7  C           1     -22.734  -7.931   0.153  0.00  0.00     0.096 A 
HETATM    8  N           1     -23.659  -8.858   0.557  0.00  0.00    -0.365 N 
HETATM    9  H           1     -24.383  -8.697   1.301  0.00  0.00     0.165 HD
HETATM   10  C           1     -23.504 -10.028  -0.152  0.00  0.00     0.042 A 
HETATM   11  C           1     -22.443  -9.833  -1.036  0.00  0.00    -0.002 A 
HETATM   12  C           1     -24.216 -11.231  -0.079  0.00  0.00     0.030 A 
HETATM   13  C           1     -22.070 -10.889  -1.890  0.00  0.00     0.014 A 
HETATM   14  C           1     -22.771 -12.099  -1.830  0.00  0.00     0.001 A 
HETATM   15  C           1     -23.828 -12.265  -0.937  0.00  0.00     0.002 A 
ENDBRANCH   5   6
ENDBRANCH   1   5
BRANCH   1  16
HETATM   16  N           1     -19.993  -7.660  -3.833  0.00  0.00    -0.344 N 
HETATM   17  C           1     -19.874  -8.480  -4.922  0.00  0.00     0.249 C 
HETATM   18  O           1     -20.242  -8.098  -6.008  0.00  0.00    -0.271 OA
HETATM   19  H           1     -19.238  -7.033  -3.586  0.00  0.00     0.163 HD
BRANCH  17  20
HETATM   20  C           1     -19.285  -9.861  -4.767  0.00  0.00     0.275 C 
BRANCH  20  21
HETATM   21  N           1     -19.542 -10.657  -6.011  0.00  0.00    -0.066 N 
HETATM   22  H           1     -18.717 -10.585  -6.649  0.00  0.00     0.275 HD
HETATM   23  H           1     -19.698 -11.659  -5.758  0.00  0.00     0.275 HD
HETATM   24  H           1     -20.389 -10.282  -6.495  0.00  0.00     0.275 HD
ENDBRANCH  20  21
BRANCH  20  25
HETATM   25  C           1     -17.784  -9.750  -4.536  0.00  0.00     0.046 C 
BRANCH  25  26
HETATM   26  C           1     -17.510  -9.577  -3.047  0.00  0.00    -0.020 C 
HETATM   27  C           1     -16.015  -9.705  -2.788  0.00  0.00     0.009 C 
HETATM   28  C           1     -18.254 -10.652  -2.266  0.00  0.00     0.009 C 
ENDBRANCH  25  26
ENDBRANCH  20  25
ENDBRANCH  17  20
ENDBRANCH   1  16
TORSDOF 8
ENDMDL
MODEL 7
REMARK VINA RESULT:      -7.3      5.054      7.727
REMARK  8 active torsions:
REMARK  status: ('A' for Active; 'I' for Inactive)
REMARK    1  A    between atoms: C_3  and  C_23 
REMARK    2  A    between atoms: C_5  and  C_21 
REMARK    3  A    between atoms: C_5  and  C_12 
REMARK    4  A    between atoms: C_5  and  N_25 
REMARK       I    between atoms: C_6  and  N_25 
REMARK    5  A    between atoms: C_6  and  C_17 
REMARK    6  A    between atoms: C_9  and  C_12 
REMARK    7  A    between atoms: N_11  and  C_17 
REMARK    8  A    between atoms: C_17  and  C_23 
ROOT
HETATM    1  C           1     -19.428 -10.102  -4.891  0.00  0.00     0.190 C 
ENDROOT
BRANCH   1   2
HETATM    2  C           1     -20.830 -10.013  -5.442  0.00  0.00     0.197 C 
HETATM    3  O           1     -21.549 -11.034  -5.491  0.00  0.00    -0.646 OA
HETATM    4  O           1     -21.273  -8.917  -5.849  0.00  0.00    -0.646 OA
ENDBRANCH   1   2
BRANCH   1   5
HETATM    5  C           1     -19.187  -8.948  -3.927  0.00  0.00     0.077 C 
BRANCH   5   6
HETATM    6  C           1     -19.829  -9.256  -2.609  0.00  0.00    -0.028 A 
HETATM    7  C           1     -19.610 -10.379  -1.844  0.00  0.00     0.096 A 
HETATM    8  N           1     -20.388 -10.277  -0.720  0.00  0.00    -0.365 N 
HETATM    9  H           1     -20.427 -10.990   0.050  0.00  0.00     0.165 HD
HETATM   10  C           1     -21.108  -9.103  -0.743  0.00  0.00     0.042 A 
HETATM   11  C           1     -20.774  -8.441  -1.925  0.00  0.00    -0.002 A 
HETATM   12  C           1     -22.020  -8.583   0.181  0.00  0.00     0.030 A 
HETATM   13  C           1     -21.378  -7.200  -2.202  0.00  0.00     0.014 A 
HETATM   14  C           1     -22.293  -6.665  -1.287  0.00  0.00     0.001 A 
HETATM   15  C           1     -22.608  -7.349  -0.114  0.00  0.00     0.002 A 
ENDBRANCH   5   6
ENDBRANCH   1   5
BRANCH   1  16
HETATM   16  N           1     -18.475 -10.027  -5.982  0.00  0.00    -0.344 N 
HETATM   17  C           1     -17.867 -11.164  -6.440  0.00  0.00     0.249 C 
HETATM   18  O           1     -18.376 -11.804  -7.329  0.00  0.00    -0.271 OA
HETATM   19  H           1     -18.260  -9.132  -6.404  0.00  0.00     0.163 HD
BRANCH  17  20
HETATM   20  C           1     -16.562 -11.619  -5.833  0.00  0.00     0.275 C 
BRANCH  20  21
HETATM   21  N           1     -15.675 -12.167  -6.910  0.00  0.00    -0.066 N 
HETATM   22  H           1     -15.982 -13.135  -7.158  0.00  0.00     0.275 HD
HETATM   23  H           1     -15.736 -11.556  -7.756  0.00  0.00     0.275 HD
HETATM   24  H           1     -14.688 -12.192  -6.568  0.00  0.00     0.275 HD
ENDBRANCH  20  21
BRANCH  20  25
HETATM   25  C           1     -15.875 -10.437  -5.161  0.00  0.00     0.046 C 
BRANCH  25  26
HETATM   26  C           1     -15.607 -10.770  -3.699  0.00  0.00    -0.020 C 
HETATM   27  C           1     -16.494 -11.934  -3.274  0.00  0.00     0.009 C 
HETATM   28  C           1     -15.917  -9.555  -2.836  0.00  0.00     0.009 C 
ENDBRANCH  25  26
ENDBRANCH  20  25
ENDBRANCH  17  20
ENDBRANCH   1  16
TORSDOF 8
ENDMDL
MODEL 8
REMARK VINA RESULT:      -7.3      3.369      6.110
REMARK  8 active torsions:
REMARK  status: ('A' for Active; 'I' for Inactive)
REMARK    1  A    between atoms: C_3  and  C_23 
REMARK    2  A    between atoms: C_5  and  C_21 
REMARK    3  A    between atoms: C_5  and  C_12 
REMARK    4  A    between atoms: C_5  and  N_25 
REMARK       I    between atoms: C_6  and  N_25 
REMARK    5  A    between atoms: C_6  and  C_17 
REMARK    6  A    between atoms: C_9  and  C_12 
REMARK    7  A    between atoms: N_11  and  C_17 
REMARK    8  A    between atoms: C_17  and  C_23 
ROOT
HETATM    1  C           1     -20.426  -7.471  -4.377  0.00  0.00     0.190 C 
ENDROOT
BRANCH   1   2
HETATM    2  C           1     -20.537  -6.488  -5.517  0.00  0.00     0.197 C 
HETATM    3  O           1     -20.732  -6.899  -6.681  0.00  0.00    -0.646 OA
HETATM    4  O           1     -20.436  -5.262  -5.297  0.00  0.00    -0.646 OA
ENDBRANCH   1   2
BRANCH   1   5
HETATM    5  C           1     -19.998  -8.829  -4.917  0.00  0.00     0.077 C 
BRANCH   5   6
HETATM    6  C           1     -18.806  -9.316  -4.153  0.00  0.00    -0.028 A 
HETATM    7  C           1     -18.658  -9.300  -2.784  0.00  0.00     0.096 A 
HETATM    8  N           1     -17.429  -9.831  -2.491  0.00  0.00    -0.365 N 
HETATM    9  H           1     -17.041  -9.947  -1.521  0.00  0.00     0.165 HD
HETATM   10  C           1     -16.777 -10.193  -3.648  0.00  0.00     0.042 A 
HETATM   11  C           1     -17.624  -9.878  -4.711  0.00  0.00    -0.002 A 
HETATM   12  C           1     -15.515 -10.769  -3.834  0.00  0.00     0.030 A 
HETATM   13  C           1     -17.194 -10.149  -6.024  0.00  0.00     0.014 A 
HETATM   14  C           1     -15.934 -10.725  -6.227  0.00  0.00     0.001 A 
HETATM   15  C           1     -15.109 -11.029  -5.146  0.00  0.00     0.002 A 
ENDBRANCH   5   6
ENDBRANCH   1   5
BRANCH   1  16
HETATM   16  N           1     -21.714  -7.596  -3.721  0.00  0.00    -0.344 N 
HETATM   17  C           1     -21.916  -7.028  -2.493  0.00  0.00     0.249 C 
HETATM   18  O           1     -22.325  -5.894  -2.412  0.00  0.00    -0.271 OA
HETATM   19  H           1     -22.464  -8.105  -4.173  0.00  0.00     0.163 HD
BRANCH  17  20
HETATM   20  C           1     -21.626  -7.817  -1.240  0.00  0.00     0.275 C 
BRANCH  20  21
HETATM   21  N           1     -22.400  -7.237  -0.094  0.00  0.00    -0.066 N 
HETATM   22  H           1     -21.752  -6.708   0.533  0.00  0.00     0.275 HD
HETATM   23  H           1     -23.133  -6.589  -0.462  0.00  0.00     0.275 HD
HETATM   24  H           1     -22.854  -8.008   0.446  0.00  0.00     0.275 HD
ENDBRANCH  20  21
BRANCH  20  25
HETATM   25  C           1     -22.037  -9.269  -1.446  0.00  0.00     0.046 C 
BRANCH  25  26
HETATM   26  C           1     -22.493  -9.861  -0.119  0.00  0.00    -0.020 C 
HETATM   27  C           1     -21.396 -10.759   0.439  0.00  0.00     0.009 C 
HETATM   28  C           1     -23.758 -10.680  -0.336  0.00  0.00     0.009 C 
ENDBRANCH  25  26
ENDBRANCH  20  25
ENDBRANCH  17  20
ENDBRANCH   1  16
TORSDOF 8
ENDMDL
MODEL 9
REMARK VINA RESULT:      -7.2      2.514      3.400
REMARK  8 active torsions:
REMARK  status: ('A' for Active; 'I' for Inactive)
REMARK    1  A    between atoms: C_3  and  C_23 
REMARK    2  A    between atoms: C_5  and  C_21 
REMARK    3  A    between atoms: C_5  and  C_12 
REMARK    4  A    between atoms: C_5  and  N_25 
REMARK       I    between atoms: C_6  and  N_25 
REMARK    5  A    between atoms: C_6  and  C_17 
REMARK    6  A    between atoms: C_9  and  C_12 
REMARK    7  A    between atoms: N_11  and  C_17 
REMARK    8  A    between atoms: C_17  and  C_23 
ROOT
HETATM    1  C           1     -21.131  -6.492  -5.191  0.00  0.00     0.190 C 
ENDROOT
BRANCH   1   2
HETATM    2  C           1     -21.649  -6.381  -3.778  0.00  0.00     0.197 C 
HETATM    3  O           1     -20.857  -6.452  -2.814  0.00  0.00    -0.646 OA
HETATM    4  O           1     -22.870  -6.216  -3.572  0.00  0.00    -0.646 OA
ENDBRANCH   1   2
BRANCH   1   5
HETATM    5  C           1     -21.925  -5.562  -6.098  0.00  0.00     0.077 C 
BRANCH   5   6
HETATM    6  C           1     -21.026  -5.017  -7.165  0.00  0.00    -0.028 A 
HETATM    7  C           1     -19.678  -4.766  -7.039  0.00  0.00     0.096 A 
HETATM    8  N           1     -19.231  -4.275  -8.238  0.00  0.00    -0.365 N 
HETATM    9  H           1     -18.239  -3.994  -8.439  0.00  0.00     0.165 HD
HETATM   10  C           1     -20.268  -4.204  -9.141  0.00  0.00     0.042 A 
HETATM   11  C           1     -21.412  -4.666  -8.489  0.00  0.00    -0.002 A 
HETATM   12  C           1     -20.282  -3.770 -10.471  0.00  0.00     0.030 A 
HETATM   13  C           1     -22.629  -4.698  -9.195  0.00  0.00     0.014 A 
HETATM   14  C           1     -22.660  -4.268 -10.527  0.00  0.00     0.001 A 
HETATM   15  C           1     -21.501  -3.811 -11.153  0.00  0.00     0.002 A 
ENDBRANCH   5   6
ENDBRANCH   1   5
BRANCH   1  16
HETATM   16  N           1     -21.279  -7.859  -5.653  0.00  0.00    -0.344 N 
HETATM   17  C           1     -20.910  -8.900  -4.844  0.00  0.00     0.249 C 
HETATM   18  O           1     -21.714  -9.388  -4.085  0.00  0.00    -0.271 OA
HETATM   19  H           1     -21.657  -8.043  -6.574  0.00  0.00     0.163 HD
BRANCH  17  20
HETATM   20  C           1     -19.501  -9.435  -4.898  0.00  0.00     0.275 C 
BRANCH  20  21
HETATM   21  N           1     -18.784  -8.835  -6.071  0.00  0.00    -0.066 N 
HETATM   22  H           1     -17.939  -8.318  -5.737  0.00  0.00     0.275 HD
HETATM   23  H           1     -18.490  -9.595  -6.725  0.00  0.00     0.275 HD
HETATM   24  H           1     -19.422  -8.173  -6.568  0.00  0.00     0.275 HD
ENDBRANCH  20  21
BRANCH  20  25
HETATM   25  C           1     -18.768  -9.069  -3.614  0.00  0.00     0.046 C 
BRANCH  25  26
HETATM   26  C           1     -17.742 -10.148  -3.291  0.00  0.00    -0.020 C 
HETATM   27  C           1     -18.279 -11.043  -2.182  0.00  0.00     0.009 C 
HETATM   28  C           1     -16.445  -9.494  -2.831  0.00  0.00     0.009 C 
ENDBRANCH  25  26
ENDBRANCH  20  25
ENDBRANCH  17  20
ENDBRANCH   1  16
TORSDOF 8
ENDMDL
