MODEL 1
REMARK VINA RESULT:      -7.8      0.000      0.000
REMARK  7 active torsions:
REMARK  status: ('A' for Active; 'I' for Inactive)
REMARK    1  A    between atoms: C_2  and  C_12 
REMARK    2  A    between atoms: C_4  and  C_16 
REMARK    3  A    between atoms: C_4  and  N_21 
REMARK    4  A    between atoms: O_5  and  C_6 
REMARK    5  A    between atoms: C_10  and  C_11 
REMARK    6  A    between atoms: C_11  and  C_12 
REMARK    7  A    between atoms: C_11  and  N_17 
REMARK       I    between atoms: C_16  and  N_17 
ROOT
HETATM    1  C           1     -35.850  -1.150 -12.150  0.00  0.00     0.189 C 
ENDROOT
BRANCH   1   2
HETATM    2  C           1     -36.756  -0.451 -11.166  0.00  0.00     0.197 C 
HETATM    3  O           1     -36.340   0.542 -10.530  0.00  0.00    -0.646 OA
HETATM    4  O           1     -37.921  -0.866 -10.984  0.00  0.00    -0.646 OA
ENDBRANCH   1   2
BRANCH   1   5
HETATM    5  C           1     -34.497  -1.408 -11.501  0.00  0.00     0.074 C 
BRANCH   5   6
HETATM    6  C           1     -34.291  -2.883 -11.346  0.00  0.00    -0.056 A 
HETATM    7  C           1     -35.339  -3.692 -10.906  0.00  0.00     0.010 A 
HETATM    8  C           1     -35.146  -5.066 -10.761  0.00  0.00     0.037 A 
HETATM    9  C           1     -33.906  -5.631 -11.057  0.00  0.00     0.065 A 
HETATM   10  C           1     -32.857  -4.823 -11.496  0.00  0.00     0.037 A 
HETATM   11  C           1     -33.050  -3.448 -11.641  0.00  0.00     0.010 A 
BRANCH   9  12
HETATM   12  O           1     -33.719  -6.966 -10.916  0.00  0.00    -0.361 OA
HETATM   13  H           1     -34.314  -7.419 -11.536  0.00  0.00     0.217 HD
ENDBRANCH   9  12
ENDBRANCH   5   6
ENDBRANCH   1   5
BRANCH   1  14
HETATM   14  N           1     -35.673  -0.312 -13.320  0.00  0.00    -0.344 N 
HETATM   15  H           1     -34.835   0.247 -13.420  0.00  0.00     0.163 HD
HETATM   16  C           1     -36.637  -0.277 -14.291  0.00  0.00     0.248 C 
HETATM   17  O           1     -37.638  -0.945 -14.172  0.00  0.00    -0.271 OA
BRANCH  16  18
HETATM   18  C           1     -36.452   0.593 -15.508  0.00  0.00     0.270 C 
HETATM   19  C           1     -35.398   1.655 -15.219  0.00  0.00     0.050 C 
BRANCH  18  20
HETATM   20  N           1     -37.752   1.261 -15.848  0.00  0.00    -0.067 N 
HETATM   21  H           1     -38.466   0.533 -16.078  0.00  0.00     0.275 HD
HETATM   22  H           1     -38.078   1.824 -15.031  0.00  0.00     0.275 HD
HETATM   23  H           1     -37.616   1.888 -16.673  0.00  0.00     0.275 HD
ENDBRANCH  18  20
ENDBRANCH  16  18
ENDBRANCH   1  14
TORSDOF 7
ENDMDL
MODEL 2
REMARK VINA RESULT:      -7.1     13.278     16.457
REMARK  7 active torsions:
REMARK  status: ('A' for Active; 'I' for Inactive)
REMARK    1  A    between atoms: C_2  and  C_12 
REMARK    2  A    between atoms: C_4  and  C_16 
REMARK    3  A    between atoms: C_4  and  N_21 
REMARK    4  A    between atoms: O_5  and  C_6 
REMARK    5  A    between atoms: C_10  and  C_11 
REMARK    6  A    between atoms: C_11  and  C_12 
REMARK    7  A    between atoms: C_11  and  N_17 
REMARK       I    between atoms: C_16  and  N_17 
ROOT
HETATM    1  C           1     -21.069  -5.235  -6.657  0.00  0.00     0.189 C 
ENDROOT
BRANCH   1   2
HETATM    2  C           1     -19.676  -5.509  -7.167  0.00  0.00     0.197 C 
HETATM    3  O           1     -18.869  -4.566  -7.320  0.00  0.00    -0.646 OA
HETATM    4  O           1     -19.328  -6.679  -7.438  0.00  0.00    -0.646 OA
ENDBRANCH   1   2
BRANCH   1   5
HETATM    5  C           1     -21.566  -3.910  -7.223  0.00  0.00     0.074 C 
BRANCH   5   6
HETATM    6  C           1     -22.115  -4.131  -8.599  0.00  0.00    -0.056 A 
HETATM    7  C           1     -21.268  -4.068  -9.706  0.00  0.00     0.010 A 
HETATM    8  C           1     -21.781  -4.273 -10.987  0.00  0.00     0.037 A 
HETATM    9  C           1     -23.139  -4.540 -11.161  0.00  0.00     0.065 A 
HETATM   10  C           1     -23.985  -4.603 -10.055  0.00  0.00     0.037 A 
HETATM   11  C           1     -23.473  -4.398  -8.772  0.00  0.00     0.010 A 
BRANCH   9  12
HETATM   12  O           1     -23.636  -4.739 -12.406  0.00  0.00    -0.361 OA
HETATM   13  H           1     -24.596  -4.593 -12.373  0.00  0.00     0.217 HD
ENDBRANCH   9  12
ENDBRANCH   5   6
ENDBRANCH   1   5
BRANCH   1  14
HETATM   14  N           1     -21.047  -5.162  -5.208  0.00  0.00    -0.344 N 
HETATM   15  H           1     -20.839  -4.285  -4.749  0.00  0.00     0.163 HD
HETATM   16  C           1     -21.308  -6.279  -4.463  0.00  0.00     0.248 C 
HETATM   17  O           1     -21.558  -7.327  -5.012  0.00  0.00    -0.271 OA
BRANCH  16  18
HETATM   18  C           1     -21.286  -6.204  -2.957  0.00  0.00     0.270 C 
HETATM   19  C           1     -20.839  -7.543  -2.386  0.00  0.00     0.050 C 
BRANCH  18  20
HETATM   20  N           1     -22.662  -5.881  -2.452  0.00  0.00    -0.067 N 
HETATM   21  H           1     -23.182  -6.770  -2.272  0.00  0.00     0.275 HD
HETATM   22  H           1     -22.588  -5.334  -1.565  0.00  0.00     0.275 HD
HETATM   23  H           1     -23.173  -5.318  -3.168  0.00  0.00     0.275 HD
ENDBRANCH  18  20
ENDBRANCH  16  18
ENDBRANCH   1  14
TORSDOF 7
ENDMDL
MODEL 3
REMARK VINA RESULT:      -6.8     13.088     16.172
REMARK  7 active torsions:
REMARK  status: ('A' for Active; 'I' for Inactive)
REMARK    1  A    between atoms: C_2  and  C_12 
REMARK    2  A    between atoms: C_4  and  C_16 
REMARK    3  A    between atoms: C_4  and  N_21 
REMARK    4  A    between atoms: O_5  and  C_6 
REMARK    5  A    between atoms: C_10  and  C_11 
REMARK    6  A    between atoms: C_11  and  C_12 
REMARK    7  A    between atoms: C_11  and  N_17 
REMARK       I    between atoms: C_16  and  N_17 
ROOT
HETATM    1  C           1     -20.969  -5.000  -7.115  0.00  0.00     0.189 C 
ENDROOT
BRANCH   1   2
HETATM    2  C           1     -19.541  -4.558  -6.906  0.00  0.00     0.197 C 
HETATM    3  O           1     -19.065  -4.507  -5.751  0.00  0.00    -0.646 OA
HETATM    4  O           1     -18.834  -4.241  -7.887  0.00  0.00    -0.646 OA
ENDBRANCH   1   2
BRANCH   1   5
HETATM    5  C           1     -21.796  -3.823  -7.618  0.00  0.00     0.074 C 
BRANCH   5   6
HETATM    6  C           1     -22.296  -4.119  -8.998  0.00  0.00    -0.056 A 
HETATM    7  C           1     -23.655  -4.354  -9.212  0.00  0.00     0.010 A 
HETATM    8  C           1     -24.120  -4.630 -10.498  0.00  0.00     0.037 A 
HETATM    9  C           1     -23.227  -4.672 -11.569  0.00  0.00     0.065 A 
HETATM   10  C           1     -21.869  -4.439 -11.355  0.00  0.00     0.037 A 
HETATM   11  C           1     -21.403  -4.162 -10.069  0.00  0.00     0.010 A 
BRANCH   9  12
HETATM   12  O           1     -23.680  -4.941 -12.818  0.00  0.00    -0.361 OA
HETATM   13  H           1     -24.645  -5.041 -12.772  0.00  0.00     0.217 HD
ENDBRANCH   9  12
ENDBRANCH   5   6
ENDBRANCH   1   5
BRANCH   1  14
HETATM   14  N           1     -21.516  -5.473  -5.859  0.00  0.00    -0.344 N 
HETATM   15  H           1     -21.896  -4.813  -5.192  0.00  0.00     0.163 HD
HETATM   16  C           1     -21.521  -6.811  -5.575  0.00  0.00     0.248 C 
HETATM   17  O           1     -21.069  -7.600  -6.371  0.00  0.00    -0.271 OA
BRANCH  16  18
HETATM   18  C           1     -22.092  -7.304  -4.268  0.00  0.00     0.270 C 
HETATM   19  C           1     -21.641  -6.387  -3.138  0.00  0.00     0.050 C 
BRANCH  18  20
HETATM   20  N           1     -21.605  -8.698  -4.004  0.00  0.00    -0.067 N 
HETATM   21  H           1     -20.604  -8.776  -4.293  0.00  0.00     0.275 HD
HETATM   22  H           1     -21.692  -8.909  -2.984  0.00  0.00     0.275 HD
HETATM   23  H           1     -22.180  -9.377  -4.551  0.00  0.00     0.275 HD
ENDBRANCH  18  20
ENDBRANCH  16  18
ENDBRANCH   1  14
TORSDOF 7
ENDMDL
MODEL 4
REMARK VINA RESULT:      -6.2     16.259     18.047
REMARK  7 active torsions:
REMARK  status: ('A' for Active; 'I' for Inactive)
REMARK    1  A    between atoms: C_2  and  C_12 
REMARK    2  A    between atoms: C_4  and  C_16 
REMARK    3  A    between atoms: C_4  and  N_21 
REMARK    4  A    between atoms: O_5  and  C_6 
REMARK    5  A    between atoms: C_10  and  C_11 
REMARK    6  A    between atoms: C_11  and  C_12 
REMARK    7  A    between atoms: C_11  and  N_17 
REMARK       I    between atoms: C_16  and  N_17 
ROOT
HETATM    1  C           1     -20.196  -7.623  -4.905  0.00  0.00     0.189 C 
ENDROOT
BRANCH   1   2
HETATM    2  C           1     -19.088  -8.633  -5.077  0.00  0.00     0.197 C 
HETATM    3  O           1     -18.557  -9.156  -4.073  0.00  0.00    -0.646 OA
HETATM    4  O           1     -18.700  -8.947  -6.224  0.00  0.00    -0.646 OA
ENDBRANCH   1   2
BRANCH   1   5
HETATM    5  C           1     -21.477  -8.339  -4.498  0.00  0.00     0.074 C 
BRANCH   5   6
HETATM    6  C           1     -21.690  -8.182  -3.025  0.00  0.00    -0.056 A 
HETATM    7  C           1     -21.664  -9.301  -2.192  0.00  0.00     0.010 A 
HETATM    8  C           1     -21.863  -9.154  -0.819  0.00  0.00     0.037 A 
HETATM    9  C           1     -22.088  -7.887  -0.279  0.00  0.00     0.065 A 
HETATM   10  C           1     -22.115  -6.769  -1.111  0.00  0.00     0.037 A 
HETATM   11  C           1     -21.916  -6.916  -2.485  0.00  0.00     0.010 A 
BRANCH   9  12
HETATM   12  O           1     -22.282  -7.745   1.054  0.00  0.00    -0.361 OA
HETATM   13  H           1     -23.174  -7.385   1.192  0.00  0.00     0.217 HD
ENDBRANCH   9  12
ENDBRANCH   5   6
ENDBRANCH   1   5
BRANCH   1  14
HETATM   14  N           1     -20.410  -6.924  -6.158  0.00  0.00    -0.344 N 
HETATM   15  H           1     -20.440  -7.442  -7.027  0.00  0.00     0.163 HD
HETATM   16  C           1     -20.573  -5.566  -6.165  0.00  0.00     0.248 C 
HETATM   17  O           1     -20.537  -4.948  -5.127  0.00  0.00    -0.271 OA
BRANCH  16  18
HETATM   18  C           1     -20.797  -4.839  -7.468  0.00  0.00     0.270 C 
HETATM   19  C           1     -19.469  -4.304  -7.987  0.00  0.00     0.050 C 
BRANCH  18  20
HETATM   20  N           1     -21.743  -3.696  -7.246  0.00  0.00    -0.067 N 
HETATM   21  H           1     -22.534  -4.012  -6.642  0.00  0.00     0.275 HD
HETATM   22  H           1     -21.236  -2.911  -6.777  0.00  0.00     0.275 HD
HETATM   23  H           1     -22.116  -3.369  -8.166  0.00  0.00     0.275 HD
ENDBRANCH  18  20
ENDBRANCH  16  18
ENDBRANCH   1  14
TORSDOF 7
ENDMDL
MODEL 5
REMARK VINA RESULT:      -6.2     13.772     16.245
REMARK  7 active torsions:
REMARK  status: ('A' for Active; 'I' for Inactive)
REMARK    1  A    between atoms: C_2  and  C_12 
REMARK    2  A    between atoms: C_4  and  C_16 
REMARK    3  A    between atoms: C_4  and  N_21 
REMARK    4  A    between atoms: O_5  and  C_6 
REMARK    5  A    between atoms: C_10  and  C_11 
REMARK    6  A    between atoms: C_11  and  C_12 
REMARK    7  A    between atoms: C_11  and  N_17 
REMARK       I    between atoms: C_16  and  N_17 
ROOT
HETATM    1  C           1     -21.206  -5.311  -6.287  0.00  0.00     0.189 C 
ENDROOT
BRANCH   1   2
HETATM    2  C           1     -19.821  -4.731  -6.133  0.00  0.00     0.197 C 
HETATM    3  O           1     -19.452  -4.277  -5.028  0.00  0.00    -0.646 OA
HETATM    4  O           1     -19.042  -4.704  -7.111  0.00  0.00    -0.646 OA
ENDBRANCH   1   2
BRANCH   1   5
HETATM    5  C           1     -21.147  -6.822  -6.100  0.00  0.00     0.074 C 
BRANCH   5   6
HETATM    6  C           1     -21.104  -7.141  -4.638  0.00  0.00    -0.056 A 
HETATM    7  C           1     -21.880  -6.407  -3.740  0.00  0.00     0.010 A 
HETATM    8  C           1     -21.838  -6.705  -2.377  0.00  0.00     0.037 A 
HETATM    9  C           1     -21.022  -7.737  -1.914  0.00  0.00     0.065 A 
HETATM   10  C           1     -20.247  -8.471  -2.811  0.00  0.00     0.037 A 
HETATM   11  C           1     -20.288  -8.173  -4.174  0.00  0.00     0.010 A 
BRANCH   9  12
HETATM   12  O           1     -20.983  -8.026  -0.590  0.00  0.00    -0.361 OA
HETATM   13  H           1     -20.533  -7.294  -0.136  0.00  0.00     0.217 HD
ENDBRANCH   9  12
ENDBRANCH   5   6
ENDBRANCH   1   5
BRANCH   1  14
HETATM   14  N           1     -21.711  -5.008  -7.613  0.00  0.00    -0.344 N 
HETATM   15  H           1     -21.109  -5.114  -8.419  0.00  0.00     0.163 HD
HETATM   16  C           1     -23.001  -4.582  -7.773  0.00  0.00     0.248 C 
HETATM   17  O           1     -23.720  -4.456  -6.809  0.00  0.00    -0.271 OA
BRANCH  16  18
HETATM   18  C           1     -23.527  -4.268  -9.151  0.00  0.00     0.270 C 
HETATM   19  C           1     -22.391  -3.746 -10.022  0.00  0.00     0.050 C 
BRANCH  18  20
HETATM   20  N           1     -24.599  -3.223  -9.052  0.00  0.00    -0.067 N 
HETATM   21  H           1     -24.746  -2.786  -9.990  0.00  0.00     0.275 HD
HETATM   22  H           1     -25.489  -3.667  -8.730  0.00  0.00     0.275 HD
HETATM   23  H           1     -24.308  -2.489  -8.368  0.00  0.00     0.275 HD
ENDBRANCH  18  20
ENDBRANCH  16  18
ENDBRANCH   1  14
TORSDOF 7
ENDMDL
MODEL 6
REMARK VINA RESULT:      -6.1     15.311     17.772
REMARK  7 active torsions:
REMARK  status: ('A' for Active; 'I' for Inactive)
REMARK    1  A    between atoms: C_2  and  C_12 
REMARK    2  A    between atoms: C_4  and  C_16 
REMARK    3  A    between atoms: C_4  and  N_21 
REMARK    4  A    between atoms: O_5  and  C_6 
REMARK    5  A    between atoms: C_10  and  C_11 
REMARK    6  A    between atoms: C_11  and  C_12 
REMARK    7  A    between atoms: C_11  and  N_17 
REMARK       I    between atoms: C_16  and  N_17 
ROOT
HETATM    1  C           1     -21.205  -6.915  -4.586  0.00  0.00     0.189 C 
ENDROOT
BRANCH   1   2
HETATM    2  C           1     -20.657  -7.957  -5.530  0.00  0.00     0.197 C 
HETATM    3  O           1     -19.422  -8.128  -5.624  0.00  0.00    -0.646 OA
HETATM    4  O           1     -21.437  -8.649  -6.219  0.00  0.00    -0.646 OA
ENDBRANCH   1   2
BRANCH   1   5
HETATM    5  C           1     -20.451  -5.605  -4.782  0.00  0.00     0.074 C 
BRANCH   5   6
HETATM    6  C           1     -20.695  -5.092  -6.167  0.00  0.00    -0.056 A 
HETATM    7  C           1     -22.000  -4.964  -6.644  0.00  0.00     0.010 A 
HETATM    8  C           1     -22.227  -4.486  -7.934  0.00  0.00     0.037 A 
HETATM    9  C           1     -21.149  -4.136  -8.748  0.00  0.00     0.065 A 
HETATM   10  C           1     -19.845  -4.264  -8.272  0.00  0.00     0.037 A 
HETATM   11  C           1     -19.618  -4.742  -6.981  0.00  0.00     0.010 A 
BRANCH   9  12
HETATM   12  O           1     -21.371  -3.672 -10.002  0.00  0.00    -0.361 OA
HETATM   13  H           1     -21.126  -2.731 -10.021  0.00  0.00     0.217 HD
ENDBRANCH   9  12
ENDBRANCH   5   6
ENDBRANCH   1   5
BRANCH   1  14
HETATM   14  N           1     -21.038  -7.368  -3.219  0.00  0.00    -0.344 N 
HETATM   15  H           1     -20.343  -8.071  -3.000  0.00  0.00     0.163 HD
HETATM   16  C           1     -21.818  -6.845  -2.224  0.00  0.00     0.248 C 
HETATM   17  O           1     -22.647  -6.005  -2.485  0.00  0.00    -0.271 OA
BRANCH  16  18
HETATM   18  C           1     -21.644  -7.315  -0.801  0.00  0.00     0.270 C 
HETATM   19  C           1     -20.887  -8.637  -0.792  0.00  0.00     0.050 C 
BRANCH  18  20
HETATM   20  N           1     -22.991  -7.507  -0.170  0.00  0.00    -0.067 N 
HETATM   21  H           1     -23.683  -7.781  -0.904  0.00  0.00     0.275 HD
HETATM   22  H           1     -22.933  -8.260   0.553  0.00  0.00     0.275 HD
HETATM   23  H           1     -23.296  -6.615   0.280  0.00  0.00     0.275 HD
ENDBRANCH  18  20
ENDBRANCH  16  18
ENDBRANCH   1  14
TORSDOF 7
ENDMDL
MODEL 7
REMARK VINA RESULT:      -5.9     15.843     17.864
REMARK  7 active torsions:
REMARK  status: ('A' for Active; 'I' for Inactive)
REMARK    1  A    between atoms: C_2  and  C_12 
REMARK    2  A    between atoms: C_4  and  C_16 
REMARK    3  A    between atoms: C_4  and  N_21 
REMARK    4  A    between atoms: O_5  and  C_6 
REMARK    5  A    between atoms: C_10  and  C_11 
REMARK    6  A    between atoms: C_11  and  C_12 
REMARK    7  A    between atoms: C_11  and  N_17 
REMARK       I    between atoms: C_16  and  N_17 
ROOT
HETATM    1  C           1     -21.433  -7.244  -4.067  0.00  0.00     0.189 C 
ENDROOT
BRANCH   1   2
HETATM    2  C           1     -21.592  -6.878  -2.611  0.00  0.00     0.197 C 
HETATM    3  O           1     -22.379  -5.965  -2.279  0.00  0.00    -0.646 OA
HETATM    4  O           1     -20.936  -7.486  -1.738  0.00  0.00    -0.646 OA
ENDBRANCH   1   2
BRANCH   1   5
HETATM    5  C           1     -22.410  -6.430  -4.905  0.00  0.00     0.074 C 
BRANCH   5   6
HETATM    6  C           1     -21.649  -5.609  -5.899  0.00  0.00    -0.056 A 
HETATM    7  C           1     -20.256  -5.553  -5.839  0.00  0.00     0.010 A 
HETATM    8  C           1     -19.548  -4.786  -6.765  0.00  0.00     0.037 A 
HETATM    9  C           1     -20.233  -4.076  -7.751  0.00  0.00     0.065 A 
HETATM   10  C           1     -21.625  -4.131  -7.812  0.00  0.00     0.037 A 
HETATM   11  C           1     -22.334  -4.898  -6.885  0.00  0.00     0.010 A 
BRANCH   9  12
HETATM   12  O           1     -19.545  -3.332  -8.650  0.00  0.00    -0.361 OA
HETATM   13  H           1     -19.694  -2.395  -8.442  0.00  0.00     0.217 HD
ENDBRANCH   9  12
ENDBRANCH   5   6
ENDBRANCH   1   5
BRANCH   1  14
HETATM   14  N           1     -21.708  -8.658  -4.241  0.00  0.00    -0.344 N 
HETATM   15  H           1     -22.486  -9.085  -3.754  0.00  0.00     0.163 HD
HETATM   16  C           1     -20.918  -9.413  -5.064  0.00  0.00     0.248 C 
HETATM   17  O           1     -19.990  -8.902  -5.646  0.00  0.00    -0.271 OA
BRANCH  16  18
HETATM   18  C           1     -21.206 -10.882  -5.246  0.00  0.00     0.270 C 
HETATM   19  C           1     -20.581 -11.669  -4.100  0.00  0.00     0.050 C 
BRANCH  18  20
HETATM   20  N           1     -20.622 -11.349  -6.547  0.00  0.00    -0.067 N 
HETATM   21  H           1     -19.580 -11.366  -6.473  0.00  0.00     0.275 HD
HETATM   22  H           1     -20.973 -12.310  -6.762  0.00  0.00     0.275 HD
HETATM   23  H           1     -20.906 -10.695  -7.311  0.00  0.00     0.275 HD
ENDBRANCH  18  20
ENDBRANCH  16  18
ENDBRANCH   1  14
TORSDOF 7
ENDMDL
MODEL 8
REMARK VINA RESULT:      -5.9     17.984     19.503
REMARK  7 active torsions:
REMARK  status: ('A' for Active; 'I' for Inactive)
REMARK    1  A    between atoms: C_2  and  C_12 
REMARK    2  A    between atoms: C_4  and  C_16 
REMARK    3  A    between atoms: C_4  and  N_21 
REMARK    4  A    between atoms: O_5  and  C_6 
REMARK    5  A    between atoms: C_10  and  C_11 
REMARK    6  A    between atoms: C_11  and  C_12 
REMARK    7  A    between atoms: C_11  and  N_17 
REMARK       I    between atoms: C_16  and  N_17 
ROOT
HETATM    1  C           1     -21.642  -8.089  -1.947  0.00  0.00     0.189 C 
ENDROOT
BRANCH   1   2
HETATM    2  C           1     -21.995  -6.632  -2.121  0.00  0.00     0.197 C 
HETATM    3  O           1     -21.884  -6.091  -3.243  0.00  0.00    -0.646 OA
HETATM    4  O           1     -22.399  -5.965  -1.143  0.00  0.00    -0.646 OA
ENDBRANCH   1   2
BRANCH   1   5
HETATM    5  C           1     -21.414  -8.383  -0.470  0.00  0.00     0.074 C 
BRANCH   5   6
HETATM    6  C           1     -21.959  -9.738  -0.141  0.00  0.00    -0.056 A 
HETATM    7  C           1     -21.123 -10.712   0.409  0.00  0.00     0.010 A 
HETATM    8  C           1     -21.632 -11.975   0.713  0.00  0.00     0.037 A 
HETATM    9  C           1     -22.974 -12.264   0.468  0.00  0.00     0.065 A 
HETATM   10  C           1     -23.808 -11.293  -0.082  0.00  0.00     0.037 A 
HETATM   11  C           1     -23.301 -10.029  -0.388  0.00  0.00     0.010 A 
BRANCH   9  12
HETATM   12  O           1     -23.466 -13.492   0.764  0.00  0.00    -0.361 OA
HETATM   13  H           1     -23.717 -13.924  -0.069  0.00  0.00     0.217 HD
ENDBRANCH   9  12
ENDBRANCH   5   6
ENDBRANCH   1   5
BRANCH   1  14
HETATM   14  N           1     -20.432  -8.384  -2.690  0.00  0.00    -0.344 N 
HETATM   15  H           1     -19.602  -7.824  -2.547  0.00  0.00     0.163 HD
HETATM   16  C           1     -20.413  -9.419  -3.584  0.00  0.00     0.248 C 
HETATM   17  O           1     -21.406 -10.088  -3.755  0.00  0.00    -0.271 OA
BRANCH  16  18
HETATM   18  C           1     -19.155  -9.727  -4.357  0.00  0.00     0.270 C 
HETATM   19  C           1     -17.939  -9.413  -3.494  0.00  0.00     0.050 C 
BRANCH  18  20
HETATM   20  N           1     -19.114  -8.888  -5.600  0.00  0.00    -0.067 N 
HETATM   21  H           1     -19.703  -9.334  -6.339  0.00  0.00     0.275 HD
HETATM   22  H           1     -19.483  -7.934  -5.389  0.00  0.00     0.275 HD
HETATM   23  H           1     -18.128  -8.814  -5.938  0.00  0.00     0.275 HD
ENDBRANCH  18  20
ENDBRANCH  16  18
ENDBRANCH   1  14
TORSDOF 7
ENDMDL
MODEL 9
REMARK VINA RESULT:      -5.7     18.621     20.443
REMARK  7 active torsions:
REMARK  status: ('A' for Active; 'I' for Inactive)
REMARK    1  A    between atoms: C_2  and  C_12 
REMARK    2  A    between atoms: C_4  and  C_16 
REMARK    3  A    between atoms: C_4  and  N_21 
REMARK    4  A    between atoms: O_5  and  C_6 
REMARK    5  A    between atoms: C_10  and  C_11 
REMARK    6  A    between atoms: C_11  and  C_12 
REMARK    7  A    between atoms: C_11  and  N_17 
REMARK       I    between atoms: C_16  and  N_17 
ROOT
HETATM    1  C           1     -19.868  -9.589  -3.958  0.00  0.00     0.189 C 
ENDROOT
BRANCH   1   2
HETATM    2  C           1     -20.308 -10.294  -5.217  0.00  0.00     0.197 C 
HETATM    3  O           1     -19.520 -10.400  -6.182  0.00  0.00    -0.646 OA
HETATM    4  O           1     -21.460 -10.773  -5.296  0.00  0.00    -0.646 OA
ENDBRANCH   1   2
BRANCH   1   5
HETATM    5  C           1     -20.552  -8.230  -3.871  0.00  0.00     0.074 C 
BRANCH   5   6
HETATM    6  C           1     -21.322  -8.140  -2.591  0.00  0.00    -0.056 A 
HETATM    7  C           1     -21.661  -9.302  -1.897  0.00  0.00     0.010 A 
HETATM    8  C           1     -22.379  -9.217  -0.704  0.00  0.00     0.037 A 
HETATM    9  C           1     -22.758  -7.971  -0.205  0.00  0.00     0.065 A 
HETATM   10  C           1     -22.420  -6.810  -0.899  0.00  0.00     0.037 A 
HETATM   11  C           1     -21.701  -6.894  -2.092  0.00  0.00     0.010 A 
BRANCH   9  12
HETATM   12  O           1     -23.456  -7.889   0.954  0.00  0.00    -0.361 OA
HETATM   13  H           1     -23.311  -8.712   1.450  0.00  0.00     0.217 HD
ENDBRANCH   9  12
ENDBRANCH   5   6
ENDBRANCH   1   5
BRANCH   1  14
HETATM   14  N           1     -18.429  -9.404  -3.986  0.00  0.00    -0.344 N 
HETATM   15  H           1     -17.994  -8.946  -4.776  0.00  0.00     0.163 HD
HETATM   16  C           1     -17.662  -9.848  -2.944  0.00  0.00     0.248 C 
HETATM   17  O           1     -18.182 -10.395  -2.000  0.00  0.00    -0.271 OA
BRANCH  16  18
HETATM   18  C           1     -16.166  -9.655  -2.973  0.00  0.00     0.270 C 
HETATM   19  C           1     -15.672  -9.718  -4.413  0.00  0.00     0.050 C 
BRANCH  18  20
HETATM   20  N           1     -15.506 -10.739  -2.172  0.00  0.00    -0.067 N 
HETATM   21  H           1     -15.208 -11.510  -2.812  0.00  0.00     0.275 HD
HETATM   22  H           1     -14.670 -10.350  -1.681  0.00  0.00     0.275 HD
HETATM   23  H           1     -16.182 -11.112  -1.468  0.00  0.00     0.275 HD
ENDBRANCH  18  20
ENDBRANCH  16  18
ENDBRANCH   1  14
TORSDOF 7
ENDMDL
