MODEL 1
REMARK VINA RESULT:      -6.6      0.000      0.000
REMARK  10 active torsions:
REMARK  status: ('A' for Active; 'I' for Inactive)
REMARK    1  A    between atoms: P_1  and  O_2 
REMARK    2  A    between atoms: P_1  and  O_28 
REMARK    3  A    between atoms: O_2  and  C_3 
REMARK    4  A    between atoms: C_3  and  C_4 
REMARK    5  A    between atoms: C_4  and  C_5 
REMARK    6  A    between atoms: C_4  and  N_25 
REMARK       I    between atoms: C_5  and  N_6 
REMARK    7  A    between atoms: N_6  and  C_14 
REMARK    8  A    between atoms: C_12  and  C_13 
REMARK    9  A    between atoms: C_13  and  C_14 
REMARK   10  A    between atoms: C_14  and  C_16 
ROOT
HETATM    1  C           1     -34.604  -1.994 -10.575  0.00  0.00     0.251 C 
HETATM    2  N           1     -35.893  -1.533 -10.549  0.00  0.00    -0.344 N 
HETATM    3  H           1     -36.631  -2.116 -10.177  0.00  0.00     0.163 HD
HETATM    4  O           1     -33.873  -1.795  -9.635  0.00  0.00    -0.271 OA
ENDROOT
BRANCH   1   5
HETATM    5  C           1     -34.097  -2.750 -11.779  0.00  0.00     0.298 C 
BRANCH   5   6
HETATM    6  C           1     -34.989  -3.957 -12.034  0.00  0.00     0.224 C 
BRANCH   6   7
HETATM    7  O           1     -35.112  -4.705 -10.854  0.00  0.00    -0.287 OA
BRANCH   7   8
HETATM    8  P           1     -34.563  -6.222 -10.918  0.00  0.00     0.406 P 
HETATM    9  O           1     -34.953  -6.940  -9.683  0.00  0.00    -0.624 OA
HETATM   10  O           1     -33.088  -6.207 -11.036  0.00  0.00    -0.624 OA
BRANCH   8  11
HETATM   11  O           1     -35.197  -6.972 -12.199  0.00  0.00    -0.300 OA
HETATM   12  H           1     -34.502  -6.999 -12.835  0.00  0.00     0.223 HD
ENDBRANCH   8  11
ENDBRANCH   7   8
ENDBRANCH   6   7
ENDBRANCH   5   6
BRANCH   5  13
HETATM   13  N           1     -32.692  -3.211 -11.524  0.00  0.00    -0.064 N 
HETATM   14  H           1     -32.704  -3.997 -10.834  0.00  0.00     0.275 HD
HETATM   15  H           1     -32.129  -2.419 -11.141  0.00  0.00     0.275 HD
HETATM   16  H           1     -32.265  -3.540 -12.420  0.00  0.00     0.275 HD
ENDBRANCH   5  13
ENDBRANCH   1   5
BRANCH   2  17
HETATM   17  C           1     -36.200  -0.209 -11.056  0.00  0.00     0.191 C 
BRANCH  17  18
HETATM   18  C           1     -37.084  -0.333 -12.291  0.00  0.00     0.094 C 
BRANCH  18  19
HETATM   19  C           1     -36.325   0.127 -13.497  0.00  0.00     0.028 A 
HETATM   20  N           1     -36.895   0.437 -14.704  0.00  0.00    -0.354 N 
HETATM   21  C           1     -35.895   0.791 -15.479  0.00  0.00     0.180 A 
ATOM     22  HN          1     -37.885   0.401 -14.949  1.00  0.00     0.166 HD
HETATM   23  N           1     -34.701   0.720 -14.818  0.00  0.00    -0.360 N 
HETATM   24  C           1     -34.961   0.295 -13.544  0.00  0.00     0.114 A 
HETATM   25  H           1     -33.757   0.949 -15.216  0.00  0.00     0.166 HD
ENDBRANCH  18  19
ENDBRANCH  17  18
BRANCH  17  26
HETATM   26  C           1     -36.925   0.579  -9.994  0.00  0.00     0.197 C 
HETATM   27  O           1     -38.074   1.018 -10.216  0.00  0.00    -0.646 OA
HETATM   28  O           1     -36.377   0.794  -8.892  0.00  0.00    -0.646 OA
ENDBRANCH  17  26
ENDBRANCH   2  17
TORSDOF 10
ENDMDL
MODEL 2
REMARK VINA RESULT:      -6.5      3.760      6.728
REMARK  10 active torsions:
REMARK  status: ('A' for Active; 'I' for Inactive)
REMARK    1  A    between atoms: P_1  and  O_2 
REMARK    2  A    between atoms: P_1  and  O_28 
REMARK    3  A    between atoms: O_2  and  C_3 
REMARK    4  A    between atoms: C_3  and  C_4 
REMARK    5  A    between atoms: C_4  and  C_5 
REMARK    6  A    between atoms: C_4  and  N_25 
REMARK       I    between atoms: C_5  and  N_6 
REMARK    7  A    between atoms: N_6  and  C_14 
REMARK    8  A    between atoms: C_12  and  C_13 
REMARK    9  A    between atoms: C_13  and  C_14 
REMARK   10  A    between atoms: C_14  and  C_16 
ROOT
HETATM    1  C           1     -34.193  -2.057 -10.928  0.00  0.00     0.251 C 
HETATM    2  N           1     -33.444  -2.853 -11.753  0.00  0.00    -0.344 N 
HETATM    3  H           1     -32.694  -2.450 -12.300  0.00  0.00     0.163 HD
HETATM    4  O           1     -33.855  -1.887  -9.782  0.00  0.00    -0.271 OA
ENDROOT
BRANCH   1   5
HETATM    5  C           1     -35.443  -1.393 -11.452  0.00  0.00     0.298 C 
BRANCH   5   6
HETATM    6  C           1     -35.107  -0.593 -12.703  0.00  0.00     0.224 C 
BRANCH   6   7
HETATM    7  O           1     -36.020  -0.908 -13.720  0.00  0.00    -0.287 OA
BRANCH   7   8
HETATM    8  P           1     -35.598  -0.465 -15.213  0.00  0.00     0.406 P 
HETATM    9  O           1     -34.444   0.460 -15.145  0.00  0.00    -0.624 OA
HETATM   10  O           1     -36.739   0.215 -15.867  0.00  0.00    -0.624 OA
BRANCH   8  11
HETATM   11  O           1     -35.189  -1.772 -16.069  0.00  0.00    -0.300 OA
HETATM   12  H           1     -34.249  -1.816 -16.013  0.00  0.00     0.223 HD
ENDBRANCH   8  11
ENDBRANCH   7   8
ENDBRANCH   6   7
ENDBRANCH   5   6
BRANCH   5  13
HETATM   13  N           1     -35.998  -0.473 -10.405  0.00  0.00    -0.064 N 
HETATM   14  H           1     -35.235  -0.199  -9.744  0.00  0.00     0.275 HD
HETATM   15  H           1     -36.756  -0.962  -9.879  0.00  0.00     0.275 HD
HETATM   16  H           1     -36.387   0.382 -10.862  0.00  0.00     0.275 HD
ENDBRANCH   5  13
ENDBRANCH   1   5
BRANCH   2  17
HETATM   17  C           1     -33.723  -4.273 -11.842  0.00  0.00     0.191 C 
BRANCH  17  18
HETATM   18  C           1     -34.597  -4.691 -10.666  0.00  0.00     0.094 C 
BRANCH  18  19
HETATM   19  C           1     -34.384  -6.144 -10.377  0.00  0.00     0.028 A 
HETATM   20  N           1     -33.347  -6.893 -10.870  0.00  0.00    -0.354 N 
HETATM   21  C           1     -33.528  -8.099 -10.382  0.00  0.00     0.180 A 
ATOM     22  HN          1     -32.596  -6.580 -11.485  1.00  0.00     0.166 HD
HETATM   23  N           1     -34.642  -8.158  -9.594  0.00  0.00    -0.360 N 
HETATM   24  C           1     -35.203  -6.911  -9.581  0.00  0.00     0.114 A 
HETATM   25  H           1     -35.002  -9.006  -9.091  0.00  0.00     0.166 HD
ENDBRANCH  18  19
ENDBRANCH  17  18
BRANCH  17  26
HETATM   26  C           1     -34.445  -4.562 -13.134  0.00  0.00     0.197 C 
HETATM   27  O           1     -34.278  -3.818 -14.124  0.00  0.00    -0.646 OA
HETATM   28  O           1     -35.212  -5.546 -13.215  0.00  0.00    -0.646 OA
ENDBRANCH  17  26
ENDBRANCH   2  17
TORSDOF 10
ENDMDL
MODEL 3
REMARK VINA RESULT:      -6.4      9.963     11.693
REMARK  10 active torsions:
REMARK  status: ('A' for Active; 'I' for Inactive)
REMARK    1  A    between atoms: P_1  and  O_2 
REMARK    2  A    between atoms: P_1  and  O_28 
REMARK    3  A    between atoms: O_2  and  C_3 
REMARK    4  A    between atoms: C_3  and  C_4 
REMARK    5  A    between atoms: C_4  and  C_5 
REMARK    6  A    between atoms: C_4  and  N_25 
REMARK       I    between atoms: C_5  and  N_6 
REMARK    7  A    between atoms: N_6  and  C_14 
REMARK    8  A    between atoms: C_12  and  C_13 
REMARK    9  A    between atoms: C_13  and  C_14 
REMARK   10  A    between atoms: C_14  and  C_16 
ROOT
HETATM    1  C           1     -25.803  -6.903 -16.487  0.00  0.00     0.251 C 
HETATM    2  N           1     -27.128  -7.076 -16.789  0.00  0.00    -0.344 N 
HETATM    3  H           1     -27.489  -8.005 -16.963  0.00  0.00     0.163 HD
HETATM    4  O           1     -25.438  -6.932 -15.337  0.00  0.00    -0.271 OA
ENDROOT
BRANCH   1   5
HETATM    5  C           1     -24.801  -6.675 -17.592  0.00  0.00     0.298 C 
BRANCH   5   6
HETATM    6  C           1     -25.450  -6.974 -18.937  0.00  0.00     0.224 C 
BRANCH   6   7
HETATM    7  O           1     -24.530  -6.730 -19.966  0.00  0.00    -0.287 OA
BRANCH   7   8
HETATM    8  P           1     -24.536  -7.787 -21.186  0.00  0.00     0.406 P 
HETATM    9  O           1     -24.219  -7.083 -22.449  0.00  0.00    -0.624 OA
HETATM   10  O           1     -25.874  -8.411 -21.291  0.00  0.00    -0.624 OA
BRANCH   8  11
HETATM   11  O           1     -23.429  -8.931 -20.916  0.00  0.00    -0.300 OA
HETATM   12  H           1     -23.055  -9.113 -21.761  0.00  0.00     0.223 HD
ENDBRANCH   8  11
ENDBRANCH   7   8
ENDBRANCH   6   7
ENDBRANCH   5   6
BRANCH   5  13
HETATM   13  N           1     -23.622  -7.580 -17.394  0.00  0.00    -0.064 N 
HETATM   14  H           1     -23.412  -7.657 -16.372  0.00  0.00     0.275 HD
HETATM   15  H           1     -22.793  -7.186 -17.892  0.00  0.00     0.275 HD
HETATM   16  H           1     -23.841  -8.527 -17.777  0.00  0.00     0.275 HD
ENDBRANCH   5  13
ENDBRANCH   1   5
BRANCH   2  17
HETATM   17  C           1     -28.012  -5.929 -16.860  0.00  0.00     0.191 C 
BRANCH  17  18
HETATM   18  C           1     -29.247  -6.292 -17.675  0.00  0.00     0.094 C 
BRANCH  18  19
HETATM   19  C           1     -30.308  -5.257 -17.463  0.00  0.00     0.028 A 
HETATM   20  N           1     -31.489  -5.476 -16.805  0.00  0.00    -0.354 N 
HETATM   21  C           1     -32.124  -4.327 -16.841  0.00  0.00     0.180 A 
ATOM     22  HN          1     -31.808  -6.346 -16.377  1.00  0.00     0.166 HD
HETATM   23  N           1     -31.398  -3.375 -17.499  0.00  0.00    -0.360 N 
HETATM   24  C           1     -30.230  -3.957 -17.905  0.00  0.00     0.114 A 
HETATM   25  H           1     -31.686  -2.379 -17.664  0.00  0.00     0.166 HD
ENDBRANCH  18  19
ENDBRANCH  17  18
BRANCH  17  26
HETATM   26  C           1     -28.428  -5.529 -15.466  0.00  0.00     0.197 C 
HETATM   27  O           1     -29.077  -6.325 -14.754  0.00  0.00    -0.646 OA
HETATM   28  O           1     -28.123  -4.401 -15.023  0.00  0.00    -0.646 OA
ENDBRANCH  17  26
ENDBRANCH   2  17
TORSDOF 10
ENDMDL
MODEL 4
REMARK VINA RESULT:      -6.4      9.367     11.263
REMARK  10 active torsions:
REMARK  status: ('A' for Active; 'I' for Inactive)
REMARK    1  A    between atoms: P_1  and  O_2 
REMARK    2  A    between atoms: P_1  and  O_28 
REMARK    3  A    between atoms: O_2  and  C_3 
REMARK    4  A    between atoms: C_3  and  C_4 
REMARK    5  A    between atoms: C_4  and  C_5 
REMARK    6  A    between atoms: C_4  and  N_25 
REMARK       I    between atoms: C_5  and  N_6 
REMARK    7  A    between atoms: N_6  and  C_14 
REMARK    8  A    between atoms: C_12  and  C_13 
REMARK    9  A    between atoms: C_13  and  C_14 
REMARK   10  A    between atoms: C_14  and  C_16 
ROOT
HETATM    1  C           1     -27.239  -7.202 -16.067  0.00  0.00     0.251 C 
HETATM    2  N           1     -28.133  -7.499 -17.060  0.00  0.00    -0.344 N 
HETATM    3  H           1     -28.021  -8.345 -17.604  0.00  0.00     0.163 HD
HETATM    4  O           1     -27.436  -7.590 -14.941  0.00  0.00    -0.271 OA
ENDROOT
BRANCH   1   5
HETATM    5  C           1     -26.008  -6.385 -16.379  0.00  0.00     0.298 C 
BRANCH   5   6
HETATM    6  C           1     -25.303  -6.974 -17.593  0.00  0.00     0.224 C 
BRANCH   6   7
HETATM    7  O           1     -25.699  -6.280 -18.746  0.00  0.00    -0.287 OA
BRANCH   7   8
HETATM    8  P           1     -25.392  -7.010 -20.152  0.00  0.00     0.406 P 
HETATM    9  O           1     -24.142  -7.795 -20.037  0.00  0.00    -0.624 OA
HETATM   10  O           1     -25.240  -5.991 -21.214  0.00  0.00    -0.624 OA
BRANCH   8  11
HETATM   11  O           1     -26.614  -7.998 -20.525  0.00  0.00    -0.300 OA
HETATM   12  H           1     -26.421  -8.804 -20.077  0.00  0.00     0.223 HD
ENDBRANCH   8  11
ENDBRANCH   7   8
ENDBRANCH   6   7
ENDBRANCH   5   6
BRANCH   5  13
HETATM   13  N           1     -25.080  -6.410 -15.200  0.00  0.00    -0.064 N 
HETATM   14  H           1     -24.747  -5.439 -15.001  0.00  0.00     0.275 HD
HETATM   15  H           1     -24.262  -7.022 -15.415  0.00  0.00     0.275 HD
HETATM   16  H           1     -25.586  -6.783 -14.366  0.00  0.00     0.275 HD
ENDBRANCH   5  13
ENDBRANCH   1   5
BRANCH   2  17
HETATM   17  C           1     -29.240  -6.604 -17.333  0.00  0.00     0.191 C 
BRANCH  17  18
HETATM   18  C           1     -28.806  -5.558 -18.353  0.00  0.00     0.094 C 
BRANCH  18  19
HETATM   19  C           1     -29.224  -4.199 -17.885  0.00  0.00     0.028 A 
HETATM   20  N           1     -28.383  -3.280 -17.314  0.00  0.00    -0.354 N 
HETATM   21  C           1     -29.137  -2.236 -17.053  0.00  0.00     0.180 A 
ATOM     22  HN          1     -27.385  -3.383 -17.131  1.00  0.00     0.166 HD
HETATM   23  N           1     -30.433  -2.447 -17.433  0.00  0.00    -0.360 N 
HETATM   24  C           1     -30.504  -3.704 -17.968  0.00  0.00     0.114 A 
HETATM   25  H           1     -31.227  -1.769 -17.331  0.00  0.00     0.166 HD
ENDBRANCH  18  19
ENDBRANCH  17  18
BRANCH  17  26
HETATM   26  C           1     -30.401  -7.393 -17.883  0.00  0.00     0.197 C 
HETATM   27  O           1     -31.565  -7.141 -17.504  0.00  0.00    -0.646 OA
HETATM   28  O           1     -30.200  -8.301 -18.718  0.00  0.00    -0.646 OA
ENDBRANCH  17  26
ENDBRANCH   2  17
TORSDOF 10
ENDMDL
MODEL 5
REMARK VINA RESULT:      -6.2      7.851      9.496
REMARK  10 active torsions:
REMARK  status: ('A' for Active; 'I' for Inactive)
REMARK    1  A    between atoms: P_1  and  O_2 
REMARK    2  A    between atoms: P_1  and  O_28 
REMARK    3  A    between atoms: O_2  and  C_3 
REMARK    4  A    between atoms: C_3  and  C_4 
REMARK    5  A    between atoms: C_4  and  C_5 
REMARK    6  A    between atoms: C_4  and  N_25 
REMARK       I    between atoms: C_5  and  N_6 
REMARK    7  A    between atoms: N_6  and  C_14 
REMARK    8  A    between atoms: C_12  and  C_13 
REMARK    9  A    between atoms: C_13  and  C_14 
REMARK   10  A    between atoms: C_14  and  C_16 
ROOT
HETATM    1  C           1     -29.647  -6.254 -18.132  0.00  0.00     0.251 C 
HETATM    2  N           1     -29.591  -4.943 -18.523  0.00  0.00    -0.344 N 
HETATM    3  H           1     -29.098  -4.688 -19.369  0.00  0.00     0.163 HD
HETATM    4  O           1     -30.551  -6.959 -18.510  0.00  0.00    -0.271 OA
ENDROOT
BRANCH   1   5
HETATM    5  C           1     -28.579  -6.816 -17.225  0.00  0.00     0.298 C 
BRANCH   5   6
HETATM    6  C           1     -27.237  -6.788 -17.943  0.00  0.00     0.224 C 
BRANCH   6   7
HETATM    7  O           1     -26.349  -5.959 -17.243  0.00  0.00    -0.287 OA
BRANCH   7   8
HETATM    8  P           1     -25.365  -6.697 -16.197  0.00  0.00     0.406 P 
HETATM    9  O           1     -24.385  -7.521 -16.940  0.00  0.00    -0.624 OA
HETATM   10  O           1     -26.161  -7.565 -15.301  0.00  0.00    -0.624 OA
BRANCH   8  11
HETATM   11  O           1     -24.583  -5.591 -15.319  0.00  0.00    -0.300 OA
HETATM   12  H           1     -23.670  -5.736 -15.502  0.00  0.00     0.223 HD
ENDBRANCH   8  11
ENDBRANCH   7   8
ENDBRANCH   6   7
ENDBRANCH   5   6
BRANCH   5  13
HETATM   13  N           1     -28.924  -8.231 -16.864  0.00  0.00    -0.064 N 
HETATM   14  H           1     -29.356  -8.705 -17.690  0.00  0.00     0.275 HD
HETATM   15  H           1     -29.601  -8.232 -16.068  0.00  0.00     0.275 HD
HETATM   16  H           1     -28.056  -8.741 -16.583  0.00  0.00     0.275 HD
ENDBRANCH   5  13
ENDBRANCH   1   5
BRANCH   2  17
HETATM   17  C           1     -30.240  -3.919 -17.727  0.00  0.00     0.191 C 
BRANCH  17  18
HETATM   18  C           1     -30.953  -4.571 -16.549  0.00  0.00     0.094 C 
BRANCH  18  19
HETATM   19  C           1     -32.374  -4.101 -16.502  0.00  0.00     0.028 A 
HETATM   20  N           1     -33.270  -4.428 -15.519  0.00  0.00    -0.354 N 
HETATM   21  C           1     -34.386  -3.819 -15.849  0.00  0.00     0.180 A 
ATOM     22  HN          1     -33.106  -5.019 -14.703  1.00  0.00     0.166 HD
HETATM   23  N           1     -34.244  -3.112 -17.010  0.00  0.00    -0.360 N 
HETATM   24  C           1     -32.958  -3.284 -17.441  0.00  0.00     0.114 A 
HETATM   25  H           1     -34.987  -2.542 -17.484  0.00  0.00     0.166 HD
ENDBRANCH  18  19
ENDBRANCH  17  18
BRANCH  17  26
HETATM   26  C           1     -29.205  -2.950 -17.215  0.00  0.00     0.197 C 
HETATM   27  O           1     -29.410  -1.719 -17.288  0.00  0.00    -0.646 OA
HETATM   28  O           1     -28.140  -3.376 -16.719  0.00  0.00    -0.646 OA
ENDBRANCH  17  26
ENDBRANCH   2  17
TORSDOF 10
ENDMDL
MODEL 6
REMARK VINA RESULT:      -6.1     10.085     12.353
REMARK  10 active torsions:
REMARK  status: ('A' for Active; 'I' for Inactive)
REMARK    1  A    between atoms: P_1  and  O_2 
REMARK    2  A    between atoms: P_1  and  O_28 
REMARK    3  A    between atoms: O_2  and  C_3 
REMARK    4  A    between atoms: C_3  and  C_4 
REMARK    5  A    between atoms: C_4  and  C_5 
REMARK    6  A    between atoms: C_4  and  N_25 
REMARK       I    between atoms: C_5  and  N_6 
REMARK    7  A    between atoms: N_6  and  C_14 
REMARK    8  A    between atoms: C_12  and  C_13 
REMARK    9  A    between atoms: C_13  and  C_14 
REMARK   10  A    between atoms: C_14  and  C_16 
ROOT
HETATM    1  C           1     -28.005  -6.837 -16.296  0.00  0.00     0.251 C 
HETATM    2  N           1     -26.798  -6.298 -16.651  0.00  0.00    -0.344 N 
HETATM    3  H           1     -26.642  -5.302 -16.559  0.00  0.00     0.163 HD
HETATM    4  O           1     -28.187  -7.220 -15.166  0.00  0.00    -0.271 OA
ENDROOT
BRANCH   1   5
HETATM    5  C           1     -29.109  -6.955 -17.320  0.00  0.00     0.298 C 
BRANCH   5   6
HETATM    6  C           1     -30.302  -6.118 -16.879  0.00  0.00     0.224 C 
BRANCH   6   7
HETATM    7  O           1     -29.856  -4.865 -16.435  0.00  0.00    -0.287 OA
BRANCH   7   8
HETATM    8  P           1     -29.890  -3.675 -17.524  0.00  0.00     0.406 P 
HETATM    9  O           1     -28.889  -2.646 -17.162  0.00  0.00    -0.624 OA
HETATM   10  O           1     -31.239  -3.065 -17.547  0.00  0.00    -0.624 OA
BRANCH   8  11
HETATM   11  O           1     -29.545  -4.270 -18.985  0.00  0.00    -0.300 OA
HETATM   12  H           1     -30.351  -4.209 -19.470  0.00  0.00     0.223 HD
ENDBRANCH   8  11
ENDBRANCH   7   8
ENDBRANCH   6   7
ENDBRANCH   5   6
BRANCH   5  13
HETATM   13  N           1     -29.523  -8.391 -17.445  0.00  0.00    -0.064 N 
HETATM   14  H           1     -28.794  -8.918 -17.978  0.00  0.00     0.275 HD
HETATM   15  H           1     -30.435  -8.448 -17.952  0.00  0.00     0.275 HD
HETATM   16  H           1     -29.628  -8.808 -16.492  0.00  0.00     0.275 HD
ENDBRANCH   5  13
ENDBRANCH   1   5
BRANCH   2  17
HETATM   17  C           1     -25.741  -7.152 -17.157  0.00  0.00     0.191 C 
BRANCH  17  18
HETATM   18  C           1     -25.010  -6.438 -18.287  0.00  0.00     0.094 C 
BRANCH  18  19
HETATM   19  C           1     -25.187  -7.204 -19.561  0.00  0.00     0.028 A 
HETATM   20  N           1     -26.398  -7.494 -20.133  0.00  0.00    -0.354 N 
HETATM   21  C           1     -26.113  -8.169 -21.223  0.00  0.00     0.180 A 
ATOM     22  HN          1     -27.323  -7.239 -19.787  1.00  0.00     0.166 HD
HETATM   23  N           1     -24.765  -8.328 -21.375  0.00  0.00    -0.360 N 
HETATM   24  C           1     -24.157  -7.714 -20.315  0.00  0.00     0.114 A 
HETATM   25  H           1     -24.284  -8.830 -22.161  0.00  0.00     0.166 HD
ENDBRANCH  18  19
ENDBRANCH  17  18
BRANCH  17  26
HETATM   26  C           1     -24.771  -7.463 -16.046  0.00  0.00     0.197 C 
HETATM   27  O           1     -24.929  -6.952 -14.916  0.00  0.00    -0.646 OA
HETATM   28  O           1     -23.807  -8.231 -16.254  0.00  0.00    -0.646 OA
ENDBRANCH  17  26
ENDBRANCH   2  17
TORSDOF 10
ENDMDL
MODEL 7
REMARK VINA RESULT:      -6.0      2.256      2.672
REMARK  10 active torsions:
REMARK  status: ('A' for Active; 'I' for Inactive)
REMARK    1  A    between atoms: P_1  and  O_2 
REMARK    2  A    between atoms: P_1  and  O_28 
REMARK    3  A    between atoms: O_2  and  C_3 
REMARK    4  A    between atoms: C_3  and  C_4 
REMARK    5  A    between atoms: C_4  and  C_5 
REMARK    6  A    between atoms: C_4  and  N_25 
REMARK       I    between atoms: C_5  and  N_6 
REMARK    7  A    between atoms: N_6  and  C_14 
REMARK    8  A    between atoms: C_12  and  C_13 
REMARK    9  A    between atoms: C_13  and  C_14 
REMARK   10  A    between atoms: C_14  and  C_16 
ROOT
HETATM    1  C           1     -34.554  -1.948 -10.736  0.00  0.00     0.251 C 
HETATM    2  N           1     -35.875  -1.621 -10.892  0.00  0.00    -0.344 N 
HETATM    3  H           1     -36.588  -2.328 -10.766  0.00  0.00     0.163 HD
HETATM    4  O           1     -34.032  -1.850  -9.652  0.00  0.00    -0.271 OA
ENDROOT
BRANCH   1   5
HETATM    5  C           1     -33.751  -2.429 -11.920  0.00  0.00     0.298 C 
BRANCH   5   6
HETATM    6  C           1     -34.692  -2.988 -12.978  0.00  0.00     0.224 C 
BRANCH   6   7
HETATM    7  O           1     -34.047  -4.014 -13.683  0.00  0.00    -0.287 OA
BRANCH   7   8
HETATM    8  P           1     -34.246  -4.007 -15.285  0.00  0.00     0.406 P 
HETATM    9  O           1     -32.923  -4.062 -15.947  0.00  0.00    -0.624 OA
HETATM   10  O           1     -34.950  -2.769 -15.689  0.00  0.00    -0.624 OA
BRANCH   8  11
HETATM   11  O           1     -35.121  -5.291 -15.725  0.00  0.00    -0.300 OA
HETATM   12  H           1     -35.522  -5.598 -14.930  0.00  0.00     0.223 HD
ENDBRANCH   8  11
ENDBRANCH   7   8
ENDBRANCH   6   7
ENDBRANCH   5   6
BRANCH   5  13
HETATM   13  N           1     -32.802  -3.503 -11.477  0.00  0.00    -0.064 N 
HETATM   14  H           1     -32.333  -3.919 -12.314  0.00  0.00     0.275 HD
HETATM   15  H           1     -33.330  -4.246 -10.968  0.00  0.00     0.275 HD
HETATM   16  H           1     -32.081  -3.091 -10.842  0.00  0.00     0.275 HD
ENDBRANCH   5  13
ENDBRANCH   1   5
BRANCH   2  17
HETATM   17  C           1     -36.251  -0.264 -11.237  0.00  0.00     0.191 C 
BRANCH  17  18
HETATM   18  C           1     -37.192  -0.289 -12.434  0.00  0.00     0.094 C 
BRANCH  18  19
HETATM   19  C           1     -36.472   0.213 -13.647  0.00  0.00     0.028 A 
HETATM   20  N           1     -37.057   0.424 -14.868  0.00  0.00    -0.354 N 
HETATM   21  C           1     -36.092   0.860 -15.645  0.00  0.00     0.180 A 
ATOM     22  HN          1     -38.034   0.274 -15.121  1.00  0.00     0.166 HD
HETATM   23  N           1     -34.905   0.937 -14.971  0.00  0.00    -0.360 N 
HETATM   24  C           1     -35.134   0.525 -13.688  0.00  0.00     0.114 A 
HETATM   25  H           1     -33.986   1.253 -15.368  0.00  0.00     0.166 HD
ENDBRANCH  18  19
ENDBRANCH  17  18
BRANCH  17  26
HETATM   26  C           1     -36.946   0.378 -10.063  0.00  0.00     0.197 C 
HETATM   27  O           1     -36.395   0.391  -8.941  0.00  0.00    -0.646 OA
HETATM   28  O           1     -38.073   0.897 -10.211  0.00  0.00    -0.646 OA
ENDBRANCH  17  26
ENDBRANCH   2  17
TORSDOF 10
ENDMDL
MODEL 8
REMARK VINA RESULT:      -5.9     13.955     16.770
REMARK  10 active torsions:
REMARK  status: ('A' for Active; 'I' for Inactive)
REMARK    1  A    between atoms: P_1  and  O_2 
REMARK    2  A    between atoms: P_1  and  O_28 
REMARK    3  A    between atoms: O_2  and  C_3 
REMARK    4  A    between atoms: C_3  and  C_4 
REMARK    5  A    between atoms: C_4  and  C_5 
REMARK    6  A    between atoms: C_4  and  N_25 
REMARK       I    between atoms: C_5  and  N_6 
REMARK    7  A    between atoms: N_6  and  C_14 
REMARK    8  A    between atoms: C_12  and  C_13 
REMARK    9  A    between atoms: C_13  and  C_14 
REMARK   10  A    between atoms: C_14  and  C_16 
ROOT
HETATM    1  C           1     -20.321  -5.491  -6.965  0.00  0.00     0.251 C 
HETATM    2  N           1     -20.324  -6.826  -6.660  0.00  0.00    -0.344 N 
HETATM    3  H           1     -20.380  -7.513  -7.401  0.00  0.00     0.163 HD
HETATM    4  O           1     -19.276  -4.919  -7.162  0.00  0.00    -0.271 OA
ENDROOT
BRANCH   1   5
HETATM    5  C           1     -21.624  -4.734  -7.053  0.00  0.00     0.298 C 
BRANCH   5   6
HETATM    6  C           1     -22.241  -4.944  -8.429  0.00  0.00     0.224 C 
BRANCH   6   7
HETATM    7  O           1     -23.261  -4.003  -8.632  0.00  0.00    -0.287 OA
BRANCH   7   8
HETATM    8  P           1     -23.859  -3.919 -10.129  0.00  0.00     0.406 P 
HETATM    9  O           1     -23.950  -5.282 -10.700  0.00  0.00    -0.624 OA
HETATM   10  O           1     -22.967  -3.089 -10.971  0.00  0.00    -0.624 OA
BRANCH   8  11
HETATM   11  O           1     -25.330  -3.255 -10.087  0.00  0.00    -0.300 OA
HETATM   12  H           1     -25.208  -2.419  -9.668  0.00  0.00     0.223 HD
ENDBRANCH   8  11
ENDBRANCH   7   8
ENDBRANCH   6   7
ENDBRANCH   5   6
BRANCH   5  13
HETATM   13  N           1     -21.369  -3.272  -6.835  0.00  0.00    -0.064 N 
HETATM   14  H           1     -21.927  -2.940  -6.016  0.00  0.00     0.275 HD
HETATM   15  H           1     -21.650  -2.739  -7.689  0.00  0.00     0.275 HD
HETATM   16  H           1     -20.352  -3.120  -6.649  0.00  0.00     0.275 HD
ENDBRANCH   5  13
ENDBRANCH   1   5
BRANCH   2  17
HETATM   17  C           1     -20.247  -7.255  -5.277  0.00  0.00     0.191 C 
BRANCH  17  18
HETATM   18  C           1     -21.627  -7.700  -4.808  0.00  0.00     0.094 C 
BRANCH  18  19
HETATM   19  C           1     -21.769  -7.426  -3.343  0.00  0.00     0.028 A 
HETATM   20  N           1     -21.595  -8.360  -2.356  0.00  0.00    -0.354 N 
HETATM   21  C           1     -21.808  -7.719  -1.230  0.00  0.00     0.180 A 
ATOM     22  HN          1     -21.352  -9.344  -2.471  1.00  0.00     0.166 HD
HETATM   23  N           1     -22.114  -6.405  -1.453  0.00  0.00    -0.360 N 
HETATM   24  C           1     -22.093  -6.203  -2.805  0.00  0.00     0.114 A 
HETATM   25  H           1     -22.326  -5.685  -0.720  0.00  0.00     0.166 HD
ENDBRANCH  18  19
ENDBRANCH  17  18
BRANCH  17  26
HETATM   26  C           1     -19.280  -8.407  -5.162  0.00  0.00     0.197 C 
HETATM   27  O           1     -19.012  -8.889  -4.040  0.00  0.00    -0.646 OA
HETATM   28  O           1     -18.746  -8.880  -6.188  0.00  0.00    -0.646 OA
ENDBRANCH  17  26
ENDBRANCH   2  17
TORSDOF 10
ENDMDL
MODEL 9
REMARK VINA RESULT:      -5.9      8.529     10.582
REMARK  10 active torsions:
REMARK  status: ('A' for Active; 'I' for Inactive)
REMARK    1  A    between atoms: P_1  and  O_2 
REMARK    2  A    between atoms: P_1  and  O_28 
REMARK    3  A    between atoms: O_2  and  C_3 
REMARK    4  A    between atoms: C_3  and  C_4 
REMARK    5  A    between atoms: C_4  and  C_5 
REMARK    6  A    between atoms: C_4  and  N_25 
REMARK       I    between atoms: C_5  and  N_6 
REMARK    7  A    between atoms: N_6  and  C_14 
REMARK    8  A    between atoms: C_12  and  C_13 
REMARK    9  A    between atoms: C_13  and  C_14 
REMARK   10  A    between atoms: C_14  and  C_16 
ROOT
HETATM    1  C           1     -30.273  -5.974 -17.319  0.00  0.00     0.251 C 
HETATM    2  N           1     -29.171  -6.494 -16.694  0.00  0.00    -0.344 N 
HETATM    3  H           1     -29.268  -6.949 -15.795  0.00  0.00     0.163 HD
HETATM    4  O           1     -30.918  -6.660 -18.075  0.00  0.00    -0.271 OA
ENDROOT
BRANCH   1   5
HETATM    5  C           1     -30.681  -4.544 -17.064  0.00  0.00     0.298 C 
BRANCH   5   6
HETATM    6  C           1     -32.200  -4.453 -16.996  0.00  0.00     0.224 C 
BRANCH   6   7
HETATM    7  O           1     -32.604  -4.369 -15.656  0.00  0.00    -0.287 OA
BRANCH   7   8
HETATM    8  P           1     -34.168  -4.061 -15.406  0.00  0.00     0.406 P 
HETATM    9  O           1     -34.624  -3.021 -16.356  0.00  0.00    -0.624 OA
HETATM   10  O           1     -34.361  -3.581 -14.019  0.00  0.00    -0.624 OA
BRANCH   8  11
HETATM   11  O           1     -35.027  -5.409 -15.633  0.00  0.00    -0.300 OA
HETATM   12  H           1     -35.278  -5.687 -14.768  0.00  0.00     0.223 HD
ENDBRANCH   8  11
ENDBRANCH   7   8
ENDBRANCH   6   7
ENDBRANCH   5   6
BRANCH   5  13
HETATM   13  N           1     -30.177  -3.674 -18.178  0.00  0.00    -0.064 N 
HETATM   14  H           1     -29.609  -2.893 -17.778  0.00  0.00     0.275 HD
HETATM   15  H           1     -30.988  -3.281 -18.706  0.00  0.00     0.275 HD
HETATM   16  H           1     -29.584  -4.243 -18.823  0.00  0.00     0.275 HD
ENDBRANCH   5  13
ENDBRANCH   1   5
BRANCH   2  17
HETATM   17  C           1     -27.867  -6.392 -17.319  0.00  0.00     0.191 C 
BRANCH  17  18
HETATM   18  C           1     -28.036  -6.025 -18.787  0.00  0.00     0.094 C 
BRANCH  18  19
HETATM   19  C           1     -27.059  -6.802 -19.614  0.00  0.00     0.028 A 
HETATM   20  N           1     -27.403  -7.759 -20.532  0.00  0.00    -0.354 N 
HETATM   21  C           1     -26.266  -8.188 -21.028  0.00  0.00     0.180 A 
ATOM     22  HN          1     -28.343  -8.071 -20.779  1.00  0.00     0.166 HD
HETATM   23  N           1     -25.200  -7.546 -20.463  0.00  0.00    -0.360 N 
HETATM   24  C           1     -25.693  -6.653 -19.553  0.00  0.00     0.114 A 
HETATM   25  H           1     -24.187  -7.710 -20.687  0.00  0.00     0.166 HD
ENDBRANCH  18  19
ENDBRANCH  17  18
BRANCH  17  26
HETATM   26  C           1     -27.058  -5.327 -16.623  0.00  0.00     0.197 C 
HETATM   27  O           1     -27.499  -4.160 -16.541  0.00  0.00    -0.646 OA
HETATM   28  O           1     -25.946  -5.609 -16.128  0.00  0.00    -0.646 OA
ENDBRANCH  17  26
ENDBRANCH   2  17
TORSDOF 10
ENDMDL
