MODEL 1
REMARK VINA RESULT:      -6.6      0.000      0.000
REMARK  8 active torsions:
REMARK  status: ('A' for Active; 'I' for Inactive)
REMARK    1  A    between atoms: N_2  and  C_17 
REMARK       I    between atoms: N_2  and  C_14 
REMARK       I    between atoms: N_4  and  C_8 
REMARK    2  A    between atoms: C_7  and  C_13 
REMARK    3  A    between atoms: C_8  and  C_21 
REMARK    4  A    between atoms: C_13  and  C_14 
REMARK    5  A    between atoms: C_13  and  N_16 
REMARK    6  A    between atoms: C_17  and  C_22 
REMARK    7  A    between atoms: C_17  and  C_20 
REMARK    8  A    between atoms: C_21  and  C_22 
ROOT
HETATM    1  N           1     -27.546  -6.557 -18.726  0.00  0.00    -0.345 N 
HETATM    2  O           1     -26.278  -5.826 -17.039  0.00  0.00    -0.271 OA
HETATM    3  H           1     -27.590  -6.957 -19.655  0.00  0.00     0.163 HD
HETATM    4  C           1     -26.332  -6.303 -18.148  0.00  0.00     0.249 C 
ENDROOT
BRANCH   1   5
HETATM    5  C           1     -28.768  -6.253 -18.008  0.00  0.00     0.186 C 
BRANCH   5   6
HETATM    6  C           1     -29.374  -4.968 -18.558  0.00  0.00     0.045 C 
BRANCH   6   7
HETATM    7  C           1     -29.699  -4.026 -17.408  0.00  0.00     0.105 C 
BRANCH   7   8
HETATM    8  C           1     -31.195  -3.892 -17.274  0.00  0.00     0.215 C 
HETATM    9  N           1     -31.901  -4.800 -16.532  0.00  0.00    -0.370 N 
HETATM   10  H           1     -31.418  -5.561 -16.072  0.00  0.00     0.159 HD
HETATM   11  H           1     -32.905  -4.710 -16.442  0.00  0.00     0.159 HD
HETATM   12  O           1     -31.772  -2.983 -17.823  0.00  0.00    -0.274 OA
ENDBRANCH   7   8
ENDBRANCH   6   7
ENDBRANCH   5   6
BRANCH   5  13
HETATM   13  C           1     -29.749  -7.387 -18.181  0.00  0.00     0.196 C 
HETATM   14  O           1     -30.816  -7.394 -17.530  0.00  0.00    -0.646 OA
HETATM   15  O           1     -29.494  -8.319 -18.974  0.00  0.00    -0.646 OA
ENDBRANCH   5  13
ENDBRANCH   1   5
BRANCH   4  16
HETATM   16  C           1     -25.059  -6.620 -18.895  0.00  0.00     0.278 C 
BRANCH  16  17
HETATM   17  C           1     -25.403  -7.157 -20.278  0.00  0.00     0.017 C 
HETATM   18  C           1     -25.511  -6.000 -21.262  0.00  0.00     0.012 C 
HETATM   19  C           1     -24.308  -8.112 -20.738  0.00  0.00     0.012 C 
ENDBRANCH  16  17
BRANCH  16  20
HETATM   20  N           1     -24.279  -7.654 -18.138  0.00  0.00    -0.066 N 
HETATM   21  H           1     -23.302  -7.689 -18.505  0.00  0.00     0.275 HD
HETATM   22  H           1     -24.732  -8.588 -18.258  0.00  0.00     0.275 HD
HETATM   23  H           1     -24.262  -7.403 -17.124  0.00  0.00     0.275 HD
ENDBRANCH  16  20
ENDBRANCH   4  16
TORSDOF 8
ENDMDL
MODEL 2
REMARK VINA RESULT:      -5.8     13.605     15.161
REMARK  8 active torsions:
REMARK  status: ('A' for Active; 'I' for Inactive)
REMARK    1  A    between atoms: N_2  and  C_17 
REMARK       I    between atoms: N_2  and  C_14 
REMARK       I    between atoms: N_4  and  C_8 
REMARK    2  A    between atoms: C_7  and  C_13 
REMARK    3  A    between atoms: C_8  and  C_21 
REMARK    4  A    between atoms: C_13  and  C_14 
REMARK    5  A    between atoms: C_13  and  N_16 
REMARK    6  A    between atoms: C_17  and  C_22 
REMARK    7  A    between atoms: C_17  and  C_20 
REMARK    8  A    between atoms: C_21  and  C_22 
ROOT
HETATM    1  N           1     -21.588  -6.291  -6.300  0.00  0.00    -0.345 N 
HETATM    2  O           1     -21.058  -4.122  -6.279  0.00  0.00    -0.271 OA
HETATM    3  H           1     -22.038  -7.059  -6.782  0.00  0.00     0.163 HD
HETATM    4  C           1     -21.594  -5.039  -6.854  0.00  0.00     0.249 C 
ENDROOT
BRANCH   1   5
HETATM    5  C           1     -20.939  -6.515  -5.024  0.00  0.00     0.186 C 
BRANCH   5   6
HETATM    6  C           1     -21.992  -6.809  -3.963  0.00  0.00     0.045 C 
BRANCH   6   7
HETATM    7  C           1     -21.629  -6.088  -2.672  0.00  0.00     0.105 C 
BRANCH   7   8
HETATM    8  C           1     -21.828  -7.019  -1.502  0.00  0.00     0.215 C 
HETATM    9  N           1     -20.953  -8.051  -1.292  0.00  0.00    -0.370 N 
HETATM   10  H           1     -20.173  -8.189  -1.922  0.00  0.00     0.159 HD
HETATM   11  H           1     -21.086  -8.676  -0.508  0.00  0.00     0.159 HD
HETATM   12  O           1     -22.758  -6.855  -0.750  0.00  0.00    -0.274 OA
ENDBRANCH   7   8
ENDBRANCH   6   7
ENDBRANCH   5   6
BRANCH   5  13
HETATM   13  C           1     -19.998  -7.689  -5.137  0.00  0.00     0.196 C 
HETATM   14  O           1     -19.368  -7.884  -6.200  0.00  0.00    -0.646 OA
HETATM   15  O           1     -19.848  -8.468  -4.171  0.00  0.00    -0.646 OA
ENDBRANCH   5  13
ENDBRANCH   1   5
BRANCH   4  16
HETATM   16  C           1     -22.270  -4.805  -8.183  0.00  0.00     0.278 C 
BRANCH  16  17
HETATM   17  C           1     -21.375  -3.943  -9.064  0.00  0.00     0.017 C 
HETATM   18  C           1     -20.135  -4.734  -9.459  0.00  0.00     0.012 C 
HETATM   19  C           1     -22.138  -3.536 -10.318  0.00  0.00     0.012 C 
ENDBRANCH  16  17
BRANCH  16  20
HETATM   20  N           1     -23.577  -4.104  -7.962  0.00  0.00    -0.066 N 
HETATM   21  H           1     -23.944  -3.755  -8.876  0.00  0.00     0.275 HD
HETATM   22  H           1     -23.434  -3.298  -7.313  0.00  0.00     0.275 HD
HETATM   23  H           1     -24.263  -4.771  -7.542  0.00  0.00     0.275 HD
ENDBRANCH  16  20
ENDBRANCH   4  16
TORSDOF 8
ENDMDL
MODEL 3
REMARK VINA RESULT:      -5.8     12.974     14.567
REMARK  8 active torsions:
REMARK  status: ('A' for Active; 'I' for Inactive)
REMARK    1  A    between atoms: N_2  and  C_17 
REMARK       I    between atoms: N_2  and  C_14 
REMARK       I    between atoms: N_4  and  C_8 
REMARK    2  A    between atoms: C_7  and  C_13 
REMARK    3  A    between atoms: C_8  and  C_21 
REMARK    4  A    between atoms: C_13  and  C_14 
REMARK    5  A    between atoms: C_13  and  N_16 
REMARK    6  A    between atoms: C_17  and  C_22 
REMARK    7  A    between atoms: C_17  and  C_20 
REMARK    8  A    between atoms: C_21  and  C_22 
ROOT
HETATM    1  N           1     -21.754  -5.911  -5.790  0.00  0.00    -0.345 N 
HETATM    2  O           1     -20.819  -7.912  -6.122  0.00  0.00    -0.271 OA
HETATM    3  H           1     -22.295  -5.308  -5.183  0.00  0.00     0.163 HD
HETATM    4  C           1     -21.464  -7.190  -5.398  0.00  0.00     0.249 C 
ENDROOT
BRANCH   1   5
HETATM    5  C           1     -21.288  -5.422  -7.072  0.00  0.00     0.186 C 
BRANCH   5   6
HETATM    6  C           1     -22.298  -4.429  -7.634  0.00  0.00     0.045 C 
BRANCH   6   7
HETATM    7  C           1     -22.429  -4.633  -9.137  0.00  0.00     0.105 C 
BRANCH   7   8
HETATM    8  C           1     -23.490  -3.708  -9.680  0.00  0.00     0.215 C 
HETATM    9  N           1     -24.575  -3.384  -8.910  0.00  0.00    -0.370 N 
HETATM   10  H           1     -24.665  -3.765  -7.977  0.00  0.00     0.159 HD
HETATM   11  H           1     -25.287  -2.764  -9.274  0.00  0.00     0.159 HD
HETATM   12  O           1     -23.383  -3.254 -10.794  0.00  0.00    -0.274 OA
ENDBRANCH   7   8
ENDBRANCH   6   7
ENDBRANCH   5   6
BRANCH   5  13
HETATM   13  C           1     -19.955  -4.739  -6.895  0.00  0.00     0.196 C 
HETATM   14  O           1     -19.534  -4.478  -5.747  0.00  0.00    -0.646 OA
HETATM   15  O           1     -19.271  -4.432  -7.896  0.00  0.00    -0.646 OA
ENDBRANCH   5  13
ENDBRANCH   1   5
BRANCH   4  16
HETATM   16  C           1     -21.949  -7.700  -4.063  0.00  0.00     0.278 C 
BRANCH  16  17
HETATM   17  C           1     -21.187  -6.999  -2.945  0.00  0.00     0.017 C 
HETATM   18  C           1     -22.161  -6.201  -2.088  0.00  0.00     0.012 C 
HETATM   19  C           1     -20.487  -8.039  -2.080  0.00  0.00     0.012 C 
ENDBRANCH  16  17
BRANCH  16  20
HETATM   20  N           1     -21.713  -9.178  -3.977  0.00  0.00    -0.066 N 
HETATM   21  H           1     -22.466  -9.681  -4.498  0.00  0.00     0.275 HD
HETATM   22  H           1     -21.725  -9.475  -2.975  0.00  0.00     0.275 HD
HETATM   23  H           1     -20.785  -9.408  -4.397  0.00  0.00     0.275 HD
ENDBRANCH  16  20
ENDBRANCH   4  16
TORSDOF 8
ENDMDL
MODEL 4
REMARK VINA RESULT:      -5.7      2.017      2.677
REMARK  8 active torsions:
REMARK  status: ('A' for Active; 'I' for Inactive)
REMARK    1  A    between atoms: N_2  and  C_17 
REMARK       I    between atoms: N_2  and  C_14 
REMARK       I    between atoms: N_4  and  C_8 
REMARK    2  A    between atoms: C_7  and  C_13 
REMARK    3  A    between atoms: C_8  and  C_21 
REMARK    4  A    between atoms: C_13  and  C_14 
REMARK    5  A    between atoms: C_13  and  N_16 
REMARK    6  A    between atoms: C_17  and  C_22 
REMARK    7  A    between atoms: C_17  and  C_20 
REMARK    8  A    between atoms: C_21  and  C_22 
ROOT
HETATM    1  N           1     -27.695  -6.426 -18.464  0.00  0.00    -0.345 N 
HETATM    2  O           1     -27.390  -5.580 -20.507  0.00  0.00    -0.271 OA
HETATM    3  H           1     -27.499  -7.171 -17.806  0.00  0.00     0.163 HD
HETATM    4  C           1     -27.156  -6.468 -19.721  0.00  0.00     0.249 C 
ENDROOT
BRANCH   1   5
HETATM    5  C           1     -28.545  -5.319 -18.075  0.00  0.00     0.186 C 
BRANCH   5   6
HETATM    6  C           1     -29.953  -5.831 -17.801  0.00  0.00     0.045 C 
BRANCH   6   7
HETATM    7  C           1     -30.526  -5.119 -16.583  0.00  0.00     0.105 C 
BRANCH   7   8
HETATM    8  C           1     -31.535  -4.091 -17.030  0.00  0.00     0.215 C 
HETATM    9  N           1     -31.131  -3.010 -17.768  0.00  0.00    -0.370 N 
HETATM   10  H           1     -30.155  -2.902 -18.013  0.00  0.00     0.159 HD
HETATM   11  H           1     -31.808  -2.321 -18.067  0.00  0.00     0.159 HD
HETATM   12  O           1     -32.699  -4.220 -16.736  0.00  0.00    -0.274 OA
ENDBRANCH   7   8
ENDBRANCH   6   7
ENDBRANCH   5   6
BRANCH   5  13
HETATM   13  C           1     -27.992  -4.674 -16.828  0.00  0.00     0.196 C 
HETATM   14  O           1     -27.425  -5.375 -15.961  0.00  0.00    -0.646 OA
HETATM   15  O           1     -28.102  -3.440 -16.659  0.00  0.00    -0.646 OA
ENDBRANCH   5  13
ENDBRANCH   1   5
BRANCH   4  16
HETATM   16  C           1     -26.271  -7.621 -20.126  0.00  0.00     0.278 C 
BRANCH  16  17
HETATM   17  C           1     -24.923  -7.088 -20.593  0.00  0.00     0.017 C 
HETATM   18  C           1     -23.936  -7.114 -19.434  0.00  0.00     0.012 C 
HETATM   19  C           1     -24.398  -7.960 -21.726  0.00  0.00     0.012 C 
ENDBRANCH  16  17
BRANCH  16  20
HETATM   20  N           1     -26.922  -8.381 -21.244  0.00  0.00    -0.066 N 
HETATM   21  H           1     -26.516  -8.073 -22.156  0.00  0.00     0.275 HD
HETATM   22  H           1     -27.950  -8.195 -21.239  0.00  0.00     0.275 HD
HETATM   23  H           1     -26.752  -9.404 -21.115  0.00  0.00     0.275 HD
ENDBRANCH  16  20
ENDBRANCH   4  16
TORSDOF 8
ENDMDL
MODEL 5
REMARK VINA RESULT:      -5.5     15.885     17.638
REMARK  8 active torsions:
REMARK  status: ('A' for Active; 'I' for Inactive)
REMARK    1  A    between atoms: N_2  and  C_17 
REMARK       I    between atoms: N_2  and  C_14 
REMARK       I    between atoms: N_4  and  C_8 
REMARK    2  A    between atoms: C_7  and  C_13 
REMARK    3  A    between atoms: C_8  and  C_21 
REMARK    4  A    between atoms: C_13  and  C_14 
REMARK    5  A    between atoms: C_13  and  N_16 
REMARK    6  A    between atoms: C_17  and  C_22 
REMARK    7  A    between atoms: C_17  and  C_20 
REMARK    8  A    between atoms: C_21  and  C_22 
ROOT
HETATM    1  N           1     -20.709  -7.971  -3.233  0.00  0.00    -0.345 N 
HETATM    2  O           1     -21.810  -9.644  -2.245  0.00  0.00    -0.271 OA
HETATM    3  H           1     -20.307  -7.046  -3.156  0.00  0.00     0.163 HD
HETATM    4  C           1     -21.329  -8.539  -2.153  0.00  0.00     0.249 C 
ENDROOT
BRANCH   1   5
HETATM    5  C           1     -20.630  -8.695  -4.487  0.00  0.00     0.186 C 
BRANCH   5   6
HETATM    6  C           1     -21.297  -7.879  -5.587  0.00  0.00     0.045 C 
BRANCH   6   7
HETATM    7  C           1     -21.318  -6.409  -5.188  0.00  0.00     0.105 C 
BRANCH   7   8
HETATM    8  C           1     -20.514  -5.607  -6.181  0.00  0.00     0.215 C 
HETATM    9  N           1     -19.880  -6.237  -7.217  0.00  0.00    -0.370 N 
HETATM   10  H           1     -19.950  -7.242  -7.317  0.00  0.00     0.159 HD
HETATM   11  H           1     -19.341  -5.699  -7.883  0.00  0.00     0.159 HD
HETATM   12  O           1     -20.430  -4.408  -6.061  0.00  0.00    -0.274 OA
ENDBRANCH   7   8
ENDBRANCH   6   7
ENDBRANCH   5   6
BRANCH   5  13
HETATM   13  C           1     -19.182  -8.929  -4.841  0.00  0.00     0.196 C 
HETATM   14  O           1     -18.816  -8.878  -6.036  0.00  0.00    -0.646 OA
HETATM   15  O           1     -18.349  -9.175  -3.942  0.00  0.00    -0.646 OA
ENDBRANCH   5  13
ENDBRANCH   1   5
BRANCH   4  16
HETATM   16  C           1     -21.412  -7.786  -0.848  0.00  0.00     0.278 C 
BRANCH  16  17
HETATM   17  C           1     -21.978  -8.700   0.232  0.00  0.00     0.017 C 
HETATM   18  C           1     -21.033  -8.724   1.425  0.00  0.00     0.012 C 
HETATM   19  C           1     -23.339  -8.179   0.674  0.00  0.00     0.012 C 
ENDBRANCH  16  17
BRANCH  16  20
HETATM   20  N           1     -22.309  -6.595  -1.015  0.00  0.00    -0.066 N 
HETATM   21  H           1     -21.994  -5.831  -0.376  0.00  0.00     0.275 HD
HETATM   22  H           1     -23.291  -6.864  -0.779  0.00  0.00     0.275 HD
HETATM   23  H           1     -22.266  -6.264  -2.004  0.00  0.00     0.275 HD
ENDBRANCH  16  20
ENDBRANCH   4  16
TORSDOF 8
ENDMDL
MODEL 6
REMARK VINA RESULT:      -5.4     16.950     18.435
REMARK  8 active torsions:
REMARK  status: ('A' for Active; 'I' for Inactive)
REMARK    1  A    between atoms: N_2  and  C_17 
REMARK       I    between atoms: N_2  and  C_14 
REMARK       I    between atoms: N_4  and  C_8 
REMARK    2  A    between atoms: C_7  and  C_13 
REMARK    3  A    between atoms: C_8  and  C_21 
REMARK    4  A    between atoms: C_13  and  C_14 
REMARK    5  A    between atoms: C_13  and  N_16 
REMARK    6  A    between atoms: C_17  and  C_22 
REMARK    7  A    between atoms: C_17  and  C_20 
REMARK    8  A    between atoms: C_21  and  C_22 
ROOT
HETATM    1  N           1     -21.706  -9.256  -1.632  0.00  0.00    -0.345 N 
HETATM    2  O           1     -20.752  -9.768   0.321  0.00  0.00    -0.271 OA
HETATM    3  H           1     -22.271  -9.559  -2.416  0.00  0.00     0.163 HD
HETATM    4  C           1     -21.426 -10.128  -0.615  0.00  0.00     0.249 C 
ENDROOT
BRANCH   1   5
HETATM    5  C           1     -21.193  -7.901  -1.587  0.00  0.00     0.186 C 
BRANCH   5   6
HETATM    6  C           1     -20.625  -7.528  -2.951  0.00  0.00     0.045 C 
BRANCH   6   7
HETATM    7  C           1     -21.364  -8.298  -4.037  0.00  0.00     0.105 C 
BRANCH   7   8
HETATM    8  C           1     -21.714  -7.363  -5.167  0.00  0.00     0.215 C 
HETATM    9  N           1     -22.572  -6.318  -4.951  0.00  0.00    -0.370 N 
HETATM   10  H           1     -22.972  -6.174  -4.033  0.00  0.00     0.159 HD
HETATM   11  H           1     -22.807  -5.691  -5.709  0.00  0.00     0.159 HD
HETATM   12  O           1     -21.237  -7.535  -6.264  0.00  0.00    -0.274 OA
ENDBRANCH   7   8
ENDBRANCH   6   7
ENDBRANCH   5   6
BRANCH   5  13
HETATM   13  C           1     -22.310  -6.952  -1.231  0.00  0.00     0.196 C 
HETATM   14  O           1     -22.496  -5.922  -1.915  0.00  0.00    -0.646 OA
HETATM   15  O           1     -23.048  -7.193  -0.251  0.00  0.00    -0.646 OA
ENDBRANCH   5  13
ENDBRANCH   1   5
BRANCH   4  16
HETATM   16  C           1     -21.961 -11.539  -0.661  0.00  0.00     0.278 C 
BRANCH  16  17
HETATM   17  C           1     -23.443 -11.509  -1.011  0.00  0.00     0.017 C 
HETATM   18  C           1     -23.983 -12.932  -1.061  0.00  0.00     0.012 C 
HETATM   19  C           1     -24.198 -10.717   0.048  0.00  0.00     0.012 C 
ENDBRANCH  16  17
BRANCH  16  20
HETATM   20  N           1     -21.777 -12.187   0.679  0.00  0.00    -0.066 N 
HETATM   21  H           1     -21.936 -13.216   0.592  0.00  0.00     0.275 HD
HETATM   22  H           1     -22.463 -11.784   1.357  0.00  0.00     0.275 HD
HETATM   23  H           1     -20.806 -12.011   1.021  0.00  0.00     0.275 HD
ENDBRANCH  16  20
ENDBRANCH   4  16
TORSDOF 8
ENDMDL
MODEL 7
REMARK VINA RESULT:      -5.3      1.974      2.991
REMARK  8 active torsions:
REMARK  status: ('A' for Active; 'I' for Inactive)
REMARK    1  A    between atoms: N_2  and  C_17 
REMARK       I    between atoms: N_2  and  C_14 
REMARK       I    between atoms: N_4  and  C_8 
REMARK    2  A    between atoms: C_7  and  C_13 
REMARK    3  A    between atoms: C_8  and  C_21 
REMARK    4  A    between atoms: C_13  and  C_14 
REMARK    5  A    between atoms: C_13  and  N_16 
REMARK    6  A    between atoms: C_17  and  C_22 
REMARK    7  A    between atoms: C_17  and  C_20 
REMARK    8  A    between atoms: C_21  and  C_22 
ROOT
HETATM    1  N           1     -26.599  -6.469 -18.295  0.00  0.00    -0.345 N 
HETATM    2  O           1     -28.134  -5.256 -19.371  0.00  0.00    -0.271 OA
HETATM    3  H           1     -25.807  -7.097 -18.353  0.00  0.00     0.163 HD
HETATM    4  C           1     -27.189  -6.006 -19.440  0.00  0.00     0.249 C 
ENDROOT
BRANCH   1   5
HETATM    5  C           1     -27.107  -6.059 -17.001  0.00  0.00     0.186 C 
BRANCH   5   6
HETATM    6  C           1     -28.464  -6.708 -16.760  0.00  0.00     0.045 C 
BRANCH   6   7
HETATM    7  C           1     -29.323  -5.787 -15.905  0.00  0.00     0.105 C 
BRANCH   7   8
HETATM    8  C           1     -30.455  -5.238 -16.736  0.00  0.00     0.215 C 
HETATM    9  N           1     -31.648  -5.908 -16.796  0.00  0.00    -0.370 N 
HETATM   10  H           1     -31.770  -6.771 -16.281  0.00  0.00     0.159 HD
HETATM   11  H           1     -32.408  -5.540 -17.354  0.00  0.00     0.159 HD
HETATM   12  O           1     -30.310  -4.208 -17.351  0.00  0.00    -0.274 OA
ENDBRANCH   7   8
ENDBRANCH   6   7
ENDBRANCH   5   6
BRANCH   5  13
HETATM   13  C           1     -26.144  -6.491 -15.923  0.00  0.00     0.196 C 
HETATM   14  O           1     -26.314  -7.580 -15.333  0.00  0.00    -0.646 OA
HETATM   15  O           1     -25.176  -5.760 -15.618  0.00  0.00    -0.646 OA
ENDBRANCH   5  13
ENDBRANCH   1   5
BRANCH   4  16
HETATM   16  C           1     -26.661  -6.433 -20.788  0.00  0.00     0.278 C 
BRANCH  16  17
HETATM   17  C           1     -26.230  -7.893 -20.726  0.00  0.00     0.017 C 
HETATM   18  C           1     -27.328  -8.772 -21.308  0.00  0.00     0.012 C 
HETATM   19  C           1     -24.951  -8.079 -21.531  0.00  0.00     0.012 C 
ENDBRANCH  16  17
BRANCH  16  20
HETATM   20  N           1     -25.482  -5.580 -21.154  0.00  0.00    -0.066 N 
HETATM   21  H           1     -24.658  -6.193 -21.350  0.00  0.00     0.275 HD
HETATM   22  H           1     -25.258  -4.937 -20.362  0.00  0.00     0.275 HD
HETATM   23  H           1     -25.709  -5.019 -22.005  0.00  0.00     0.275 HD
ENDBRANCH  16  20
ENDBRANCH   4  16
TORSDOF 8
ENDMDL
MODEL 8
REMARK VINA RESULT:      -5.3      2.025      3.375
REMARK  8 active torsions:
REMARK  status: ('A' for Active; 'I' for Inactive)
REMARK    1  A    between atoms: N_2  and  C_17 
REMARK       I    between atoms: N_2  and  C_14 
REMARK       I    between atoms: N_4  and  C_8 
REMARK    2  A    between atoms: C_7  and  C_13 
REMARK    3  A    between atoms: C_8  and  C_21 
REMARK    4  A    between atoms: C_13  and  C_14 
REMARK    5  A    between atoms: C_13  and  N_16 
REMARK    6  A    between atoms: C_17  and  C_22 
REMARK    7  A    between atoms: C_17  and  C_20 
REMARK    8  A    between atoms: C_21  and  C_22 
ROOT
HETATM    1  N           1     -27.620  -6.410 -18.482  0.00  0.00    -0.345 N 
HETATM    2  O           1     -27.294  -5.548 -20.516  0.00  0.00    -0.271 OA
HETATM    3  H           1     -27.453  -7.172 -17.837  0.00  0.00     0.163 HD
HETATM    4  C           1     -27.095  -6.457 -19.746  0.00  0.00     0.249 C 
ENDROOT
BRANCH   1   5
HETATM    5  C           1     -28.414  -5.270 -18.070  0.00  0.00     0.186 C 
BRANCH   5   6
HETATM    6  C           1     -29.773  -5.751 -17.575  0.00  0.00     0.045 C 
BRANCH   6   7
HETATM    7  C           1     -29.738  -7.260 -17.379  0.00  0.00     0.105 C 
BRANCH   7   8
HETATM    8  C           1     -30.403  -7.936 -18.552  0.00  0.00     0.215 C 
HETATM    9  N           1     -31.736  -7.736 -18.792  0.00  0.00    -0.370 N 
HETATM   10  H           1     -32.275  -7.134 -18.182  0.00  0.00     0.159 HD
HETATM   11  H           1     -32.182  -8.189 -19.579  0.00  0.00     0.159 HD
HETATM   12  O           1     -29.759  -8.654 -19.280  0.00  0.00    -0.274 OA
ENDBRANCH   7   8
ENDBRANCH   6   7
ENDBRANCH   5   6
BRANCH   5  13
HETATM   13  C           1     -27.704  -4.538 -16.958  0.00  0.00     0.196 C 
HETATM   14  O           1     -28.132  -3.431 -16.566  0.00  0.00    -0.646 OA
HETATM   15  O           1     -26.686  -5.037 -16.430  0.00  0.00    -0.646 OA
ENDBRANCH   5  13
ENDBRANCH   1   5
BRANCH   4  16
HETATM   16  C           1     -26.268  -7.644 -20.176  0.00  0.00     0.278 C 
BRANCH  16  17
HETATM   17  C           1     -24.941  -7.159 -20.745  0.00  0.00     0.017 C 
HETATM   18  C           1     -23.867  -7.236 -19.669  0.00  0.00     0.012 C 
HETATM   19  C           1     -24.543  -8.040 -21.923  0.00  0.00     0.012 C 
ENDBRANCH  16  17
BRANCH  16  20
HETATM   20  N           1     -27.010  -8.415 -21.227  0.00  0.00    -0.066 N 
HETATM   21  H           1     -26.970  -7.895 -22.132  0.00  0.00     0.275 HD
HETATM   22  H           1     -28.007  -8.531 -20.935  0.00  0.00     0.275 HD
HETATM   23  H           1     -26.570  -9.355 -21.345  0.00  0.00     0.275 HD
ENDBRANCH  16  20
ENDBRANCH   4  16
TORSDOF 8
ENDMDL
MODEL 9
REMARK VINA RESULT:      -5.1     16.158     17.456
REMARK  8 active torsions:
REMARK  status: ('A' for Active; 'I' for Inactive)
REMARK    1  A    between atoms: N_2  and  C_17 
REMARK       I    between atoms: N_2  and  C_14 
REMARK       I    between atoms: N_4  and  C_8 
REMARK    2  A    between atoms: C_7  and  C_13 
REMARK    3  A    between atoms: C_8  and  C_21 
REMARK    4  A    between atoms: C_13  and  C_14 
REMARK    5  A    between atoms: C_13  and  N_16 
REMARK    6  A    between atoms: C_17  and  C_22 
REMARK    7  A    between atoms: C_17  and  C_20 
REMARK    8  A    between atoms: C_21  and  C_22 
ROOT
HETATM    1  N           1     -19.383  -9.195  -4.128  0.00  0.00    -0.345 N 
HETATM    2  O           1     -19.705 -11.145  -3.089  0.00  0.00    -0.271 OA
HETATM    3  H           1     -18.777  -8.616  -4.697  0.00  0.00     0.163 HD
HETATM    4  C           1     -18.983 -10.454  -3.768  0.00  0.00     0.249 C 
ENDROOT
BRANCH   1   5
HETATM    5  C           1     -20.671  -8.692  -3.695  0.00  0.00     0.186 C 
BRANCH   5   6
HETATM    6  C           1     -20.466  -7.630  -2.622  0.00  0.00     0.045 C 
BRANCH   6   7
HETATM    7  C           1     -21.246  -8.012  -1.371  0.00  0.00     0.105 C 
BRANCH   7   8
HETATM    8  C           1     -22.307  -6.975  -1.103  0.00  0.00     0.215 C 
HETATM    9  N           1     -22.372  -5.846  -1.875  0.00  0.00    -0.370 N 
HETATM   10  H           1     -21.708  -5.708  -2.626  0.00  0.00     0.159 HD
HETATM   11  H           1     -23.084  -5.150  -1.695  0.00  0.00     0.159 HD
HETATM   12  O           1     -23.100  -7.140  -0.207  0.00  0.00    -0.274 OA
ENDBRANCH   7   8
ENDBRANCH   6   7
ENDBRANCH   5   6
BRANCH   5  13
HETATM   13  C           1     -21.395  -8.085  -4.871  0.00  0.00     0.196 C 
HETATM   14  O           1     -22.174  -7.123  -4.696  0.00  0.00    -0.646 OA
HETATM   15  O           1     -21.219  -8.545  -6.020  0.00  0.00    -0.646 OA
ENDBRANCH   5  13
ENDBRANCH   1   5
BRANCH   4  16
HETATM   16  C           1     -17.642 -10.978  -4.220  0.00  0.00     0.278 C 
BRANCH  16  17
HETATM   17  C           1     -16.641  -9.831  -4.276  0.00  0.00     0.017 C 
HETATM   18  C           1     -16.026  -9.624  -2.898  0.00  0.00     0.012 C 
HETATM   19  C           1     -15.542 -10.166  -5.277  0.00  0.00     0.012 C 
ENDBRANCH  16  17
BRANCH  16  20
HETATM   20  N           1     -17.777 -11.589  -5.583  0.00  0.00    -0.066 N 
HETATM   21  H           1     -17.467 -10.901  -6.304  0.00  0.00     0.275 HD
HETATM   22  H           1     -18.777 -11.844  -5.752  0.00  0.00     0.275 HD
HETATM   23  H           1     -17.184 -12.447  -5.640  0.00  0.00     0.275 HD
ENDBRANCH  16  20
ENDBRANCH   4  16
TORSDOF 8
ENDMDL
