MODEL 1
REMARK VINA RESULT:      -7.5      0.000      0.000
REMARK  16 active torsions:
REMARK  status: ('A' for Active; 'I' for Inactive)
REMARK       I    between atoms: N_1  and  C_15 
REMARK    1  A    between atoms: C_4  and  C_5 
REMARK    2  A    between atoms: C_5  and  C_6 
REMARK    3  A    between atoms: C_5  and  N_21 
REMARK    4  A    between atoms: C_6  and  C_7 
REMARK    5  A    between atoms: C_7  and  N_8 
REMARK    6  A    between atoms: N_8  and  C_34 
REMARK    7  A    between atoms: C_10  and  C_17 
REMARK    8  A    between atoms: C_10  and  N_24 
REMARK    9  A    between atoms: N_13  and  C_19 
REMARK       I    between atoms: N_14  and  C_15 
REMARK   10  A    between atoms: C_17  and  C_18 
REMARK   11  A    between atoms: C_18  and  C_19 
REMARK   12  A    between atoms: C_19  and  C_20 
REMARK       I    between atoms: C_20  and  N_21 
REMARK   13  A    between atoms: C_23  and  C_34 
REMARK   14  A    between atoms: C_29  and  O_30 
REMARK   15  A    between atoms: C_32  and  C_35 
REMARK   16  A    between atoms: C_34  and  C_35 
ROOT
HETATM    1  C           1     -20.486  -9.504  -4.925  0.00  0.00     0.187 C 
ENDROOT
BRANCH   1   2
HETATM    2  C           1     -20.830 -10.732  -5.733  0.00  0.00     0.196 C 
HETATM    3  O           1     -20.152 -11.026  -6.742  0.00  0.00    -0.646 OA
HETATM    4  O           1     -21.793 -11.453  -5.394  0.00  0.00    -0.646 OA
ENDBRANCH   1   2
BRANCH   1   5
HETATM    5  C           1     -20.756  -9.774  -3.451  0.00  0.00     0.066 C 
BRANCH   5   6
HETATM    6  C           1     -19.538  -9.370  -2.628  0.00  0.00     0.273 C 
BRANCH   6   7
HETATM    7  N           1     -19.834  -8.170  -1.891  0.00  0.00     0.098 N 
HETATM    8  H           1     -19.639  -7.357  -2.475  0.00  0.00     0.317 HD
BRANCH   7   9
HETATM    9  C           1     -21.232  -8.196  -1.558  0.00  0.00     0.324 C 
BRANCH   9  10
HETATM   10  C           1     -21.849  -6.855  -1.871  0.00  0.00     0.207 C 
HETATM   11  O           1     -21.461  -6.206  -2.866  0.00  0.00    -0.646 OA
HETATM   12  O           1     -22.747  -6.393  -1.134  0.00  0.00    -0.646 OA
ENDBRANCH   9  10
BRANCH   9  13
HETATM   13  C           1     -21.393  -8.496  -0.073  0.00  0.00     0.085 C 
BRANCH  13  14
HETATM   14  C           1     -21.971  -9.865   0.100  0.00  0.00    -0.055 A 
HETATM   15  C           1     -21.189 -10.891   0.630  0.00  0.00     0.010 A 
HETATM   16  C           1     -21.728 -12.167   0.793  0.00  0.00     0.037 A 
HETATM   17  C           1     -23.050 -12.418   0.425  0.00  0.00     0.065 A 
HETATM   18  C           1     -23.833 -11.392  -0.105  0.00  0.00     0.037 A 
HETATM   19  C           1     -23.293 -10.116  -0.268  0.00  0.00     0.010 A 
BRANCH  17  20
HETATM   20  O           1     -23.573 -13.657   0.582  0.00  0.00    -0.361 OA
HETATM   21  H           1     -22.837 -14.283   0.689  0.00  0.00     0.217 HD
ENDBRANCH  17  20
ENDBRANCH  13  14
ENDBRANCH   9  13
ENDBRANCH   7   9
ENDBRANCH   6   7
ENDBRANCH   5   6
ENDBRANCH   1   5
BRANCH   1  22
HETATM   22  N           1     -21.302  -8.391  -5.368  0.00  0.00    -0.345 N 
HETATM   23  C           1     -20.720  -7.323  -5.998  0.00  0.00     0.249 C 
HETATM   24  O           1     -19.526  -7.309  -6.184  0.00  0.00    -0.271 OA
HETATM   25  H           1     -22.301  -8.403  -5.212  0.00  0.00     0.163 HD
BRANCH  23  26
HETATM   26  C           1     -21.569  -6.164  -6.460  0.00  0.00     0.274 C 
BRANCH  26  27
HETATM   27  N           1     -22.620  -5.875  -5.429  0.00  0.00    -0.067 N 
HETATM   28  H           1     -22.182  -5.393  -4.611  0.00  0.00     0.275 HD
HETATM   29  H           1     -23.353  -5.257  -5.843  0.00  0.00     0.275 HD
HETATM   30  H           1     -23.054  -6.771  -5.113  0.00  0.00     0.275 HD
ENDBRANCH  26  27
BRANCH  26  31
HETATM   31  C           1     -20.692  -4.934  -6.648  0.00  0.00     0.044 C 
BRANCH  31  32
HETATM   32  C           1     -21.533  -3.787  -7.193  0.00  0.00     0.023 C 
BRANCH  32  33
HETATM   33  C           1     -22.137  -4.192  -8.532  0.00  0.00     0.138 C 
BRANCH  33  34
HETATM   34  N           1     -23.503  -3.658  -8.636  0.00  0.00    -0.227 N 
HETATM   35  C           1     -24.254  -4.021  -9.589  0.00  0.00     0.665 C 
HETATM   36  N           1     -23.817  -4.865 -10.475  0.00  0.00    -0.235 N 
HETATM   37  N           1     -25.430  -3.561  -9.678  0.00  0.00    -0.235 N 
HETATM   38  H           1     -24.436  -5.164 -11.261  0.00  0.00     0.174 HD
HETATM   39  H           1     -22.846  -5.244 -10.402  0.00  0.00     0.174 HD
HETATM   40  H           1     -26.052  -3.861 -10.467  0.00  0.00     0.174 HD
HETATM   41  H           1     -25.782  -2.879  -8.962  0.00  0.00     0.174 HD
HETATM   42  H           1     -23.856  -2.976  -7.919  0.00  0.00     0.177 HD
ENDBRANCH  33  34
ENDBRANCH  32  33
ENDBRANCH  31  32
ENDBRANCH  26  31
ENDBRANCH  23  26
ENDBRANCH   1  22
TORSDOF 16
ENDMDL
MODEL 2
REMARK VINA RESULT:      -7.2      1.661      3.675
REMARK  16 active torsions:
REMARK  status: ('A' for Active; 'I' for Inactive)
REMARK       I    between atoms: N_1  and  C_15 
REMARK    1  A    between atoms: C_4  and  C_5 
REMARK    2  A    between atoms: C_5  and  C_6 
REMARK    3  A    between atoms: C_5  and  N_21 
REMARK    4  A    between atoms: C_6  and  C_7 
REMARK    5  A    between atoms: C_7  and  N_8 
REMARK    6  A    between atoms: N_8  and  C_34 
REMARK    7  A    between atoms: C_10  and  C_17 
REMARK    8  A    between atoms: C_10  and  N_24 
REMARK    9  A    between atoms: N_13  and  C_19 
REMARK       I    between atoms: N_14  and  C_15 
REMARK   10  A    between atoms: C_17  and  C_18 
REMARK   11  A    between atoms: C_18  and  C_19 
REMARK   12  A    between atoms: C_19  and  C_20 
REMARK       I    between atoms: C_20  and  N_21 
REMARK   13  A    between atoms: C_23  and  C_34 
REMARK   14  A    between atoms: C_29  and  O_30 
REMARK   15  A    between atoms: C_32  and  C_35 
REMARK   16  A    between atoms: C_34  and  C_35 
ROOT
HETATM    1  C           1     -21.102 -10.136  -4.634  0.00  0.00     0.187 C 
ENDROOT
BRANCH   1   2
HETATM    2  C           1     -20.856 -10.983  -5.860  0.00  0.00     0.196 C 
HETATM    3  O           1     -19.718 -11.021  -6.376  0.00  0.00    -0.646 OA
HETATM    4  O           1     -21.792 -11.645  -6.359  0.00  0.00    -0.646 OA
ENDBRANCH   1   2
BRANCH   1   5
HETATM    5  C           1     -22.064 -10.859  -3.702  0.00  0.00     0.066 C 
BRANCH   5   6
HETATM    6  C           1     -21.295 -11.877  -2.868  0.00  0.00     0.273 C 
BRANCH   6   7
HETATM    7  N           1     -21.649 -11.726  -1.482  0.00  0.00     0.098 N 
HETATM    8  H           1     -22.106 -12.578  -1.154  0.00  0.00     0.317 HD
BRANCH   7   9
HETATM    9  C           1     -20.435 -11.520  -0.741  0.00  0.00     0.324 C 
BRANCH   9  10
HETATM   10  C           1     -19.984 -12.828  -0.139  0.00  0.00     0.207 C 
HETATM   11  O           1     -18.855 -13.286  -0.416  0.00  0.00    -0.646 OA
HETATM   12  O           1     -20.740 -13.453   0.635  0.00  0.00    -0.646 OA
ENDBRANCH   9  10
BRANCH   9  13
HETATM   13  C           1     -20.686 -10.509   0.371  0.00  0.00     0.085 C 
BRANCH  13  14
HETATM   14  C           1     -21.178  -9.226  -0.222  0.00  0.00    -0.055 A 
HETATM   15  C           1     -22.350  -8.640   0.256  0.00  0.00     0.010 A 
HETATM   16  C           1     -22.808  -7.444  -0.295  0.00  0.00     0.037 A 
HETATM   17  C           1     -22.095  -6.833  -1.327  0.00  0.00     0.065 A 
HETATM   18  C           1     -20.922  -7.419  -1.806  0.00  0.00     0.037 A 
HETATM   19  C           1     -20.465  -8.615  -1.253  0.00  0.00     0.010 A 
BRANCH  17  20
HETATM   20  O           1     -22.540  -5.672  -1.863  0.00  0.00    -0.361 OA
HETATM   21  H           1     -21.789  -5.237  -2.303  0.00  0.00     0.217 HD
ENDBRANCH  17  20
ENDBRANCH  13  14
ENDBRANCH   9  13
ENDBRANCH   7   9
ENDBRANCH   6   7
ENDBRANCH   5   6
ENDBRANCH   1   5
BRANCH   1  22
HETATM   22  N           1     -21.679  -8.868  -5.034  0.00  0.00    -0.345 N 
HETATM   23  C           1     -20.868  -7.788  -5.265  0.00  0.00     0.249 C 
HETATM   24  O           1     -19.671  -7.894  -5.136  0.00  0.00    -0.271 OA
HETATM   25  H           1     -22.681  -8.779  -5.142  0.00  0.00     0.163 HD
BRANCH  23  26
HETATM   26  C           1     -21.468  -6.468  -5.680  0.00  0.00     0.274 C 
BRANCH  26  27
HETATM   27  N           1     -22.740  -6.237  -4.919  0.00  0.00    -0.067 N 
HETATM   28  H           1     -22.566  -5.551  -4.150  0.00  0.00     0.275 HD
HETATM   29  H           1     -23.468  -5.858  -5.565  0.00  0.00     0.275 HD
HETATM   30  H           1     -23.070  -7.140  -4.511  0.00  0.00     0.275 HD
ENDBRANCH  26  27
BRANCH  26  31
HETATM   31  C           1     -20.486  -5.345  -5.377  0.00  0.00     0.044 C 
BRANCH  31  32
HETATM   32  C           1     -20.074  -4.664  -6.676  0.00  0.00     0.023 C 
BRANCH  32  33
HETATM   33  C           1     -21.200  -3.754  -7.151  0.00  0.00     0.138 C 
BRANCH  33  34
HETATM   34  N           1     -21.604  -4.142  -8.511  0.00  0.00    -0.227 N 
HETATM   35  C           1     -22.831  -4.280  -8.792  0.00  0.00     0.665 C 
HETATM   36  N           1     -23.733  -4.079  -7.878  0.00  0.00    -0.235 N 
HETATM   37  N           1     -23.178  -4.614  -9.963  0.00  0.00    -0.235 N 
HETATM   38  H           1     -24.745  -4.193  -8.110  0.00  0.00     0.174 HD
HETATM   39  H           1     -23.447  -3.804  -6.912  0.00  0.00     0.174 HD
HETATM   40  H           1     -24.195  -4.728 -10.195  0.00  0.00     0.174 HD
HETATM   41  H           1     -22.449  -4.776 -10.700  0.00  0.00     0.174 HD
HETATM   42  H           1     -20.874  -4.305  -9.249  0.00  0.00     0.177 HD
ENDBRANCH  33  34
ENDBRANCH  32  33
ENDBRANCH  31  32
ENDBRANCH  26  31
ENDBRANCH  23  26
ENDBRANCH   1  22
TORSDOF 16
ENDMDL
MODEL 3
REMARK VINA RESULT:      -7.1      3.219      8.126
REMARK  16 active torsions:
REMARK  status: ('A' for Active; 'I' for Inactive)
REMARK       I    between atoms: N_1  and  C_15 
REMARK    1  A    between atoms: C_4  and  C_5 
REMARK    2  A    between atoms: C_5  and  C_6 
REMARK    3  A    between atoms: C_5  and  N_21 
REMARK    4  A    between atoms: C_6  and  C_7 
REMARK    5  A    between atoms: C_7  and  N_8 
REMARK    6  A    between atoms: N_8  and  C_34 
REMARK    7  A    between atoms: C_10  and  C_17 
REMARK    8  A    between atoms: C_10  and  N_24 
REMARK    9  A    between atoms: N_13  and  C_19 
REMARK       I    between atoms: N_14  and  C_15 
REMARK   10  A    between atoms: C_17  and  C_18 
REMARK   11  A    between atoms: C_18  and  C_19 
REMARK   12  A    between atoms: C_19  and  C_20 
REMARK       I    between atoms: C_20  and  N_21 
REMARK   13  A    between atoms: C_23  and  C_34 
REMARK   14  A    between atoms: C_29  and  O_30 
REMARK   15  A    between atoms: C_32  and  C_35 
REMARK   16  A    between atoms: C_34  and  C_35 
ROOT
HETATM    1  C           1     -21.567  -7.777  -0.911  0.00  0.00     0.187 C 
ENDROOT
BRANCH   1   2
HETATM    2  C           1     -22.132  -8.072   0.458  0.00  0.00     0.196 C 
HETATM    3  O           1     -21.362  -8.300   1.416  0.00  0.00    -0.646 OA
HETATM    4  O           1     -23.369  -8.089   0.632  0.00  0.00    -0.646 OA
ENDBRANCH   1   2
BRANCH   1   5
HETATM    5  C           1     -22.214  -6.515  -1.466  0.00  0.00     0.066 C 
BRANCH   5   6
HETATM    6  C           1     -22.248  -6.589  -2.987  0.00  0.00     0.273 C 
BRANCH   6   7
HETATM    7  N           1     -21.219  -5.744  -3.532  0.00  0.00     0.098 N 
HETATM    8  H           1     -20.315  -6.023  -3.150  0.00  0.00     0.317 HD
BRANCH   7   9
HETATM    9  C           1     -21.213  -5.927  -4.958  0.00  0.00     0.324 C 
BRANCH   9  10
HETATM   10  C           1     -20.723  -7.316  -5.285  0.00  0.00     0.207 C 
HETATM   11  O           1     -21.274  -7.975  -6.192  0.00  0.00    -0.646 OA
HETATM   12  O           1     -19.765  -7.806  -4.648  0.00  0.00    -0.646 OA
ENDBRANCH   9  10
BRANCH   9  13
HETATM   13  C           1     -20.289  -4.898  -5.596  0.00  0.00     0.085 C 
BRANCH  13  14
HETATM   14  C           1     -20.771  -4.583  -6.978  0.00  0.00    -0.055 A 
HETATM   15  C           1     -22.129  -4.374  -7.213  0.00  0.00     0.010 A 
HETATM   16  C           1     -22.578  -4.080  -8.500  0.00  0.00     0.037 A 
HETATM   17  C           1     -21.668  -3.996  -9.554  0.00  0.00     0.065 A 
HETATM   18  C           1     -20.308  -4.206  -9.319  0.00  0.00     0.037 A 
HETATM   19  C           1     -19.861  -4.500  -8.031  0.00  0.00     0.010 A 
BRANCH  17  20
HETATM   20  O           1     -22.103  -3.712 -10.804  0.00  0.00    -0.361 OA
HETATM   21  H           1     -21.602  -4.263 -11.430  0.00  0.00     0.217 HD
ENDBRANCH  17  20
ENDBRANCH  13  14
ENDBRANCH   9  13
ENDBRANCH   7   9
ENDBRANCH   6   7
ENDBRANCH   5   6
ENDBRANCH   1   5
BRANCH   1  22
HETATM   22  N           1     -21.844  -8.890  -1.796  0.00  0.00    -0.345 N 
HETATM   23  C           1     -20.970  -9.943  -1.868  0.00  0.00     0.249 C 
HETATM   24  O           1     -19.968  -9.942  -1.193  0.00  0.00    -0.271 OA
HETATM   25  H           1     -22.683  -8.891  -2.361  0.00  0.00     0.163 HD
BRANCH  23  26
HETATM   26  C           1     -21.259 -11.102  -2.790  0.00  0.00     0.274 C 
BRANCH  26  27
HETATM   27  N           1     -21.966 -12.182  -2.027  0.00  0.00    -0.067 N 
HETATM   28  H           1     -21.968 -13.063  -2.590  0.00  0.00     0.275 HD
HETATM   29  H           1     -21.472 -12.350  -1.122  0.00  0.00     0.275 HD
HETATM   30  H           1     -22.950 -11.888  -1.839  0.00  0.00     0.275 HD
ENDBRANCH  26  27
BRANCH  26  31
HETATM   31  C           1     -22.142 -10.631  -3.938  0.00  0.00     0.044 C 
BRANCH  31  32
HETATM   32  C           1     -21.840 -11.454  -5.183  0.00  0.00     0.023 C 
BRANCH  32  33
HETATM   33  C           1     -20.346 -11.742  -5.252  0.00  0.00     0.138 C 
BRANCH  33  34
HETATM   34  N           1     -19.665 -10.644  -5.955  0.00  0.00    -0.227 N 
HETATM   35  C           1     -18.419 -10.477  -5.812  0.00  0.00     0.665 C 
HETATM   36  N           1     -17.740 -11.275  -5.043  0.00  0.00    -0.235 N 
HETATM   37  N           1     -17.834  -9.532  -6.418  0.00  0.00    -0.235 N 
HETATM   38  H           1     -16.711 -11.138  -4.926  0.00  0.00     0.174 HD
HETATM   39  H           1     -18.223 -12.056  -4.543  0.00  0.00     0.174 HD
HETATM   40  H           1     -16.800  -9.393  -6.299  0.00  0.00     0.174 HD
HETATM   41  H           1     -18.383  -8.887  -7.038  0.00  0.00     0.174 HD
HETATM   42  H           1     -20.215  -9.999  -6.576  0.00  0.00     0.177 HD
ENDBRANCH  33  34
ENDBRANCH  32  33
ENDBRANCH  31  32
ENDBRANCH  26  31
ENDBRANCH  23  26
ENDBRANCH   1  22
TORSDOF 16
ENDMDL
MODEL 4
REMARK VINA RESULT:      -7.0      1.565      2.001
REMARK  16 active torsions:
REMARK  status: ('A' for Active; 'I' for Inactive)
REMARK       I    between atoms: N_1  and  C_15 
REMARK    1  A    between atoms: C_4  and  C_5 
REMARK    2  A    between atoms: C_5  and  C_6 
REMARK    3  A    between atoms: C_5  and  N_21 
REMARK    4  A    between atoms: C_6  and  C_7 
REMARK    5  A    between atoms: C_7  and  N_8 
REMARK    6  A    between atoms: N_8  and  C_34 
REMARK    7  A    between atoms: C_10  and  C_17 
REMARK    8  A    between atoms: C_10  and  N_24 
REMARK    9  A    between atoms: N_13  and  C_19 
REMARK       I    between atoms: N_14  and  C_15 
REMARK   10  A    between atoms: C_17  and  C_18 
REMARK   11  A    between atoms: C_18  and  C_19 
REMARK   12  A    between atoms: C_19  and  C_20 
REMARK       I    between atoms: C_20  and  N_21 
REMARK   13  A    between atoms: C_23  and  C_34 
REMARK   14  A    between atoms: C_29  and  O_30 
REMARK   15  A    between atoms: C_32  and  C_35 
REMARK   16  A    between atoms: C_34  and  C_35 
ROOT
HETATM    1  C           1     -19.798  -8.248  -5.128  0.00  0.00     0.187 C 
ENDROOT
BRANCH   1   2
HETATM    2  C           1     -18.608  -9.169  -5.249  0.00  0.00     0.196 C 
HETATM    3  O           1     -17.917  -9.434  -4.242  0.00  0.00    -0.646 OA
HETATM    4  O           1     -18.312  -9.665  -6.358  0.00  0.00    -0.646 OA
ENDBRANCH   1   2
BRANCH   1   5
HETATM    5  C           1     -21.081  -9.058  -5.255  0.00  0.00     0.066 C 
BRANCH   5   6
HETATM    6  C           1     -21.717  -9.222  -3.880  0.00  0.00     0.273 C 
BRANCH   6   7
HETATM    7  N           1     -21.249  -8.178  -3.007  0.00  0.00     0.098 N 
HETATM    8  H           1     -21.439  -7.270  -3.432  0.00  0.00     0.317 HD
BRANCH   7   9
HETATM    9  C           1     -21.969  -8.288  -1.769  0.00  0.00     0.324 C 
BRANCH   9  10
HETATM   10  C           1     -22.364  -6.911  -1.293  0.00  0.00     0.207 C 
HETATM   11  O           1     -22.711  -6.736  -0.105  0.00  0.00    -0.646 OA
HETATM   12  O           1     -22.344  -5.946  -2.088  0.00  0.00    -0.646 OA
ENDBRANCH   9  10
BRANCH   9  13
HETATM   13  C           1     -21.083  -8.952  -0.724  0.00  0.00     0.085 C 
BRANCH  13  14
HETATM   14  C           1     -21.736 -10.209  -0.241  0.00  0.00    -0.055 A 
HETATM   15  C           1     -20.981 -11.180   0.417  0.00  0.00     0.010 A 
HETATM   16  C           1     -21.590 -12.351   0.868  0.00  0.00     0.037 A 
HETATM   17  C           1     -22.955 -12.552   0.661  0.00  0.00     0.065 A 
HETATM   18  C           1     -23.711 -11.581   0.003  0.00  0.00     0.037 A 
HETATM   19  C           1     -23.101 -10.410  -0.448  0.00  0.00     0.010 A 
BRANCH  17  20
HETATM   20  O           1     -23.546 -13.689   1.098  0.00  0.00    -0.361 OA
HETATM   21  H           1     -24.416 -13.760   0.668  0.00  0.00     0.217 HD
ENDBRANCH  17  20
ENDBRANCH  13  14
ENDBRANCH   9  13
ENDBRANCH   7   9
ENDBRANCH   6   7
ENDBRANCH   5   6
ENDBRANCH   1   5
BRANCH   1  22
HETATM   22  N           1     -19.748  -7.255  -6.183  0.00  0.00    -0.345 N 
HETATM   23  C           1     -20.215  -5.988  -5.953  0.00  0.00     0.249 C 
HETATM   24  O           1     -20.669  -5.699  -4.872  0.00  0.00    -0.271 OA
HETATM   25  H           1     -19.368  -7.497  -7.089  0.00  0.00     0.163 HD
BRANCH  23  26
HETATM   26  C           1     -20.164  -4.954  -7.051  0.00  0.00     0.274 C 
BRANCH  26  27
HETATM   27  N           1     -18.756  -4.461  -7.206  0.00  0.00    -0.067 N 
HETATM   28  H           1     -18.665  -3.520  -6.760  0.00  0.00     0.275 HD
HETATM   29  H           1     -18.100  -5.130  -6.743  0.00  0.00     0.275 HD
HETATM   30  H           1     -18.522  -4.389  -8.222  0.00  0.00     0.275 HD
ENDBRANCH  26  27
BRANCH  26  31
HETATM   31  C           1     -20.629  -5.579  -8.360  0.00  0.00     0.044 C 
BRANCH  31  32
HETATM   32  C           1     -20.636  -4.520  -9.455  0.00  0.00     0.023 C 
BRANCH  32  33
HETATM   33  C           1     -21.673  -3.455  -9.124  0.00  0.00     0.138 C 
BRANCH  33  34
HETATM   34  N           1     -22.936  -3.768  -9.810  0.00  0.00    -0.227 N 
HETATM   35  C           1     -23.968  -4.056  -9.136  0.00  0.00     0.665 C 
HETATM   36  N           1     -23.912  -4.075  -7.838  0.00  0.00    -0.235 N 
HETATM   37  N           1     -25.055  -4.326  -9.727  0.00  0.00    -0.235 N 
HETATM   38  H           1     -24.764  -4.312  -7.282  0.00  0.00     0.174 HD
HETATM   39  H           1     -23.015  -3.852  -7.350  0.00  0.00     0.174 HD
HETATM   40  H           1     -25.910  -4.564  -9.169  0.00  0.00     0.174 HD
HETATM   41  H           1     -25.099  -4.311 -10.776  0.00  0.00     0.174 HD
HETATM   42  H           1     -22.980  -3.753 -10.860  0.00  0.00     0.177 HD
ENDBRANCH  33  34
ENDBRANCH  32  33
ENDBRANCH  31  32
ENDBRANCH  26  31
ENDBRANCH  23  26
ENDBRANCH   1  22
TORSDOF 16
ENDMDL
MODEL 5
REMARK VINA RESULT:      -7.0      1.734      2.297
REMARK  16 active torsions:
REMARK  status: ('A' for Active; 'I' for Inactive)
REMARK       I    between atoms: N_1  and  C_15 
REMARK    1  A    between atoms: C_4  and  C_5 
REMARK    2  A    between atoms: C_5  and  C_6 
REMARK    3  A    between atoms: C_5  and  N_21 
REMARK    4  A    between atoms: C_6  and  C_7 
REMARK    5  A    between atoms: C_7  and  N_8 
REMARK    6  A    between atoms: N_8  and  C_34 
REMARK    7  A    between atoms: C_10  and  C_17 
REMARK    8  A    between atoms: C_10  and  N_24 
REMARK    9  A    between atoms: N_13  and  C_19 
REMARK       I    between atoms: N_14  and  C_15 
REMARK   10  A    between atoms: C_17  and  C_18 
REMARK   11  A    between atoms: C_18  and  C_19 
REMARK   12  A    between atoms: C_19  and  C_20 
REMARK       I    between atoms: C_20  and  N_21 
REMARK   13  A    between atoms: C_23  and  C_34 
REMARK   14  A    between atoms: C_29  and  O_30 
REMARK   15  A    between atoms: C_32  and  C_35 
REMARK   16  A    between atoms: C_34  and  C_35 
ROOT
HETATM    1  C           1     -19.956  -8.149  -5.053  0.00  0.00     0.187 C 
ENDROOT
BRANCH   1   2
HETATM    2  C           1     -18.710  -8.974  -5.265  0.00  0.00     0.196 C 
HETATM    3  O           1     -18.208  -9.067  -6.406  0.00  0.00    -0.646 OA
HETATM    4  O           1     -18.181  -9.566  -4.299  0.00  0.00    -0.646 OA
ENDBRANCH   1   2
BRANCH   1   5
HETATM    5  C           1     -21.183  -9.045  -5.159  0.00  0.00     0.066 C 
BRANCH   5   6
HETATM    6  C           1     -21.743  -9.307  -3.767  0.00  0.00     0.273 C 
BRANCH   6   7
HETATM    7  N           1     -21.331  -8.254  -2.878  0.00  0.00     0.098 N 
HETATM    8  H           1     -21.606  -7.353  -3.268  0.00  0.00     0.317 HD
BRANCH   7   9
HETATM    9  C           1     -22.000  -8.456  -1.622  0.00  0.00     0.324 C 
BRANCH   9  10
HETATM   10  C           1     -22.395  -7.120  -1.042  0.00  0.00     0.207 C 
HETATM   11  O           1     -22.152  -6.069  -1.672  0.00  0.00    -0.646 OA
HETATM   12  O           1     -22.964  -7.065   0.070  0.00  0.00    -0.646 OA
ENDBRANCH   9  10
BRANCH   9  13
HETATM   13  C           1     -21.062  -9.172  -0.658  0.00  0.00     0.085 C 
BRANCH  13  14
HETATM   14  C           1     -21.721 -10.417  -0.153  0.00  0.00    -0.055 A 
HETATM   15  C           1     -23.081 -10.629  -0.379  0.00  0.00     0.010 A 
HETATM   16  C           1     -23.694 -11.789   0.090  0.00  0.00     0.037 A 
HETATM   17  C           1     -22.949 -12.739   0.788  0.00  0.00     0.065 A 
HETATM   18  C           1     -21.588 -12.528   1.015  0.00  0.00     0.037 A 
HETATM   19  C           1     -20.975 -11.367   0.545  0.00  0.00     0.010 A 
BRANCH  17  20
HETATM   20  O           1     -23.545 -13.866   1.246  0.00  0.00    -0.361 OA
HETATM   21  H           1     -24.260 -14.099   0.630  0.00  0.00     0.217 HD
ENDBRANCH  17  20
ENDBRANCH  13  14
ENDBRANCH   9  13
ENDBRANCH   7   9
ENDBRANCH   6   7
ENDBRANCH   5   6
ENDBRANCH   1   5
BRANCH   1  22
HETATM   22  N           1     -20.027  -7.114  -6.065  0.00  0.00    -0.345 N 
HETATM   23  C           1     -20.479  -5.863  -5.736  0.00  0.00     0.249 C 
HETATM   24  O           1     -20.820  -5.624  -4.602  0.00  0.00    -0.271 OA
HETATM   25  H           1     -19.741  -7.314  -7.015  0.00  0.00     0.163 HD
BRANCH  23  26
HETATM   26  C           1     -20.553  -4.786  -6.790  0.00  0.00     0.274 C 
BRANCH  26  27
HETATM   27  N           1     -19.184  -4.545  -7.354  0.00  0.00    -0.067 N 
HETATM   28  H           1     -19.134  -3.578  -7.747  0.00  0.00     0.275 HD
HETATM   29  H           1     -18.472  -4.649  -6.596  0.00  0.00     0.275 HD
HETATM   30  H           1     -18.992  -5.240  -8.110  0.00  0.00     0.275 HD
ENDBRANCH  26  27
BRANCH  26  31
HETATM   31  C           1     -21.489  -5.229  -7.906  0.00  0.00     0.044 C 
BRANCH  31  32
HETATM   32  C           1     -22.718  -4.329  -7.926  0.00  0.00     0.023 C 
BRANCH  32  33
HETATM   33  C           1     -23.134  -4.070  -9.368  0.00  0.00     0.138 C 
BRANCH  33  34
HETATM   34  N           1     -21.971  -3.608 -10.139  0.00  0.00    -0.227 N 
HETATM   35  C           1     -21.827  -3.966 -11.345  0.00  0.00     0.665 C 
HETATM   36  N           1     -22.709  -4.742 -11.901  0.00  0.00    -0.235 N 
HETATM   37  N           1     -20.826  -3.567 -12.009  0.00  0.00    -0.235 N 
HETATM   38  H           1     -22.591  -5.038 -12.896  0.00  0.00     0.174 HD
HETATM   39  H           1     -23.536  -5.071 -11.353  0.00  0.00     0.174 HD
HETATM   40  H           1     -20.707  -3.864 -13.008  0.00  0.00     0.174 HD
HETATM   41  H           1     -20.114  -2.941 -11.559  0.00  0.00     0.174 HD
HETATM   42  H           1     -21.259  -2.980  -9.689  0.00  0.00     0.177 HD
ENDBRANCH  33  34
ENDBRANCH  32  33
ENDBRANCH  31  32
ENDBRANCH  26  31
ENDBRANCH  23  26
ENDBRANCH   1  22
TORSDOF 16
ENDMDL
MODEL 6
REMARK VINA RESULT:      -6.8      2.888      8.852
REMARK  16 active torsions:
REMARK  status: ('A' for Active; 'I' for Inactive)
REMARK       I    between atoms: N_1  and  C_15 
REMARK    1  A    between atoms: C_4  and  C_5 
REMARK    2  A    between atoms: C_5  and  C_6 
REMARK    3  A    between atoms: C_5  and  N_21 
REMARK    4  A    between atoms: C_6  and  C_7 
REMARK    5  A    between atoms: C_7  and  N_8 
REMARK    6  A    between atoms: N_8  and  C_34 
REMARK    7  A    between atoms: C_10  and  C_17 
REMARK    8  A    between atoms: C_10  and  N_24 
REMARK    9  A    between atoms: N_13  and  C_19 
REMARK       I    between atoms: N_14  and  C_15 
REMARK   10  A    between atoms: C_17  and  C_18 
REMARK   11  A    between atoms: C_18  and  C_19 
REMARK   12  A    between atoms: C_19  and  C_20 
REMARK       I    between atoms: C_20  and  N_21 
REMARK   13  A    between atoms: C_23  and  C_34 
REMARK   14  A    between atoms: C_29  and  O_30 
REMARK   15  A    between atoms: C_32  and  C_35 
REMARK   16  A    between atoms: C_34  and  C_35 
ROOT
HETATM    1  C           1     -21.391  -7.681  -1.386  0.00  0.00     0.187 C 
ENDROOT
BRANCH   1   2
HETATM    2  C           1     -21.960  -8.087  -0.047  0.00  0.00     0.196 C 
HETATM    3  O           1     -23.174  -7.914   0.194  0.00  0.00    -0.646 OA
HETATM    4  O           1     -21.216  -8.595   0.819  0.00  0.00    -0.646 OA
ENDBRANCH   1   2
BRANCH   1   5
HETATM    5  C           1     -21.992  -6.348  -1.809  0.00  0.00     0.066 C 
BRANCH   5   6
HETATM    6  C           1     -22.180  -6.332  -3.321  0.00  0.00     0.273 C 
BRANCH   6   7
HETATM    7  N           1     -21.104  -5.597  -3.931  0.00  0.00     0.098 N 
HETATM    8  H           1     -20.216  -5.898  -3.528  0.00  0.00     0.317 HD
BRANCH   7   9
HETATM    9  C           1     -21.115  -5.891  -5.337  0.00  0.00     0.324 C 
BRANCH   9  10
HETATM   10  C           1     -20.663  -7.314  -5.557  0.00  0.00     0.207 C 
HETATM   11  O           1     -19.539  -7.682  -5.154  0.00  0.00    -0.646 OA
HETATM   12  O           1     -21.413  -8.124  -6.144  0.00  0.00    -0.646 OA
ENDBRANCH   9  10
BRANCH   9  13
HETATM   13  C           1     -20.172  -4.940  -6.062  0.00  0.00     0.085 C 
BRANCH  13  14
HETATM   14  C           1     -20.769  -4.549  -7.377  0.00  0.00    -0.055 A 
HETATM   15  C           1     -22.123  -4.225  -7.461  0.00  0.00     0.010 A 
HETATM   16  C           1     -22.679  -3.860  -8.686  0.00  0.00     0.037 A 
HETATM   17  C           1     -21.882  -3.821  -9.830  0.00  0.00     0.065 A 
HETATM   18  C           1     -20.527  -4.145  -9.747  0.00  0.00     0.037 A 
HETATM   19  C           1     -19.972  -4.510  -8.521  0.00  0.00     0.010 A 
BRANCH  17  20
HETATM   20  O           1     -22.422  -3.468 -11.021  0.00  0.00    -0.361 OA
HETATM   21  H           1     -22.919  -4.230 -11.364  0.00  0.00     0.217 HD
ENDBRANCH  17  20
ENDBRANCH  13  14
ENDBRANCH   9  13
ENDBRANCH   7   9
ENDBRANCH   6   7
ENDBRANCH   5   6
ENDBRANCH   1   5
BRANCH   1  22
HETATM   22  N           1     -21.715  -8.691  -2.373  0.00  0.00    -0.345 N 
HETATM   23  C           1     -20.800  -9.661  -2.687  0.00  0.00     0.249 C 
HETATM   24  O           1     -19.723  -9.674  -2.140  0.00  0.00    -0.271 OA
HETATM   25  H           1     -22.617  -8.680  -2.832  0.00  0.00     0.163 HD
BRANCH  23  26
HETATM   26  C           1     -21.137 -10.712  -3.716  0.00  0.00     0.274 C 
BRANCH  26  27
HETATM   27  N           1     -20.178 -11.859  -3.589  0.00  0.00    -0.067 N 
HETATM   28  H           1     -19.199 -11.494  -3.567  0.00  0.00     0.275 HD
HETATM   29  H           1     -20.375 -12.381  -2.705  0.00  0.00     0.275 HD
HETATM   30  H           1     -20.293 -12.500  -4.406  0.00  0.00     0.275 HD
ENDBRANCH  26  27
BRANCH  26  31
HETATM   31  C           1     -22.557 -11.211  -3.486  0.00  0.00     0.044 C 
BRANCH  31  32
HETATM   32  C           1     -22.530 -12.706  -3.191  0.00  0.00     0.023 C 
BRANCH  32  33
HETATM   33  C           1     -23.085 -12.958  -1.795  0.00  0.00     0.138 C 
BRANCH  33  34
HETATM   34  N           1     -22.027 -12.737  -0.798  0.00  0.00    -0.227 N 
HETATM   35  C           1     -22.154 -11.823   0.068  0.00  0.00     0.665 C 
HETATM   36  N           1     -23.220 -11.079   0.077  0.00  0.00    -0.235 N 
HETATM   37  N           1     -21.243 -11.633   0.927  0.00  0.00    -0.235 N 
HETATM   38  H           1     -23.326 -10.325   0.791  0.00  0.00     0.174 HD
HETATM   39  H           1     -23.972 -11.235  -0.632  0.00  0.00     0.174 HD
HETATM   40  H           1     -21.349 -10.876   1.645  0.00  0.00     0.174 HD
HETATM   41  H           1     -20.383 -12.234   0.919  0.00  0.00     0.174 HD
HETATM   42  H           1     -21.166 -13.339  -0.805  0.00  0.00     0.177 HD
ENDBRANCH  33  34
ENDBRANCH  32  33
ENDBRANCH  31  32
ENDBRANCH  26  31
ENDBRANCH  23  26
ENDBRANCH   1  22
TORSDOF 16
ENDMDL
MODEL 7
REMARK VINA RESULT:      -6.8      1.478      3.507
REMARK  16 active torsions:
REMARK  status: ('A' for Active; 'I' for Inactive)
REMARK       I    between atoms: N_1  and  C_15 
REMARK    1  A    between atoms: C_4  and  C_5 
REMARK    2  A    between atoms: C_5  and  C_6 
REMARK    3  A    between atoms: C_5  and  N_21 
REMARK    4  A    between atoms: C_6  and  C_7 
REMARK    5  A    between atoms: C_7  and  N_8 
REMARK    6  A    between atoms: N_8  and  C_34 
REMARK    7  A    between atoms: C_10  and  C_17 
REMARK    8  A    between atoms: C_10  and  N_24 
REMARK    9  A    between atoms: N_13  and  C_19 
REMARK       I    between atoms: N_14  and  C_15 
REMARK   10  A    between atoms: C_17  and  C_18 
REMARK   11  A    between atoms: C_18  and  C_19 
REMARK   12  A    between atoms: C_19  and  C_20 
REMARK       I    between atoms: C_20  and  N_21 
REMARK   13  A    between atoms: C_23  and  C_34 
REMARK   14  A    between atoms: C_29  and  O_30 
REMARK   15  A    between atoms: C_32  and  C_35 
REMARK   16  A    between atoms: C_34  and  C_35 
ROOT
HETATM    1  C           1     -21.229  -7.653  -2.779  0.00  0.00     0.187 C 
ENDROOT
BRANCH   1   2
HETATM    2  C           1     -21.988  -6.992  -1.653  0.00  0.00     0.196 C 
HETATM    3  O           1     -21.973  -7.497  -0.509  0.00  0.00    -0.646 OA
HETATM    4  O           1     -22.632  -5.943  -1.865  0.00  0.00    -0.646 OA
ENDBRANCH   1   2
BRANCH   1   5
HETATM    5  C           1     -20.007  -8.366  -2.218  0.00  0.00     0.066 C 
BRANCH   5   6
HETATM    6  C           1     -20.058  -9.840  -2.602  0.00  0.00     0.273 C 
BRANCH   6   7
HETATM    7  N           1     -20.593  -9.971  -3.931  0.00  0.00     0.098 N 
HETATM    8  H           1     -19.828  -9.992  -4.605  0.00  0.00     0.317 HD
BRANCH   7   9
HETATM    9  C           1     -21.318 -11.211  -3.990  0.00  0.00     0.324 C 
BRANCH   9  10
HETATM   10  C           1     -21.296 -11.739  -5.404  0.00  0.00     0.207 C 
HETATM   11  O           1     -21.196 -10.948  -6.365  0.00  0.00    -0.646 OA
HETATM   12  O           1     -21.378 -12.969  -5.611  0.00  0.00    -0.646 OA
ENDBRANCH   9  10
BRANCH   9  13
HETATM   13  C           1     -22.759 -10.977  -3.557  0.00  0.00     0.085 C 
BRANCH  13  14
HETATM   14  C           1     -22.981 -11.588  -2.209  0.00  0.00    -0.055 A 
HETATM   15  C           1     -22.706 -12.940  -2.001  0.00  0.00     0.010 A 
HETATM   16  C           1     -22.912 -13.509  -0.745  0.00  0.00     0.037 A 
HETATM   17  C           1     -23.394 -12.727   0.305  0.00  0.00     0.065 A 
HETATM   18  C           1     -23.669 -11.375   0.098  0.00  0.00     0.037 A 
HETATM   19  C           1     -23.463 -10.806  -1.159  0.00  0.00     0.010 A 
BRANCH  17  20
HETATM   20  O           1     -23.595 -13.280   1.525  0.00  0.00    -0.361 OA
HETATM   21  H           1     -23.118 -14.127   1.553  0.00  0.00     0.217 HD
ENDBRANCH  17  20
ENDBRANCH  13  14
ENDBRANCH   9  13
ENDBRANCH   7   9
ENDBRANCH   6   7
ENDBRANCH   5   6
ENDBRANCH   1   5
BRANCH   1  22
HETATM   22  N           1     -20.804  -6.644  -3.729  0.00  0.00    -0.345 N 
HETATM   23  C           1     -21.180  -6.740  -5.043  0.00  0.00     0.249 C 
HETATM   24  O           1     -21.866  -7.664  -5.409  0.00  0.00    -0.271 OA
HETATM   25  H           1     -20.230  -5.870  -3.423  0.00  0.00     0.163 HD
BRANCH  23  26
HETATM   26  C           1     -20.738  -5.690  -6.033  0.00  0.00     0.274 C 
BRANCH  26  27
HETATM   27  N           1     -19.973  -6.345  -7.145  0.00  0.00    -0.067 N 
HETATM   28  H           1     -19.926  -5.697  -7.964  0.00  0.00     0.275 HD
HETATM   29  H           1     -19.005  -6.565  -6.820  0.00  0.00     0.275 HD
HETATM   30  H           1     -20.456  -7.227  -7.427  0.00  0.00     0.275 HD
ENDBRANCH  26  27
BRANCH  26  31
HETATM   31  C           1     -21.960  -4.984  -6.606  0.00  0.00     0.044 C 
BRANCH  31  32
HETATM   32  C           1     -21.512  -3.824  -7.485  0.00  0.00     0.023 C 
BRANCH  32  33
HETATM   33  C           1     -22.162  -3.947  -8.857  0.00  0.00     0.138 C 
BRANCH  33  34
HETATM   34  N           1     -23.586  -3.594  -8.759  0.00  0.00    -0.227 N 
HETATM   35  C           1     -24.367  -3.839  -9.724  0.00  0.00     0.665 C 
HETATM   36  N           1     -23.911  -4.402 -10.803  0.00  0.00    -0.235 N 
HETATM   37  N           1     -25.593  -3.535  -9.639  0.00  0.00    -0.235 N 
HETATM   38  H           1     -24.555  -4.605 -11.600  0.00  0.00     0.174 HD
HETATM   39  H           1     -22.899  -4.653 -10.873  0.00  0.00     0.174 HD
HETATM   40  H           1     -26.241  -3.738 -10.440  0.00  0.00     0.174 HD
HETATM   41  H           1     -25.961  -3.079  -8.768  0.00  0.00     0.174 HD
HETATM   42  H           1     -23.954  -3.138  -7.887  0.00  0.00     0.177 HD
ENDBRANCH  33  34
ENDBRANCH  32  33
ENDBRANCH  31  32
ENDBRANCH  26  31
ENDBRANCH  23  26
ENDBRANCH   1  22
TORSDOF 16
ENDMDL
MODEL 8
REMARK VINA RESULT:      -6.6      3.960      9.241
REMARK  16 active torsions:
REMARK  status: ('A' for Active; 'I' for Inactive)
REMARK       I    between atoms: N_1  and  C_15 
REMARK    1  A    between atoms: C_4  and  C_5 
REMARK    2  A    between atoms: C_5  and  C_6 
REMARK    3  A    between atoms: C_5  and  N_21 
REMARK    4  A    between atoms: C_6  and  C_7 
REMARK    5  A    between atoms: C_7  and  N_8 
REMARK    6  A    between atoms: N_8  and  C_34 
REMARK    7  A    between atoms: C_10  and  C_17 
REMARK    8  A    between atoms: C_10  and  N_24 
REMARK    9  A    between atoms: N_13  and  C_19 
REMARK       I    between atoms: N_14  and  C_15 
REMARK   10  A    between atoms: C_17  and  C_18 
REMARK   11  A    between atoms: C_18  and  C_19 
REMARK   12  A    between atoms: C_19  and  C_20 
REMARK       I    between atoms: C_20  and  N_21 
REMARK   13  A    between atoms: C_23  and  C_34 
REMARK   14  A    between atoms: C_29  and  O_30 
REMARK   15  A    between atoms: C_32  and  C_35 
REMARK   16  A    between atoms: C_34  and  C_35 
ROOT
HETATM    1  C           1     -20.810  -7.717  -2.951  0.00  0.00     0.187 C 
ENDROOT
BRANCH   1   2
HETATM    2  C           1     -21.519  -8.592  -1.945  0.00  0.00     0.196 C 
HETATM    3  O           1     -21.645  -8.208  -0.762  0.00  0.00    -0.646 OA
HETATM    4  O           1     -21.978  -9.701  -2.295  0.00  0.00    -0.646 OA
ENDBRANCH   1   2
BRANCH   1   5
HETATM    5  C           1     -21.767  -6.645  -3.455  0.00  0.00     0.066 C 
BRANCH   5   6
HETATM    6  C           1     -21.912  -6.764  -4.967  0.00  0.00     0.273 C 
BRANCH   6   7
HETATM    7  N           1     -22.188  -5.467  -5.526  0.00  0.00     0.098 N 
HETATM    8  H           1     -21.811  -4.746  -4.911  0.00  0.00     0.317 HD
BRANCH   7   9
HETATM    9  C           1     -21.537  -5.395  -6.805  0.00  0.00     0.324 C 
BRANCH   9  10
HETATM   10  C           1     -20.048  -5.558  -6.621  0.00  0.00     0.207 C 
HETATM   11  O           1     -19.467  -6.562  -7.086  0.00  0.00    -0.646 OA
HETATM   12  O           1     -19.396  -4.688  -6.003  0.00  0.00    -0.646 OA
ENDBRANCH   9  10
BRANCH   9  13
HETATM   13  C           1     -21.826  -4.043  -7.444  0.00  0.00     0.085 C 
BRANCH  13  14
HETATM   14  C           1     -22.293  -4.245  -8.851  0.00  0.00    -0.055 A 
HETATM   15  C           1     -21.372  -4.246  -9.899  0.00  0.00     0.010 A 
HETATM   16  C           1     -21.807  -4.436 -11.210  0.00  0.00     0.037 A 
HETATM   17  C           1     -23.164  -4.624 -11.475  0.00  0.00     0.065 A 
HETATM   18  C           1     -24.085  -4.623 -10.428  0.00  0.00     0.037 A 
HETATM   19  C           1     -23.649  -4.433  -9.116  0.00  0.00     0.010 A 
BRANCH  17  20
HETATM   20  O           1     -23.587  -4.807 -12.749  0.00  0.00    -0.361 OA
HETATM   21  H           1     -24.490  -4.454 -12.820  0.00  0.00     0.217 HD
ENDBRANCH  17  20
ENDBRANCH  13  14
ENDBRANCH   9  13
ENDBRANCH   7   9
ENDBRANCH   6   7
ENDBRANCH   5   6
ENDBRANCH   1   5
BRANCH   1  22
HETATM   22  N           1     -20.366  -8.529  -4.066  0.00  0.00    -0.345 N 
HETATM   23  C           1     -19.144  -9.148  -4.019  0.00  0.00     0.249 C 
HETATM   24  O           1     -18.438  -9.016  -3.048  0.00  0.00    -0.271 OA
HETATM   25  H           1     -20.957  -8.640  -4.880  0.00  0.00     0.163 HD
BRANCH  23  26
HETATM   26  C           1     -18.681  -9.993  -5.180  0.00  0.00     0.274 C 
BRANCH  26  27
HETATM   27  N           1     -18.329  -9.104  -6.336  0.00  0.00    -0.067 N 
HETATM   28  H           1     -17.682  -8.350  -6.011  0.00  0.00     0.275 HD
HETATM   29  H           1     -17.860  -9.668  -7.079  0.00  0.00     0.275 HD
HETATM   30  H           1     -19.199  -8.673  -6.721  0.00  0.00     0.275 HD
ENDBRANCH  26  27
BRANCH  26  31
HETATM   31  C           1     -17.455 -10.796  -4.768  0.00  0.00     0.044 C 
BRANCH  31  32
HETATM   32  C           1     -16.332 -10.563  -5.770  0.00  0.00     0.023 C 
BRANCH  32  33
HETATM   33  C           1     -15.042 -11.173  -5.239  0.00  0.00     0.138 C 
BRANCH  33  34
HETATM   34  N           1     -15.116 -12.638  -5.332  0.00  0.00    -0.227 N 
HETATM   35  C           1     -14.244 -13.276  -5.992  0.00  0.00     0.665 C 
HETATM   36  N           1     -13.282 -12.635  -6.587  0.00  0.00    -0.235 N 
HETATM   37  N           1     -14.308 -14.538  -6.071  0.00  0.00    -0.235 N 
HETATM   38  H           1     -12.563 -13.160  -7.131  0.00  0.00     0.174 HD
HETATM   39  H           1     -13.230 -11.593  -6.521  0.00  0.00     0.174 HD
HETATM   40  H           1     -13.585 -15.066  -6.618  0.00  0.00     0.174 HD
HETATM   41  H           1     -15.085 -15.055  -5.591  0.00  0.00     0.174 HD
HETATM   42  H           1     -15.893 -13.156  -4.850  0.00  0.00     0.177 HD
ENDBRANCH  33  34
ENDBRANCH  32  33
ENDBRANCH  31  32
ENDBRANCH  26  31
ENDBRANCH  23  26
ENDBRANCH   1  22
TORSDOF 16
ENDMDL
MODEL 9
REMARK VINA RESULT:      -6.6      2.212      3.392
REMARK  16 active torsions:
REMARK  status: ('A' for Active; 'I' for Inactive)
REMARK       I    between atoms: N_1  and  C_15 
REMARK    1  A    between atoms: C_4  and  C_5 
REMARK    2  A    between atoms: C_5  and  C_6 
REMARK    3  A    between atoms: C_5  and  N_21 
REMARK    4  A    between atoms: C_6  and  C_7 
REMARK    5  A    between atoms: C_7  and  N_8 
REMARK    6  A    between atoms: N_8  and  C_34 
REMARK    7  A    between atoms: C_10  and  C_17 
REMARK    8  A    between atoms: C_10  and  N_24 
REMARK    9  A    between atoms: N_13  and  C_19 
REMARK       I    between atoms: N_14  and  C_15 
REMARK   10  A    between atoms: C_17  and  C_18 
REMARK   11  A    between atoms: C_18  and  C_19 
REMARK   12  A    between atoms: C_19  and  C_20 
REMARK       I    between atoms: C_20  and  N_21 
REMARK   13  A    between atoms: C_23  and  C_34 
REMARK   14  A    between atoms: C_29  and  O_30 
REMARK   15  A    between atoms: C_32  and  C_35 
REMARK   16  A    between atoms: C_34  and  C_35 
ROOT
HETATM    1  C           1     -19.696  -9.405  -4.339  0.00  0.00     0.187 C 
ENDROOT
BRANCH   1   2
HETATM    2  C           1     -20.431 -10.544  -5.003  0.00  0.00     0.196 C 
HETATM    3  O           1     -20.030 -10.992  -6.099  0.00  0.00    -0.646 OA
HETATM    4  O           1     -21.441 -11.038  -4.458  0.00  0.00    -0.646 OA
ENDBRANCH   1   2
BRANCH   1   5
HETATM    5  C           1     -19.372  -9.780  -2.900  0.00  0.00     0.066 C 
BRANCH   5   6
HETATM    6  C           1     -18.718 -11.156  -2.868  0.00  0.00     0.273 C 
BRANCH   6   7
HETATM    7  N           1     -19.481 -12.030  -2.017  0.00  0.00     0.098 N 
HETATM    8  H           1     -19.225 -12.999  -2.211  0.00  0.00     0.317 HD
BRANCH   7   9
HETATM    9  C           1     -19.151 -11.711  -0.655  0.00  0.00     0.324 C 
BRANCH   9  10
HETATM   10  C           1     -17.955 -12.524  -0.223  0.00  0.00     0.207 C 
HETATM   11  O           1     -16.956 -11.954   0.265  0.00  0.00    -0.646 OA
HETATM   12  O           1     -17.964 -13.767  -0.356  0.00  0.00    -0.646 OA
ENDBRANCH   9  10
BRANCH   9  13
HETATM   13  C           1     -20.338 -12.037   0.242  0.00  0.00     0.085 C 
BRANCH  13  14
HETATM   14  C           1     -21.259 -10.859   0.300  0.00  0.00    -0.055 A 
HETATM   15  C           1     -22.572 -10.975  -0.157  0.00  0.00     0.010 A 
HETATM   16  C           1     -23.430  -9.878  -0.101  0.00  0.00     0.037 A 
HETATM   17  C           1     -22.976  -8.662   0.410  0.00  0.00     0.065 A 
HETATM   18  C           1     -21.663  -8.545   0.867  0.00  0.00     0.037 A 
HETATM   19  C           1     -20.805  -9.643   0.811  0.00  0.00     0.010 A 
BRANCH  17  20
HETATM   20  O           1     -23.809  -7.595   0.462  0.00  0.00    -0.361 OA
HETATM   21  H           1     -23.433  -6.893  -0.095  0.00  0.00     0.217 HD
ENDBRANCH  17  20
ENDBRANCH  13  14
ENDBRANCH   9  13
ENDBRANCH   7   9
ENDBRANCH   6   7
ENDBRANCH   5   6
ENDBRANCH   1   5
BRANCH   1  22
HETATM   22  N           1     -20.531  -8.220  -4.352  0.00  0.00    -0.345 N 
HETATM   23  C           1     -20.387  -7.291  -5.348  0.00  0.00     0.249 C 
HETATM   24  O           1     -19.563  -7.459  -6.215  0.00  0.00    -0.271 OA
HETATM   25  H           1     -21.222  -8.079  -3.626  0.00  0.00     0.163 HD
BRANCH  23  26
HETATM   26  C           1     -21.257  -6.057  -5.361  0.00  0.00     0.274 C 
BRANCH  26  27
HETATM   27  N           1     -22.019  -5.970  -4.072  0.00  0.00    -0.067 N 
HETATM   28  H           1     -22.144  -6.930  -3.676  0.00  0.00     0.275 HD
HETATM   29  H           1     -21.487  -5.381  -3.393  0.00  0.00     0.275 HD
HETATM   30  H           1     -22.955  -5.542  -4.250  0.00  0.00     0.275 HD
ENDBRANCH  26  27
BRANCH  26  31
HETATM   31  C           1     -20.382  -4.821  -5.517  0.00  0.00     0.044 C 
BRANCH  31  32
HETATM   32  C           1     -20.706  -4.131  -6.836  0.00  0.00     0.023 C 
BRANCH  32  33
HETATM   33  C           1     -21.945  -4.770  -7.452  0.00  0.00     0.138 C 
BRANCH  33  34
HETATM   34  N           1     -22.034  -4.399  -8.872  0.00  0.00    -0.227 N 
HETATM   35  C           1     -23.106  -3.908  -9.332  0.00  0.00     0.665 C 
HETATM   36  N           1     -24.129  -3.732  -8.549  0.00  0.00    -0.235 N 
HETATM   37  N           1     -23.182  -3.589 -10.555  0.00  0.00    -0.235 N 
HETATM   38  H           1     -25.013  -3.327  -8.929  0.00  0.00     0.174 HD
HETATM   39  H           1     -24.066  -3.996  -7.540  0.00  0.00     0.174 HD
HETATM   40  H           1     -24.071  -3.182 -10.936  0.00  0.00     0.174 HD
HETATM   41  H           1     -22.357  -3.732 -11.187  0.00  0.00     0.174 HD
HETATM   42  H           1     -21.207  -4.541  -9.504  0.00  0.00     0.177 HD
ENDBRANCH  33  34
ENDBRANCH  32  33
ENDBRANCH  31  32
ENDBRANCH  26  31
ENDBRANCH  23  26
ENDBRANCH   1  22
TORSDOF 16
ENDMDL
