MODEL 1
REMARK VINA RESULT:      -5.3      0.000      0.000
REMARK  6 active torsions:
REMARK  status: ('A' for Active; 'I' for Inactive)
REMARK    1  A    between atoms: C_7  and  C_8 
REMARK       I    between atoms: C_8  and  N_9 
REMARK    2  A    between atoms: N_9  and  C_13 
REMARK    3  A    between atoms: C_12  and  C_13 
REMARK    4  A    between atoms: C_13  and  C_15 
REMARK    5  A    between atoms: C_15  and  C_16 
REMARK    6  A    between atoms: C_16  and  S_17 
ROOT
HETATM    1  O           1     -20.994  -6.685  -7.171  0.00  0.00    -0.271 OA
HETATM    2  C           1     -20.698  -5.729  -6.494  0.00  0.00     0.249 C 
HETATM    3  N           1     -20.806  -5.796  -5.131  0.00  0.00    -0.345 N 
HETATM    4  H           1     -20.558  -4.996  -4.564  0.00  0.00     0.163 HD
ENDROOT
BRANCH   2   5
HETATM    5  C           1     -20.210  -4.461  -7.151  0.00  0.00     0.274 C 
HETATM    6  N           1     -19.811  -4.755  -8.567  0.00  0.00    -0.067 N 
HETATM    7  H           1     -19.473  -3.877  -9.023  0.00  0.00     0.275 HD
HETATM    8  H           1     -19.047  -5.467  -8.573  0.00  0.00     0.275 HD
HETATM    9  H           1     -20.636  -5.124  -9.091  0.00  0.00     0.275 HD
HETATM   10 Se           1     -22.008  -4.340  -9.748  0.00  0.00     0.000 Se
HETATM   11  C           1     -23.774  -4.964 -10.287  0.00  0.00     0.000 C 
HETATM   12  C           1     -22.525  -3.959  -7.907  0.00  0.00     0.003 C 
HETATM   13  C           1     -21.324  -3.422  -7.142  0.00  0.00     0.042 C 
ENDBRANCH   2   5
BRANCH   3  14
HETATM   14  C           1     -21.275  -7.015  -4.500  0.00  0.00     0.186 C 
BRANCH  14  15
HETATM   15  C           1     -21.597  -6.738  -3.051  0.00  0.00     0.196 C 
HETATM   16  O           1     -20.952  -7.312  -2.147  0.00  0.00    -0.646 OA
HETATM   17  O           1     -22.508  -5.935  -2.757  0.00  0.00    -0.646 OA
ENDBRANCH  14  15
BRANCH  14  18
HETATM   18  C           1     -20.189  -8.079  -4.585  0.00  0.00     0.046 C 
BRANCH  18  19
HETATM   19  C           1     -20.806  -9.400  -5.027  0.00  0.00     0.076 C 
BRANCH  19  20
HETATM   20  S           1     -20.623 -10.627  -3.703  0.00  0.00    -0.173 SA
HETATM   21  C           1     -22.394 -10.796  -3.342  0.00  0.00     0.089 C 
ENDBRANCH  19  20
ENDBRANCH  18  19
ENDBRANCH  14  18
ENDBRANCH   3  14
TORSDOF 6
ENDMDL
MODEL 2
REMARK VINA RESULT:      -4.9      1.715      2.168
REMARK  6 active torsions:
REMARK  status: ('A' for Active; 'I' for Inactive)
REMARK    1  A    between atoms: C_7  and  C_8 
REMARK       I    between atoms: C_8  and  N_9 
REMARK    2  A    between atoms: N_9  and  C_13 
REMARK    3  A    between atoms: C_12  and  C_13 
REMARK    4  A    between atoms: C_13  and  C_15 
REMARK    5  A    between atoms: C_15  and  C_16 
REMARK    6  A    between atoms: C_16  and  S_17 
ROOT
HETATM    1  O           1     -21.519  -7.545  -6.130  0.00  0.00    -0.271 OA
HETATM    2  C           1     -20.717  -6.868  -5.531  0.00  0.00     0.249 C 
HETATM    3  N           1     -20.697  -6.880  -4.162  0.00  0.00    -0.345 N 
HETATM    4  H           1     -20.025  -6.313  -3.661  0.00  0.00     0.163 HD
ENDROOT
BRANCH   2   5
HETATM    5  C           1     -19.739  -6.007  -6.293  0.00  0.00     0.274 C 
HETATM    6  N           1     -19.841  -6.312  -7.758  0.00  0.00    -0.067 N 
HETATM    7  H           1     -19.165  -5.716  -8.286  0.00  0.00     0.275 HD
HETATM    8  H           1     -19.618  -7.320  -7.920  0.00  0.00     0.275 HD
HETATM    9  H           1     -20.813  -6.113  -8.087  0.00  0.00     0.275 HD
HETATM   10 Se           1     -21.612  -4.642  -8.443  0.00  0.00     0.000 Se
HETATM   11  C           1     -23.490  -4.141  -8.582  0.00  0.00     0.000 C 
HETATM   12  C           1     -21.478  -4.246  -6.539  0.00  0.00     0.003 C 
HETATM   13  C           1     -20.064  -4.538  -6.056  0.00  0.00     0.042 C 
ENDBRANCH   2   5
BRANCH   3  14
HETATM   14  C           1     -21.636  -7.708  -3.430  0.00  0.00     0.186 C 
BRANCH  14  15
HETATM   15  C           1     -22.048  -6.999  -2.163  0.00  0.00     0.196 C 
HETATM   16  O           1     -22.190  -7.648  -1.103  0.00  0.00    -0.646 OA
HETATM   17  O           1     -22.245  -5.766  -2.173  0.00  0.00    -0.646 OA
ENDBRANCH  14  15
BRANCH  14  18
HETATM   18  C           1     -20.976  -9.035  -3.080  0.00  0.00     0.046 C 
BRANCH  18  19
HETATM   19  C           1     -19.515  -8.797  -2.724  0.00  0.00     0.076 C 
BRANCH  19  20
HETATM   20  S           1     -18.458  -9.832  -3.775  0.00  0.00    -0.173 SA
HETATM   21  C           1     -16.912  -9.513  -2.880  0.00  0.00     0.089 C 
ENDBRANCH  19  20
ENDBRANCH  18  19
ENDBRANCH  14  18
ENDBRANCH   3  14
TORSDOF 6
ENDMDL
MODEL 3
REMARK VINA RESULT:      -4.8      2.722      6.068
REMARK  6 active torsions:
REMARK  status: ('A' for Active; 'I' for Inactive)
REMARK    1  A    between atoms: C_7  and  C_8 
REMARK       I    between atoms: C_8  and  N_9 
REMARK    2  A    between atoms: N_9  and  C_13 
REMARK    3  A    between atoms: C_12  and  C_13 
REMARK    4  A    between atoms: C_13  and  C_15 
REMARK    5  A    between atoms: C_15  and  C_16 
REMARK    6  A    between atoms: C_16  and  S_17 
ROOT
HETATM    1  O           1     -19.410  -8.303  -5.605  0.00  0.00    -0.271 OA
HETATM    2  C           1     -20.250  -9.016  -5.111  0.00  0.00     0.249 C 
HETATM    3  N           1     -21.245  -8.472  -4.343  0.00  0.00    -0.345 N 
HETATM    4  H           1     -21.949  -9.069  -3.929  0.00  0.00     0.163 HD
ENDROOT
BRANCH   2   5
HETATM    5  C           1     -20.203 -10.507  -5.338  0.00  0.00     0.274 C 
HETATM    6  N           1     -19.032 -10.841  -6.214  0.00  0.00    -0.067 N 
HETATM    7  H           1     -18.998 -11.873  -6.372  0.00  0.00     0.275 HD
HETATM    8  H           1     -19.133 -10.352  -7.132  0.00  0.00     0.275 HD
HETATM    9  H           1     -18.150 -10.531  -5.748  0.00  0.00     0.275 HD
HETATM   10 Se           1     -17.248 -11.205  -4.461  0.00  0.00     0.000 Se
HETATM   11  C           1     -15.917 -10.478  -3.236  0.00  0.00     0.000 C 
HETATM   12  C           1     -18.770 -10.771  -3.323  0.00  0.00     0.003 C 
HETATM   13  C           1     -20.056 -11.221  -4.001  0.00  0.00     0.042 C 
ENDBRANCH   2   5
BRANCH   3  14
HETATM   14  C           1     -21.291  -7.039  -4.125  0.00  0.00     0.186 C 
BRANCH  14  15
HETATM   15  C           1     -21.573  -6.762  -2.669  0.00  0.00     0.196 C 
HETATM   16  O           1     -20.966  -7.402  -1.782  0.00  0.00    -0.646 OA
HETATM   17  O           1     -22.413  -5.894  -2.349  0.00  0.00    -0.646 OA
ENDBRANCH  14  15
BRANCH  14  18
HETATM   18  C           1     -22.394  -6.431  -4.981  0.00  0.00     0.046 C 
BRANCH  18  19
HETATM   19  C           1     -21.774  -5.693  -6.160  0.00  0.00     0.076 C 
BRANCH  19  20
HETATM   20  S           1     -20.290  -4.807  -5.607  0.00  0.00    -0.173 SA
HETATM   21  C           1     -19.431  -4.841  -7.206  0.00  0.00     0.089 C 
ENDBRANCH  19  20
ENDBRANCH  18  19
ENDBRANCH  14  18
ENDBRANCH   3  14
TORSDOF 6
ENDMDL
MODEL 4
REMARK VINA RESULT:      -4.8      3.769      6.669
REMARK  6 active torsions:
REMARK  status: ('A' for Active; 'I' for Inactive)
REMARK    1  A    between atoms: C_7  and  C_8 
REMARK       I    between atoms: C_8  and  N_9 
REMARK    2  A    between atoms: N_9  and  C_13 
REMARK    3  A    between atoms: C_12  and  C_13 
REMARK    4  A    between atoms: C_13  and  C_15 
REMARK    5  A    between atoms: C_15  and  C_16 
REMARK    6  A    between atoms: C_16  and  S_17 
ROOT
HETATM    1  O           1     -19.831  -8.059  -1.388  0.00  0.00    -0.271 OA
HETATM    2  C           1     -21.016  -7.859  -1.264  0.00  0.00     0.249 C 
HETATM    3  N           1     -21.786  -7.602  -2.366  0.00  0.00    -0.345 N 
HETATM    4  H           1     -22.779  -7.435  -2.263  0.00  0.00     0.163 HD
ENDROOT
BRANCH   2   5
HETATM    5  C           1     -21.647  -7.892   0.106  0.00  0.00     0.274 C 
HETATM    6  N           1     -23.140  -7.878  -0.032  0.00  0.00    -0.067 N 
HETATM    7  H           1     -23.578  -7.901   0.917  0.00  0.00     0.275 HD
HETATM    8  H           1     -23.436  -7.009  -0.531  0.00  0.00     0.275 HD
HETATM    9  H           1     -23.446  -8.715  -0.576  0.00  0.00     0.275 HD
HETATM   10 Se           1     -23.604 -10.361  -0.137  0.00  0.00     0.000 Se
HETATM   11  C           1     -23.687 -12.016  -1.162  0.00  0.00     0.000 C 
HETATM   12  C           1     -21.663 -10.378   0.042  0.00  0.00     0.003 C 
HETATM   13  C           1     -21.215  -9.158   0.835  0.00  0.00     0.042 C 
ENDBRANCH   2   5
BRANCH   3  14
HETATM   14  C           1     -21.180  -7.571  -3.684  0.00  0.00     0.186 C 
BRANCH  14  15
HETATM   15  C           1     -21.644  -6.339  -4.421  0.00  0.00     0.196 C 
HETATM   16  O           1     -20.822  -5.450  -4.731  0.00  0.00    -0.646 OA
HETATM   17  O           1     -22.850  -6.209  -4.722  0.00  0.00    -0.646 OA
ENDBRANCH  14  15
BRANCH  14  18
HETATM   18  C           1     -21.592  -8.815  -4.460  0.00  0.00     0.046 C 
BRANCH  18  19
HETATM   19  C           1     -20.473  -9.846  -4.400  0.00  0.00     0.076 C 
BRANCH  19  20
HETATM   20  S           1     -18.958  -9.138  -5.106  0.00  0.00    -0.173 SA
HETATM   21  C           1     -17.849  -9.669  -3.771  0.00  0.00     0.089 C 
ENDBRANCH  19  20
ENDBRANCH  18  19
ENDBRANCH  14  18
ENDBRANCH   3  14
TORSDOF 6
ENDMDL
MODEL 5
REMARK VINA RESULT:      -4.8      4.378      5.854
REMARK  6 active torsions:
REMARK  status: ('A' for Active; 'I' for Inactive)
REMARK    1  A    between atoms: C_7  and  C_8 
REMARK       I    between atoms: C_8  and  N_9 
REMARK    2  A    between atoms: N_9  and  C_13 
REMARK    3  A    between atoms: C_12  and  C_13 
REMARK    4  A    between atoms: C_13  and  C_15 
REMARK    5  A    between atoms: C_15  and  C_16 
REMARK    6  A    between atoms: C_16  and  S_17 
ROOT
HETATM    1  O           1     -22.104 -10.218  -3.913  0.00  0.00    -0.271 OA
HETATM    2  C           1     -21.126  -9.612  -4.283  0.00  0.00     0.249 C 
HETATM    3  N           1     -20.763  -8.450  -3.656  0.00  0.00    -0.345 N 
HETATM    4  H           1     -19.944  -7.943  -3.966  0.00  0.00     0.163 HD
ENDROOT
BRANCH   2   5
HETATM    5  C           1     -20.305 -10.136  -5.436  0.00  0.00     0.274 C 
HETATM    6  N           1     -19.192  -9.176  -5.732  0.00  0.00    -0.067 N 
HETATM    7  H           1     -18.623  -9.539  -6.530  0.00  0.00     0.275 HD
HETATM    8  H           1     -19.592  -8.245  -5.985  0.00  0.00     0.275 HD
HETATM    9  H           1     -18.584  -9.078  -4.888  0.00  0.00     0.275 HD
HETATM   10 Se           1     -17.386 -10.103  -4.224  0.00  0.00     0.000 Se
HETATM   11  C           1     -16.576 -10.245  -2.457  0.00  0.00     0.000 C 
HETATM   12  C           1     -18.834 -11.350  -3.840  0.00  0.00     0.003 C 
HETATM   13  C           1     -19.721 -11.494  -5.069  0.00  0.00     0.042 C 
ENDBRANCH   2   5
BRANCH   3  14
HETATM   14  C           1     -21.551  -7.947  -2.548  0.00  0.00     0.186 C 
BRANCH  14  15
HETATM   15  C           1     -21.951  -6.518  -2.824  0.00  0.00     0.196 C 
HETATM   16  O           1     -22.407  -5.808  -1.902  0.00  0.00    -0.646 OA
HETATM   17  O           1     -21.825  -6.046  -3.974  0.00  0.00    -0.646 OA
ENDBRANCH  14  15
BRANCH  14  18
HETATM   18  C           1     -20.725  -8.007  -1.270  0.00  0.00     0.046 C 
BRANCH  18  19
HETATM   19  C           1     -20.971  -9.335  -0.567  0.00  0.00     0.076 C 
BRANCH  19  20
HETATM   20  S           1     -22.756  -9.599  -0.377  0.00  0.00    -0.173 SA
HETATM   21  C           1     -23.062  -8.144   0.664  0.00  0.00     0.089 C 
ENDBRANCH  19  20
ENDBRANCH  18  19
ENDBRANCH  14  18
ENDBRANCH   3  14
TORSDOF 6
ENDMDL
MODEL 6
REMARK VINA RESULT:      -4.7      4.459      7.703
REMARK  6 active torsions:
REMARK  status: ('A' for Active; 'I' for Inactive)
REMARK    1  A    between atoms: C_7  and  C_8 
REMARK       I    between atoms: C_8  and  N_9 
REMARK    2  A    between atoms: N_9  and  C_13 
REMARK    3  A    between atoms: C_12  and  C_13 
REMARK    4  A    between atoms: C_13  and  C_15 
REMARK    5  A    between atoms: C_15  and  C_16 
REMARK    6  A    between atoms: C_16  and  S_17 
ROOT
HETATM    1  O           1     -20.710  -9.984   1.291  0.00  0.00    -0.271 OA
HETATM    2  C           1     -21.388 -10.395   0.379  0.00  0.00     0.249 C 
HETATM    3  N           1     -21.721  -9.563  -0.656  0.00  0.00    -0.345 N 
HETATM    4  H           1     -22.289  -9.907  -1.419  0.00  0.00     0.163 HD
ENDROOT
BRANCH   2   5
HETATM    5  C           1     -21.870 -11.825   0.383  0.00  0.00     0.274 C 
HETATM    6  N           1     -22.727 -12.065  -0.825  0.00  0.00    -0.067 N 
HETATM    7  H           1     -23.061 -13.055  -0.824  0.00  0.00     0.275 HD
HETATM    8  H           1     -23.549 -11.421  -0.802  0.00  0.00     0.275 HD
HETATM    9  H           1     -22.167 -11.888  -1.689  0.00  0.00     0.275 HD
HETATM   10 Se           1     -20.971 -12.820  -2.479  0.00  0.00     0.000 Se
HETATM   11  C           1     -19.569 -12.387  -3.762  0.00  0.00     0.000 C 
HETATM   12  C           1     -19.858 -12.508  -0.910  0.00  0.00     0.003 C 
HETATM   13  C           1     -20.672 -12.765   0.351  0.00  0.00     0.042 C 
ENDBRANCH   2   5
BRANCH   3  14
HETATM   14  C           1     -21.257  -8.188  -0.659  0.00  0.00     0.186 C 
BRANCH  14  15
HETATM   15  C           1     -22.445  -7.258  -0.607  0.00  0.00     0.196 C 
HETATM   16  O           1     -22.503  -6.276  -1.379  0.00  0.00    -0.646 OA
HETATM   17  O           1     -23.368  -7.469   0.208  0.00  0.00    -0.646 OA
ENDBRANCH  14  15
BRANCH  14  18
HETATM   18  C           1     -20.460  -7.925  -1.930  0.00  0.00     0.046 C 
BRANCH  18  19
HETATM   19  C           1     -20.823  -8.966  -2.981  0.00  0.00     0.076 C 
BRANCH  19  20
HETATM   20  S           1     -20.428  -8.323  -4.631  0.00  0.00    -0.173 SA
HETATM   21  C           1     -21.861  -7.216  -4.761  0.00  0.00     0.089 C 
ENDBRANCH  19  20
ENDBRANCH  18  19
ENDBRANCH  14  18
ENDBRANCH   3  14
TORSDOF 6
ENDMDL
MODEL 7
REMARK VINA RESULT:      -4.7      4.360      7.000
REMARK  6 active torsions:
REMARK  status: ('A' for Active; 'I' for Inactive)
REMARK    1  A    between atoms: C_7  and  C_8 
REMARK       I    between atoms: C_8  and  N_9 
REMARK    2  A    between atoms: N_9  and  C_13 
REMARK    3  A    between atoms: C_12  and  C_13 
REMARK    4  A    between atoms: C_13  and  C_15 
REMARK    5  A    between atoms: C_15  and  C_16 
REMARK    6  A    between atoms: C_16  and  S_17 
ROOT
HETATM    1  O           1     -20.924  -8.184  -0.275  0.00  0.00    -0.271 OA
HETATM    2  C           1     -21.595  -8.923  -0.955  0.00  0.00     0.249 C 
HETATM    3  N           1     -21.675  -8.724  -2.307  0.00  0.00    -0.345 N 
HETATM    4  H           1     -22.236  -9.343  -2.878  0.00  0.00     0.163 HD
ENDROOT
BRANCH   2   5
HETATM    5  C           1     -22.346 -10.064  -0.314  0.00  0.00     0.274 C 
HETATM    6  N           1     -23.044 -10.860  -1.376  0.00  0.00    -0.067 N 
HETATM    7  H           1     -23.565 -11.651  -0.933  0.00  0.00     0.275 HD
HETATM    8  H           1     -23.716 -10.245  -1.888  0.00  0.00     0.275 HD
HETATM    9  H           1     -22.338 -11.240  -2.046  0.00  0.00     0.275 HD
HETATM   10 Se           1     -21.247 -12.551  -1.925  0.00  0.00     0.000 Se
HETATM   11  C           1     -19.612 -13.023  -2.875  0.00  0.00     0.000 C 
HETATM   12  C           1     -20.340 -11.516  -0.545  0.00  0.00     0.003 C 
HETATM   13  C           1     -21.368 -10.961   0.432  0.00  0.00     0.042 C 
ENDBRANCH   2   5
BRANCH   3  14
HETATM   14  C           1     -20.952  -7.628  -2.923  0.00  0.00     0.186 C 
BRANCH  14  15
HETATM   15  C           1     -21.896  -6.474  -3.158  0.00  0.00     0.196 C 
HETATM   16  O           1     -22.256  -6.187  -4.321  0.00  0.00    -0.646 OA
HETATM   17  O           1     -22.318  -5.805  -2.190  0.00  0.00    -0.646 OA
ENDBRANCH  14  15
BRANCH  14  18
HETATM   18  C           1     -20.371  -8.088  -4.254  0.00  0.00     0.046 C 
BRANCH  18  19
HETATM   19  C           1     -19.949  -9.547  -4.146  0.00  0.00     0.076 C 
BRANCH  19  20
HETATM   20  S           1     -18.194  -9.703  -4.580  0.00  0.00    -0.173 SA
HETATM   21  C           1     -17.560  -9.618  -2.882  0.00  0.00     0.089 C 
ENDBRANCH  19  20
ENDBRANCH  18  19
ENDBRANCH  14  18
ENDBRANCH   3  14
TORSDOF 6
ENDMDL
MODEL 8
REMARK VINA RESULT:      -4.7     20.963     22.934
REMARK  6 active torsions:
REMARK  status: ('A' for Active; 'I' for Inactive)
REMARK    1  A    between atoms: C_7  and  C_8 
REMARK       I    between atoms: C_8  and  N_9 
REMARK    2  A    between atoms: N_9  and  C_13 
REMARK    3  A    between atoms: C_12  and  C_13 
REMARK    4  A    between atoms: C_13  and  C_15 
REMARK    5  A    between atoms: C_15  and  C_16 
REMARK    6  A    between atoms: C_16  and  S_17 
ROOT
HETATM    1  O           1     -13.355   7.474 -21.302  0.00  0.00    -0.271 OA
HETATM    2  C           1     -12.419   7.856 -21.964  0.00  0.00     0.249 C 
HETATM    3  N           1     -11.217   7.204 -21.891  0.00  0.00    -0.345 N 
HETATM    4  H           1     -10.433   7.524 -22.445  0.00  0.00     0.163 HD
ENDROOT
BRANCH   2   5
HETATM    5  C           1     -12.574   9.053 -22.869  0.00  0.00     0.274 C 
HETATM    6  N           1     -14.014   9.473 -22.899  0.00  0.00    -0.067 N 
HETATM    7  H           1     -14.122  10.302 -23.525  0.00  0.00     0.275 HD
HETATM    8  H           1     -14.599   8.686 -23.259  0.00  0.00     0.275 HD
HETATM    9  H           1     -14.322   9.724 -21.933  0.00  0.00     0.275 HD
HETATM   10 Se           1     -14.043  11.115 -20.976  0.00  0.00     0.000 Se
HETATM   11  C           1     -14.149  11.464 -19.062  0.00  0.00     0.000 C 
HETATM   12  C           1     -12.172  10.569 -20.939  0.00  0.00     0.003 C 
HETATM   13  C           1     -11.721  10.201 -22.346  0.00  0.00     0.042 C 
ENDBRANCH   2   5
BRANCH   3  14
HETATM   14  C           1     -11.068   6.053 -21.020  0.00  0.00     0.186 C 
BRANCH  14  15
HETATM   15  C           1      -9.990   6.331 -20.002  0.00  0.00     0.196 C 
HETATM   16  O           1     -10.298   6.555 -18.811  0.00  0.00    -0.646 OA
HETATM   17  O           1      -8.790   6.337 -20.349  0.00  0.00    -0.646 OA
ENDBRANCH  14  15
BRANCH  14  18
HETATM   18  C           1     -10.682   4.837 -21.851  0.00  0.00     0.046 C 
BRANCH  18  19
HETATM   19  C           1     -11.936   4.211 -22.448  0.00  0.00     0.076 C 
BRANCH  19  20
HETATM   20  S           1     -12.671   3.064 -21.249  0.00  0.00    -0.173 SA
HETATM   21  C           1     -11.106   2.341 -20.681  0.00  0.00     0.089 C 
ENDBRANCH  19  20
ENDBRANCH  18  19
ENDBRANCH  14  18
ENDBRANCH   3  14
TORSDOF 6
ENDMDL
MODEL 9
REMARK VINA RESULT:      -4.7      4.815      6.958
REMARK  6 active torsions:
REMARK  status: ('A' for Active; 'I' for Inactive)
REMARK    1  A    between atoms: C_7  and  C_8 
REMARK       I    between atoms: C_8  and  N_9 
REMARK    2  A    between atoms: N_9  and  C_13 
REMARK    3  A    between atoms: C_12  and  C_13 
REMARK    4  A    between atoms: C_13  and  C_15 
REMARK    5  A    between atoms: C_15  and  C_16 
REMARK    6  A    between atoms: C_16  and  S_17 
ROOT
HETATM    1  O           1     -18.821 -11.454  -3.246  0.00  0.00    -0.271 OA
HETATM    2  C           1     -18.265 -10.428  -2.933  0.00  0.00     0.249 C 
HETATM    3  N           1     -18.883  -9.224  -3.137  0.00  0.00    -0.345 N 
HETATM    4  H           1     -18.417  -8.364  -2.875  0.00  0.00     0.163 HD
ENDROOT
BRANCH   2   5
HETATM    5  C           1     -16.887 -10.475  -2.319  0.00  0.00     0.274 C 
HETATM    6  N           1     -16.347 -11.871  -2.410  0.00  0.00    -0.067 N 
HETATM    7  H           1     -15.393 -11.904  -1.985  0.00  0.00     0.275 HD
HETATM    8  H           1     -16.980 -12.524  -1.896  0.00  0.00     0.275 HD
HETATM    9  H           1     -16.291 -12.157  -3.414  0.00  0.00     0.275 HD
HETATM   10 Se           1     -15.178 -11.755  -4.649  0.00  0.00     0.000 Se
HETATM   11  C           1     -15.256 -11.831  -6.595  0.00  0.00     0.000 C 
HETATM   12  C           1     -15.881  -9.940  -4.529  0.00  0.00     0.003 C 
HETATM   13  C           1     -15.964  -9.523  -3.068  0.00  0.00     0.042 C 
ENDBRANCH   2   5
BRANCH   3  14
HETATM   14  C           1     -20.207  -9.179  -3.727  0.00  0.00     0.186 C 
BRANCH  14  15
HETATM   15  C           1     -20.100  -8.738  -5.167  0.00  0.00     0.196 C 
HETATM   16  O           1     -18.995  -8.769  -5.749  0.00  0.00    -0.646 OA
HETATM   17  O           1     -21.117  -8.340  -5.775  0.00  0.00    -0.646 OA
ENDBRANCH  14  15
BRANCH  14  18
HETATM   18  C           1     -21.073  -8.192  -2.956  0.00  0.00     0.046 C 
BRANCH  18  19
HETATM   19  C           1     -21.451  -8.793  -1.609  0.00  0.00     0.076 C 
BRANCH  19  20
HETATM   20  S           1     -22.247  -7.526  -0.582  0.00  0.00    -0.173 SA
HETATM   21  C           1     -22.219  -6.210  -1.832  0.00  0.00     0.089 C 
ENDBRANCH  19  20
ENDBRANCH  18  19
ENDBRANCH  14  18
ENDBRANCH   3  14
TORSDOF 6
ENDMDL
