MODEL 1
REMARK VINA RESULT:      -6.6      0.000      0.000
REMARK  15 active torsions:
REMARK  status: ('A' for Active; 'I' for Inactive)
REMARK    1  A    between atoms: N_4  and  C_12 
REMARK       I    between atoms: N_5  and  C_7 
REMARK       I    between atoms: N_6  and  C_7 
REMARK    2  A    between atoms: N_8  and  C_9 
REMARK    3  A    between atoms: C_9  and  C_10 
REMARK    4  A    between atoms: C_10  and  C_11 
REMARK    5  A    between atoms: C_11  and  C_12 
REMARK    6  A    between atoms: C_12  and  C_13 
REMARK       I    between atoms: C_13  and  N_14 
REMARK    7  A    between atoms: N_14  and  C_18 
REMARK    8  A    between atoms: C_17  and  C_18 
REMARK    9  A    between atoms: C_18  and  C_19 
REMARK   10  A    between atoms: C_19  and  C_20 
REMARK   11  A    between atoms: C_20  and  N_21 
REMARK   12  A    between atoms: N_21  and  C_25 
REMARK   13  A    between atoms: C_24  and  C_25 
REMARK   14  A    between atoms: C_25  and  C_26 
REMARK   15  A    between atoms: C_26  and  C_28 
REMARK       I    between atoms: N_27  and  C_28 
ROOT
HETATM    1  O           1     -37.888  -0.685 -13.327  0.00  0.00    -0.271 OA
HETATM    2  C           1     -36.816  -0.130 -13.285  0.00  0.00     0.249 C 
HETATM    3  N           1     -36.143  -0.030 -12.098  0.00  0.00    -0.345 N 
HETATM    4  H           1     -35.244   0.434 -12.063  0.00  0.00     0.163 HD
ENDROOT
BRANCH   3   5
HETATM    5  C           1     -36.715  -0.590 -10.890  0.00  0.00     0.187 C 
BRANCH   5   6
HETATM    6  C           1     -37.047   0.526  -9.928  0.00  0.00     0.196 C 
HETATM    7  O           1     -38.075   1.215 -10.103  0.00  0.00    -0.646 OA
HETATM    8  O           1     -36.295   0.759  -8.958  0.00  0.00    -0.646 OA
ENDBRANCH   5   6
BRANCH   5   9
HETATM    9  C           1     -35.713  -1.537 -10.243  0.00  0.00     0.066 C 
BRANCH   9  10
HETATM   10  C           1     -36.335  -2.921 -10.109  0.00  0.00     0.273 C 
BRANCH  10  11
HETATM   11  N           1     -35.815  -3.782 -11.138  0.00  0.00     0.099 N 
HETATM   12  H           1     -36.279  -3.574 -12.022  0.00  0.00     0.317 HD
BRANCH  11  13
HETATM   13  C           1     -34.408  -3.518 -11.260  0.00  0.00     0.328 C 
BRANCH  13  14
HETATM   14  C           1     -34.053  -3.353 -12.718  0.00  0.00     0.207 C 
HETATM   15  O           1     -33.159  -4.064 -13.227  0.00  0.00    -0.646 OA
HETATM   16  O           1     -34.652  -2.507 -13.416  0.00  0.00    -0.646 OA
ENDBRANCH  13  14
BRANCH  13  17
HETATM   17  C           1     -33.620  -4.681 -10.673  0.00  0.00     0.149 C 
BRANCH  17  18
HETATM   18  C           1     -34.463  -5.933 -10.717  0.00  0.00     0.217 C 
HETATM   19  N           1     -34.693  -6.562 -11.911  0.00  0.00    -0.370 N 
HETATM   20  H           1     -35.258  -7.400 -11.941  0.00  0.00     0.159 HD
HETATM   21  H           1     -34.298  -6.188 -12.765  0.00  0.00     0.159 HD
HETATM   22  O           1     -34.935  -6.379  -9.698  0.00  0.00    -0.274 OA
ENDBRANCH  17  18
ENDBRANCH  13  17
ENDBRANCH  11  13
ENDBRANCH  10  11
ENDBRANCH   9  10
ENDBRANCH   5   9
ENDBRANCH   3   5
BRANCH   2  23
HETATM   23  C           1     -36.219   0.453 -14.543  0.00  0.00     0.274 C 
BRANCH  23  24
HETATM   24  N           1     -34.729   0.547 -14.391  0.00  0.00    -0.067 N 
HETATM   25  H           1     -34.380  -0.279 -13.854  0.00  0.00     0.275 HD
HETATM   26  H           1     -34.284   0.562 -15.336  0.00  0.00     0.275 HD
HETATM   27  H           1     -34.486   1.425 -13.877  0.00  0.00     0.275 HD
ENDBRANCH  23  24
BRANCH  23  28
HETATM   28  C           1     -36.551  -0.445 -15.727  0.00  0.00     0.044 C 
BRANCH  28  29
HETATM   29  C           1     -35.277  -0.762 -16.499  0.00  0.00     0.023 C 
BRANCH  29  30
HETATM   30  C           1     -35.241  -2.247 -16.833  0.00  0.00     0.138 C 
BRANCH  30  31
HETATM   31  N           1     -33.866  -2.641 -17.172  0.00  0.00    -0.227 N 
HETATM   32  C           1     -33.387  -3.722 -16.721  0.00  0.00     0.665 C 
HETATM   33  N           1     -34.112  -4.485 -15.958  0.00  0.00    -0.235 N 
HETATM   34  N           1     -32.203  -4.060 -17.014  0.00  0.00    -0.235 N 
HETATM   35  H           1     -33.717  -5.378 -15.585  0.00  0.00     0.174 HD
HETATM   36  H           1     -35.090  -4.206 -15.717  0.00  0.00     0.174 HD
HETATM   37  H           1     -31.806  -4.958 -16.640  0.00  0.00     0.174 HD
HETATM   38  H           1     -31.618  -3.445 -17.631  0.00  0.00     0.174 HD
HETATM   39  H           1     -33.281  -2.024 -17.790  0.00  0.00     0.177 HD
ENDBRANCH  30  31
ENDBRANCH  29  30
ENDBRANCH  28  29
ENDBRANCH  23  28
ENDBRANCH   2  23
TORSDOF 15
ENDMDL
MODEL 2
REMARK VINA RESULT:      -6.4      2.777      4.966
REMARK  15 active torsions:
REMARK  status: ('A' for Active; 'I' for Inactive)
REMARK    1  A    between atoms: N_4  and  C_12 
REMARK       I    between atoms: N_5  and  C_7 
REMARK       I    between atoms: N_6  and  C_7 
REMARK    2  A    between atoms: N_8  and  C_9 
REMARK    3  A    between atoms: C_9  and  C_10 
REMARK    4  A    between atoms: C_10  and  C_11 
REMARK    5  A    between atoms: C_11  and  C_12 
REMARK    6  A    between atoms: C_12  and  C_13 
REMARK       I    between atoms: C_13  and  N_14 
REMARK    7  A    between atoms: N_14  and  C_18 
REMARK    8  A    between atoms: C_17  and  C_18 
REMARK    9  A    between atoms: C_18  and  C_19 
REMARK   10  A    between atoms: C_19  and  C_20 
REMARK   11  A    between atoms: C_20  and  N_21 
REMARK   12  A    between atoms: N_21  and  C_25 
REMARK   13  A    between atoms: C_24  and  C_25 
REMARK   14  A    between atoms: C_25  and  C_26 
REMARK   15  A    between atoms: C_26  and  C_28 
REMARK       I    between atoms: N_27  and  C_28 
ROOT
HETATM    1  O           1     -34.609  -3.534 -15.042  0.00  0.00    -0.271 OA
HETATM    2  C           1     -34.332  -2.994 -16.087  0.00  0.00     0.249 C 
HETATM    3  N           1     -34.827  -1.749 -16.365  0.00  0.00    -0.345 N 
HETATM    4  H           1     -34.594  -1.297 -17.241  0.00  0.00     0.163 HD
ENDROOT
BRANCH   3   5
HETATM    5  C           1     -35.681  -1.076 -15.408  0.00  0.00     0.187 C 
BRANCH   5   6
HETATM    6  C           1     -36.742  -0.293 -16.144  0.00  0.00     0.196 C 
HETATM    7  O           1     -37.641  -0.896 -16.769  0.00  0.00    -0.646 OA
HETATM    8  O           1     -36.720   0.956 -16.128  0.00  0.00    -0.646 OA
ENDBRANCH   5   6
BRANCH   5   9
HETATM    9  C           1     -34.845  -0.127 -14.559  0.00  0.00     0.066 C 
BRANCH   9  10
HETATM   10  C           1     -35.410  -0.077 -13.145  0.00  0.00     0.273 C 
BRANCH  10  11
HETATM   11  N           1     -34.381  -0.432 -12.205  0.00  0.00     0.099 N 
HETATM   12  H           1     -34.374   0.241 -11.438  0.00  0.00     0.317 HD
BRANCH  11  13
HETATM   13  C           1     -34.689  -1.739 -11.692  0.00  0.00     0.328 C 
BRANCH  13  14
HETATM   14  C           1     -35.798  -1.630 -10.674  0.00  0.00     0.207 C 
HETATM   15  O           1     -36.814  -2.351 -10.776  0.00  0.00    -0.646 OA
HETATM   16  O           1     -35.699  -0.819  -9.728  0.00  0.00    -0.646 OA
ENDBRANCH  13  14
BRANCH  13  17
HETATM   17  C           1     -33.450  -2.330 -11.034  0.00  0.00     0.149 C 
BRANCH  17  18
HETATM   18  C           1     -33.405  -3.817 -11.291  0.00  0.00     0.217 C 
HETATM   19  N           1     -32.974  -4.289 -12.502  0.00  0.00    -0.370 N 
HETATM   20  H           1     -32.944  -5.285 -12.675  0.00  0.00     0.159 HD
HETATM   21  H           1     -32.687  -3.641 -13.225  0.00  0.00     0.159 HD
HETATM   22  O           1     -33.747  -4.590 -10.428  0.00  0.00    -0.274 OA
ENDBRANCH  17  18
ENDBRANCH  13  17
ENDBRANCH  11  13
ENDBRANCH  10  11
ENDBRANCH   9  10
ENDBRANCH   5   9
ENDBRANCH   3   5
BRANCH   2  23
HETATM   23  C           1     -33.443  -3.694 -17.085  0.00  0.00     0.274 C 
BRANCH  23  24
HETATM   24  N           1     -32.412  -2.731 -17.596  0.00  0.00    -0.067 N 
HETATM   25  H           1     -31.505  -3.232 -17.732  0.00  0.00     0.275 HD
HETATM   26  H           1     -32.731  -2.333 -18.508  0.00  0.00     0.275 HD
HETATM   27  H           1     -32.283  -1.959 -16.903  0.00  0.00     0.275 HD
ENDBRANCH  23  24
BRANCH  23  28
HETATM   28  C           1     -32.748  -4.869 -16.409  0.00  0.00     0.044 C 
BRANCH  28  29
HETATM   29  C           1     -31.240  -4.737 -16.582  0.00  0.00     0.023 C 
BRANCH  29  30
HETATM   30  C           1     -30.647  -6.097 -16.927  0.00  0.00     0.138 C 
BRANCH  30  31
HETATM   31  N           1     -29.320  -6.224 -16.309  0.00  0.00    -0.227 N 
HETATM   32  C           1     -28.656  -7.293 -16.448  0.00  0.00     0.665 C 
HETATM   33  N           1     -29.150  -8.278 -17.138  0.00  0.00    -0.235 N 
HETATM   34  N           1     -27.513  -7.402 -15.916  0.00  0.00    -0.235 N 
HETATM   35  H           1     -28.602  -9.161 -17.253  0.00  0.00     0.174 HD
HETATM   36  H           1     -30.093  -8.188 -17.578  0.00  0.00     0.174 HD
HETATM   37  H           1     -26.963  -8.289 -16.032  0.00  0.00     0.174 HD
HETATM   38  H           1     -27.114  -6.607 -15.359  0.00  0.00     0.174 HD
HETATM   39  H           1     -28.921  -5.428 -15.753  0.00  0.00     0.177 HD
ENDBRANCH  30  31
ENDBRANCH  29  30
ENDBRANCH  28  29
ENDBRANCH  23  28
ENDBRANCH   2  23
TORSDOF 15
ENDMDL
MODEL 3
REMARK VINA RESULT:      -6.4     14.038     17.158
REMARK  15 active torsions:
REMARK  status: ('A' for Active; 'I' for Inactive)
REMARK    1  A    between atoms: N_4  and  C_12 
REMARK       I    between atoms: N_5  and  C_7 
REMARK       I    between atoms: N_6  and  C_7 
REMARK    2  A    between atoms: N_8  and  C_9 
REMARK    3  A    between atoms: C_9  and  C_10 
REMARK    4  A    between atoms: C_10  and  C_11 
REMARK    5  A    between atoms: C_11  and  C_12 
REMARK    6  A    between atoms: C_12  and  C_13 
REMARK       I    between atoms: C_13  and  N_14 
REMARK    7  A    between atoms: N_14  and  C_18 
REMARK    8  A    between atoms: C_17  and  C_18 
REMARK    9  A    between atoms: C_18  and  C_19 
REMARK   10  A    between atoms: C_19  and  C_20 
REMARK   11  A    between atoms: C_20  and  N_21 
REMARK   12  A    between atoms: N_21  and  C_25 
REMARK   13  A    between atoms: C_24  and  C_25 
REMARK   14  A    between atoms: C_25  and  C_26 
REMARK   15  A    between atoms: C_26  and  C_28 
REMARK       I    between atoms: N_27  and  C_28 
ROOT
HETATM    1  O           1     -22.027  -7.540  -4.729  0.00  0.00    -0.271 OA
HETATM    2  C           1     -21.478  -6.639  -4.142  0.00  0.00     0.249 C 
HETATM    3  N           1     -20.979  -5.572  -4.839  0.00  0.00    -0.345 N 
HETATM    4  H           1     -20.519  -4.816  -4.346  0.00  0.00     0.163 HD
ENDROOT
BRANCH   3   5
HETATM    5  C           1     -21.111  -5.521  -6.281  0.00  0.00     0.187 C 
BRANCH   5   6
HETATM    6  C           1     -19.770  -5.794  -6.918  0.00  0.00     0.196 C 
HETATM    7  O           1     -19.101  -4.852  -7.394  0.00  0.00    -0.646 OA
HETATM    8  O           1     -19.328  -6.963  -6.968  0.00  0.00    -0.646 OA
ENDBRANCH   5   6
BRANCH   5   9
HETATM    9  C           1     -21.601  -4.140  -6.699  0.00  0.00     0.066 C 
BRANCH   9  10
HETATM   10  C           1     -22.726  -4.286  -7.715  0.00  0.00     0.273 C 
BRANCH  10  11
HETATM   11  N           1     -22.794  -3.102  -8.529  0.00  0.00     0.099 N 
HETATM   12  H           1     -21.882  -2.644  -8.540  0.00  0.00     0.317 HD
BRANCH  11  13
HETATM   13  C           1     -23.141  -3.509  -9.863  0.00  0.00     0.328 C 
BRANCH  13  14
HETATM   14  C           1     -24.611  -3.846  -9.919  0.00  0.00     0.207 C 
HETATM   15  O           1     -25.463  -2.931  -9.919  0.00  0.00    -0.646 OA
HETATM   16  O           1     -24.977  -5.041  -9.963  0.00  0.00    -0.646 OA
ENDBRANCH  13  14
BRANCH  13  17
HETATM   17  C           1     -22.324  -4.734 -10.249  0.00  0.00     0.149 C 
BRANCH  17  18
HETATM   18  C           1     -21.101  -4.301 -11.021  0.00  0.00     0.217 C 
HETATM   19  N           1     -21.242  -3.601 -12.189  0.00  0.00    -0.370 N 
HETATM   20  H           1     -20.423  -3.311 -12.707  0.00  0.00     0.159 HD
HETATM   21  H           1     -22.166  -3.374 -12.535  0.00  0.00     0.159 HD
HETATM   22  O           1     -19.999  -4.573 -10.608  0.00  0.00    -0.274 OA
ENDBRANCH  17  18
ENDBRANCH  13  17
ENDBRANCH  11  13
ENDBRANCH  10  11
ENDBRANCH   9  10
ENDBRANCH   5   9
ENDBRANCH   3   5
BRANCH   2  23
HETATM   23  C           1     -21.339  -6.691  -2.640  0.00  0.00     0.274 C 
BRANCH  23  24
HETATM   24  N           1     -22.413  -5.853  -2.010  0.00  0.00    -0.067 N 
HETATM   25  H           1     -22.331  -5.906  -0.970  0.00  0.00     0.275 HD
HETATM   26  H           1     -22.305  -4.861  -2.319  0.00  0.00     0.275 HD
HETATM   27  H           1     -23.351  -6.210  -2.305  0.00  0.00     0.275 HD
ENDBRANCH  23  24
BRANCH  23  28
HETATM   28  C           1     -21.479  -8.132  -2.166  0.00  0.00     0.044 C 
BRANCH  28  29
HETATM   29  C           1     -20.180  -8.579  -1.509  0.00  0.00     0.023 C 
BRANCH  29  30
HETATM   30  C           1     -19.621  -9.784  -2.255  0.00  0.00     0.138 C 
BRANCH  30  31
HETATM   31  N           1     -20.152  -9.801  -3.626  0.00  0.00    -0.227 N 
HETATM   32  C           1     -19.366  -9.679  -4.611  0.00  0.00     0.665 C 
HETATM   33  N           1     -18.090  -9.538  -4.410  0.00  0.00    -0.235 N 
HETATM   34  N           1     -19.824  -9.696  -5.790  0.00  0.00    -0.235 N 
HETATM   35  H           1     -17.441  -9.437  -5.223  0.00  0.00     0.174 HD
HETATM   36  H           1     -17.712  -9.525  -3.435  0.00  0.00     0.174 HD
HETATM   37  H           1     -19.172  -9.595  -6.608  0.00  0.00     0.174 HD
HETATM   38  H           1     -20.855  -9.810  -5.953  0.00  0.00     0.174 HD
HETATM   39  H           1     -21.183  -9.917  -3.788  0.00  0.00     0.177 HD
ENDBRANCH  30  31
ENDBRANCH  29  30
ENDBRANCH  28  29
ENDBRANCH  23  28
ENDBRANCH   2  23
TORSDOF 15
ENDMDL
MODEL 4
REMARK VINA RESULT:      -6.2     14.019     17.432
REMARK  15 active torsions:
REMARK  status: ('A' for Active; 'I' for Inactive)
REMARK    1  A    between atoms: N_4  and  C_12 
REMARK       I    between atoms: N_5  and  C_7 
REMARK       I    between atoms: N_6  and  C_7 
REMARK    2  A    between atoms: N_8  and  C_9 
REMARK    3  A    between atoms: C_9  and  C_10 
REMARK    4  A    between atoms: C_10  and  C_11 
REMARK    5  A    between atoms: C_11  and  C_12 
REMARK    6  A    between atoms: C_12  and  C_13 
REMARK       I    between atoms: C_13  and  N_14 
REMARK    7  A    between atoms: N_14  and  C_18 
REMARK    8  A    between atoms: C_17  and  C_18 
REMARK    9  A    between atoms: C_18  and  C_19 
REMARK   10  A    between atoms: C_19  and  C_20 
REMARK   11  A    between atoms: C_20  and  N_21 
REMARK   12  A    between atoms: N_21  and  C_25 
REMARK   13  A    between atoms: C_24  and  C_25 
REMARK   14  A    between atoms: C_25  and  C_26 
REMARK   15  A    between atoms: C_26  and  C_28 
REMARK       I    between atoms: N_27  and  C_28 
ROOT
HETATM    1  O           1     -21.479  -7.928  -4.583  0.00  0.00    -0.271 OA
HETATM    2  C           1     -21.454  -6.885  -3.975  0.00  0.00     0.249 C 
HETATM    3  N           1     -21.481  -5.697  -4.654  0.00  0.00    -0.345 N 
HETATM    4  H           1     -21.461  -4.822  -4.144  0.00  0.00     0.163 HD
ENDROOT
BRANCH   3   5
HETATM    5  C           1     -21.540  -5.689  -6.102  0.00  0.00     0.187 C 
BRANCH   5   6
HETATM    6  C           1     -20.144  -5.549  -6.660  0.00  0.00     0.196 C 
HETATM    7  O           1     -19.406  -4.619  -6.268  0.00  0.00    -0.646 OA
HETATM    8  O           1     -19.728  -6.362  -7.513  0.00  0.00    -0.646 OA
ENDBRANCH   5   6
BRANCH   5   9
HETATM    9  C           1     -22.396  -4.519  -6.570  0.00  0.00     0.066 C 
BRANCH   9  10
HETATM   10  C           1     -22.561  -4.583  -8.083  0.00  0.00     0.273 C 
BRANCH  10  11
HETATM   11  N           1     -23.138  -3.354  -8.555  0.00  0.00     0.099 N 
HETATM   12  H           1     -22.590  -2.566  -8.210  0.00  0.00     0.317 HD
BRANCH  11  13
HETATM   13  C           1     -23.096  -3.375  -9.992  0.00  0.00     0.328 C 
BRANCH  13  14
HETATM   14  C           1     -24.494  -3.548 -10.533  0.00  0.00     0.207 C 
HETATM   15  O           1     -24.671  -4.084 -11.648  0.00  0.00    -0.646 OA
HETATM   16  O           1     -25.476  -3.155  -9.865  0.00  0.00    -0.646 OA
ENDBRANCH  13  14
BRANCH  13  17
HETATM   17  C           1     -22.224  -4.534 -10.456  0.00  0.00     0.149 C 
BRANCH  17  18
HETATM   18  C           1     -21.221  -4.035 -11.468  0.00  0.00     0.217 C 
HETATM   19  N           1     -21.605  -3.828 -12.767  0.00  0.00    -0.370 N 
HETATM   20  H           1     -20.933  -3.493 -13.445  0.00  0.00     0.159 HD
HETATM   21  H           1     -22.560  -4.009 -13.047  0.00  0.00     0.159 HD
HETATM   22  O           1     -20.081  -3.819 -11.133  0.00  0.00    -0.274 OA
ENDBRANCH  17  18
ENDBRANCH  13  17
ENDBRANCH  11  13
ENDBRANCH  10  11
ENDBRANCH   9  10
ENDBRANCH   5   9
ENDBRANCH   3   5
BRANCH   2  23
HETATM   23  C           1     -21.393  -6.891  -2.467  0.00  0.00     0.274 C 
BRANCH  23  24
HETATM   24  N           1     -22.383  -5.903  -1.923  0.00  0.00    -0.067 N 
HETATM   25  H           1     -23.230  -5.886  -2.534  0.00  0.00     0.275 HD
HETATM   26  H           1     -22.657  -6.184  -0.954  0.00  0.00     0.275 HD
HETATM   27  H           1     -21.949  -4.952  -1.900  0.00  0.00     0.275 HD
ENDBRANCH  23  24
BRANCH  23  28
HETATM   28  C           1     -21.731  -8.284  -1.951  0.00  0.00     0.044 C 
BRANCH  28  29
HETATM   29  C           1     -20.801  -8.640  -0.800  0.00  0.00     0.023 C 
BRANCH  29  30
HETATM   30  C           1     -21.622  -9.135   0.384  0.00  0.00     0.138 C 
BRANCH  30  31
HETATM   31  N           1     -21.598 -10.604   0.419  0.00  0.00    -0.227 N 
HETATM   32  C           1     -22.639 -11.261   0.128  0.00  0.00     0.665 C 
HETATM   33  N           1     -23.730 -10.637  -0.203  0.00  0.00    -0.235 N 
HETATM   34  N           1     -22.618 -12.526   0.157  0.00  0.00    -0.235 N 
HETATM   35  H           1     -24.591 -11.179  -0.443  0.00  0.00     0.174 HD
HETATM   36  H           1     -23.748  -9.592  -0.228  0.00  0.00     0.174 HD
HETATM   37  H           1     -23.482 -13.072  -0.085  0.00  0.00     0.174 HD
HETATM   38  H           1     -21.737 -13.031   0.423  0.00  0.00     0.174 HD
HETATM   39  H           1     -20.716 -11.108   0.684  0.00  0.00     0.177 HD
ENDBRANCH  30  31
ENDBRANCH  29  30
ENDBRANCH  28  29
ENDBRANCH  23  28
ENDBRANCH   2  23
TORSDOF 15
ENDMDL
MODEL 5
REMARK VINA RESULT:      -6.2     15.050     17.829
REMARK  15 active torsions:
REMARK  status: ('A' for Active; 'I' for Inactive)
REMARK    1  A    between atoms: N_4  and  C_12 
REMARK       I    between atoms: N_5  and  C_7 
REMARK       I    between atoms: N_6  and  C_7 
REMARK    2  A    between atoms: N_8  and  C_9 
REMARK    3  A    between atoms: C_9  and  C_10 
REMARK    4  A    between atoms: C_10  and  C_11 
REMARK    5  A    between atoms: C_11  and  C_12 
REMARK    6  A    between atoms: C_12  and  C_13 
REMARK       I    between atoms: C_13  and  N_14 
REMARK    7  A    between atoms: N_14  and  C_18 
REMARK    8  A    between atoms: C_17  and  C_18 
REMARK    9  A    between atoms: C_18  and  C_19 
REMARK   10  A    between atoms: C_19  and  C_20 
REMARK   11  A    between atoms: C_20  and  N_21 
REMARK   12  A    between atoms: N_21  and  C_25 
REMARK   13  A    between atoms: C_24  and  C_25 
REMARK   14  A    between atoms: C_25  and  C_26 
REMARK   15  A    between atoms: C_26  and  C_28 
REMARK       I    between atoms: N_27  and  C_28 
ROOT
HETATM    1  O           1     -19.569  -7.284  -6.401  0.00  0.00    -0.271 OA
HETATM    2  C           1     -20.418  -7.164  -5.551  0.00  0.00     0.249 C 
HETATM    3  N           1     -20.534  -8.104  -4.562  0.00  0.00    -0.345 N 
HETATM    4  H           1     -21.246  -8.003  -3.850  0.00  0.00     0.163 HD
ENDROOT
BRANCH   3   5
HETATM    5  C           1     -19.639  -9.243  -4.535  0.00  0.00     0.187 C 
BRANCH   5   6
HETATM    6  C           1     -20.408 -10.495  -4.881  0.00  0.00     0.196 C 
HETATM    7  O           1     -20.675 -10.753  -6.075  0.00  0.00    -0.646 OA
HETATM    8  O           1     -20.777 -11.273  -3.975  0.00  0.00    -0.646 OA
ENDBRANCH   5   6
BRANCH   5   9
HETATM    9  C           1     -19.038  -9.384  -3.142  0.00  0.00     0.066 C 
BRANCH   9  10
HETATM   10  C           1     -19.806  -8.504  -2.165  0.00  0.00     0.273 C 
BRANCH  10  11
HETATM   11  N           1     -20.559  -9.333  -1.263  0.00  0.00     0.099 N 
HETATM   12  H           1     -20.249  -9.163  -0.306  0.00  0.00     0.317 HD
BRANCH  11  13
HETATM   13  C           1     -21.944  -8.970  -1.389  0.00  0.00     0.328 C 
BRANCH  13  14
HETATM   14  C           1     -22.207  -7.710  -0.600  0.00  0.00     0.207 C 
HETATM   15  O           1     -22.002  -7.691   0.633  0.00  0.00    -0.646 OA
HETATM   16  O           1     -22.631  -6.687  -1.180  0.00  0.00    -0.646 OA
ENDBRANCH  13  14
BRANCH  13  17
HETATM   17  C           1     -22.815 -10.098  -0.851  0.00  0.00     0.149 C 
BRANCH  17  18
HETATM   18  C           1     -21.937 -11.239  -0.397  0.00  0.00     0.217 C 
HETATM   19  N           1     -21.777 -12.339  -1.197  0.00  0.00    -0.370 N 
HETATM   20  H           1     -21.188 -13.103  -0.893  0.00  0.00     0.159 HD
HETATM   21  H           1     -22.246 -12.386  -2.092  0.00  0.00     0.159 HD
HETATM   22  O           1     -21.376 -11.182   0.672  0.00  0.00    -0.274 OA
ENDBRANCH  17  18
ENDBRANCH  13  17
ENDBRANCH  11  13
ENDBRANCH  10  11
ENDBRANCH   9  10
ENDBRANCH   5   9
ENDBRANCH   3   5
BRANCH   2  23
HETATM   23  C           1     -21.352  -5.979  -5.578  0.00  0.00     0.274 C 
BRANCH  23  24
HETATM   24  N           1     -22.071  -5.879  -4.265  0.00  0.00    -0.067 N 
HETATM   25  H           1     -21.391  -6.015  -3.484  0.00  0.00     0.275 HD
HETATM   26  H           1     -22.514  -4.936  -4.183  0.00  0.00     0.275 HD
HETATM   27  H           1     -22.810  -6.617  -4.216  0.00  0.00     0.275 HD
ENDBRANCH  23  24
BRANCH  23  28
HETATM   28  C           1     -20.549  -4.706  -5.814  0.00  0.00     0.044 C 
BRANCH  28  29
HETATM   29  C           1     -21.210  -3.882  -6.911  0.00  0.00     0.023 C 
BRANCH  29  30
HETATM   30  C           1     -22.152  -4.769  -7.714  0.00  0.00     0.138 C 
BRANCH  30  31
HETATM   31  N           1     -23.433  -4.074  -7.910  0.00  0.00    -0.227 N 
HETATM   32  C           1     -23.826  -3.789  -9.079  0.00  0.00     0.665 C 
HETATM   33  N           1     -23.097  -4.110 -10.106  0.00  0.00    -0.235 N 
HETATM   34  N           1     -24.929  -3.191  -9.246  0.00  0.00    -0.235 N 
HETATM   35  H           1     -23.422  -3.874 -11.071  0.00  0.00     0.174 HD
HETATM   36  H           1     -22.187  -4.604  -9.967  0.00  0.00     0.174 HD
HETATM   37  H           1     -25.256  -2.955 -10.216  0.00  0.00     0.174 HD
HETATM   38  H           1     -25.519  -2.932  -8.417  0.00  0.00     0.174 HD
HETATM   39  H           1     -24.022  -3.816  -7.080  0.00  0.00     0.177 HD
ENDBRANCH  30  31
ENDBRANCH  29  30
ENDBRANCH  28  29
ENDBRANCH  23  28
ENDBRANCH   2  23
TORSDOF 15
ENDMDL
MODEL 6
REMARK VINA RESULT:      -6.1      4.147      7.567
REMARK  15 active torsions:
REMARK  status: ('A' for Active; 'I' for Inactive)
REMARK    1  A    between atoms: N_4  and  C_12 
REMARK       I    between atoms: N_5  and  C_7 
REMARK       I    between atoms: N_6  and  C_7 
REMARK    2  A    between atoms: N_8  and  C_9 
REMARK    3  A    between atoms: C_9  and  C_10 
REMARK    4  A    between atoms: C_10  and  C_11 
REMARK    5  A    between atoms: C_11  and  C_12 
REMARK    6  A    between atoms: C_12  and  C_13 
REMARK       I    between atoms: C_13  and  N_14 
REMARK    7  A    between atoms: N_14  and  C_18 
REMARK    8  A    between atoms: C_17  and  C_18 
REMARK    9  A    between atoms: C_18  and  C_19 
REMARK   10  A    between atoms: C_19  and  C_20 
REMARK   11  A    between atoms: C_20  and  N_21 
REMARK   12  A    between atoms: N_21  and  C_25 
REMARK   13  A    between atoms: C_24  and  C_25 
REMARK   14  A    between atoms: C_25  and  C_26 
REMARK   15  A    between atoms: C_26  and  C_28 
REMARK       I    between atoms: N_27  and  C_28 
ROOT
HETATM    1  O           1     -30.984  -2.965 -17.320  0.00  0.00    -0.271 OA
HETATM    2  C           1     -31.242  -4.139 -17.197  0.00  0.00     0.249 C 
HETATM    3  N           1     -32.405  -4.523 -16.587  0.00  0.00    -0.345 N 
HETATM    4  H           1     -32.621  -5.507 -16.484  0.00  0.00     0.163 HD
ENDROOT
BRANCH   3   5
HETATM    5  C           1     -33.328  -3.523 -16.088  0.00  0.00     0.187 C 
BRANCH   5   6
HETATM    6  C           1     -34.297  -4.169 -15.128  0.00  0.00     0.196 C 
HETATM    7  O           1     -34.360  -3.773 -13.944  0.00  0.00    -0.646 OA
HETATM    8  O           1     -35.036  -5.099 -15.517  0.00  0.00    -0.646 OA
ENDBRANCH   5   6
BRANCH   5   9
HETATM    9  C           1     -34.096  -2.914 -17.254  0.00  0.00     0.066 C 
BRANCH   9  10
HETATM   10  C           1     -35.259  -2.088 -16.721  0.00  0.00     0.273 C 
BRANCH  10  11
HETATM   11  N           1     -34.752  -0.903 -16.081  0.00  0.00     0.099 N 
HETATM   12  H           1     -34.580  -0.184 -16.785  0.00  0.00     0.317 HD
BRANCH  11  13
HETATM   13  C           1     -35.754  -0.441 -15.159  0.00  0.00     0.328 C 
BRANCH  13  14
HETATM   14  C           1     -36.608   0.607 -15.829  0.00  0.00     0.207 C 
HETATM   15  O           1     -36.129   1.733 -16.084  0.00  0.00    -0.646 OA
HETATM   16  O           1     -37.794   0.349 -16.128  0.00  0.00    -0.646 OA
ENDBRANCH  13  14
BRANCH  13  17
HETATM   17  C           1     -35.077   0.160 -13.935  0.00  0.00     0.149 C 
BRANCH  17  18
HETATM   18  C           1     -35.711  -0.397 -12.684  0.00  0.00     0.217 C 
HETATM   19  N           1     -35.522   0.232 -11.482  0.00  0.00    -0.370 N 
HETATM   20  H           1     -35.947  -0.142 -10.644  0.00  0.00     0.159 HD
HETATM   21  H           1     -34.957   1.070 -11.433  0.00  0.00     0.159 HD
HETATM   22  O           1     -36.386  -1.397 -12.743  0.00  0.00    -0.274 OA
ENDBRANCH  17  18
ENDBRANCH  13  17
ENDBRANCH  11  13
ENDBRANCH  10  11
ENDBRANCH   9  10
ENDBRANCH   5   9
ENDBRANCH   3   5
BRANCH   2  23
HETATM   23  C           1     -30.281  -5.181 -17.715  0.00  0.00     0.274 C 
BRANCH  23  24
HETATM   24  N           1     -29.273  -4.528 -18.614  0.00  0.00    -0.067 N 
HETATM   25  H           1     -28.684  -5.262 -19.069  0.00  0.00     0.275 HD
HETATM   26  H           1     -29.770  -3.975 -19.349  0.00  0.00     0.275 HD
HETATM   27  H           1     -28.664  -3.892 -18.050  0.00  0.00     0.275 HD
ENDBRANCH  23  24
BRANCH  23  28
HETATM   28  C           1     -29.564  -5.838 -16.543  0.00  0.00     0.044 C 
BRANCH  28  29
HETATM   29  C           1     -28.189  -5.207 -16.369  0.00  0.00     0.023 C 
BRANCH  29  30
HETATM   30  C           1     -27.204  -6.261 -15.881  0.00  0.00     0.138 C 
BRANCH  30  31
HETATM   31  N           1     -26.304  -6.639 -16.980  0.00  0.00    -0.227 N 
HETATM   32  C           1     -25.118  -7.005 -16.731  0.00  0.00     0.665 C 
HETATM   33  N           1     -24.697  -7.047 -15.502  0.00  0.00    -0.235 N 
HETATM   34  N           1     -24.345  -7.331 -17.678  0.00  0.00    -0.235 N 
HETATM   35  H           1     -23.717  -7.348 -15.296  0.00  0.00     0.174 HD
HETATM   36  H           1     -25.336  -6.778 -14.720  0.00  0.00     0.174 HD
HETATM   37  H           1     -23.360  -7.635 -17.471  0.00  0.00     0.174 HD
HETATM   38  H           1     -24.685  -7.298 -18.671  0.00  0.00     0.174 HD
HETATM   39  H           1     -26.646  -6.607 -17.973  0.00  0.00     0.177 HD
ENDBRANCH  30  31
ENDBRANCH  29  30
ENDBRANCH  28  29
ENDBRANCH  23  28
ENDBRANCH   2  23
TORSDOF 15
ENDMDL
MODEL 7
REMARK VINA RESULT:      -6.1      3.575      7.421
REMARK  15 active torsions:
REMARK  status: ('A' for Active; 'I' for Inactive)
REMARK    1  A    between atoms: N_4  and  C_12 
REMARK       I    between atoms: N_5  and  C_7 
REMARK       I    between atoms: N_6  and  C_7 
REMARK    2  A    between atoms: N_8  and  C_9 
REMARK    3  A    between atoms: C_9  and  C_10 
REMARK    4  A    between atoms: C_10  and  C_11 
REMARK    5  A    between atoms: C_11  and  C_12 
REMARK    6  A    between atoms: C_12  and  C_13 
REMARK       I    between atoms: C_13  and  N_14 
REMARK    7  A    between atoms: N_14  and  C_18 
REMARK    8  A    between atoms: C_17  and  C_18 
REMARK    9  A    between atoms: C_18  and  C_19 
REMARK   10  A    between atoms: C_19  and  C_20 
REMARK   11  A    between atoms: C_20  and  N_21 
REMARK   12  A    between atoms: N_21  and  C_25 
REMARK   13  A    between atoms: C_24  and  C_25 
REMARK   14  A    between atoms: C_25  and  C_26 
REMARK   15  A    between atoms: C_26  and  C_28 
REMARK       I    between atoms: N_27  and  C_28 
ROOT
HETATM    1  O           1     -33.023  -3.696 -12.905  0.00  0.00    -0.271 OA
HETATM    2  C           1     -33.991  -4.333 -13.245  0.00  0.00     0.249 C 
HETATM    3  N           1     -34.259  -4.514 -14.575  0.00  0.00    -0.345 N 
HETATM    4  H           1     -35.071  -5.048 -14.860  0.00  0.00     0.163 HD
ENDROOT
BRANCH   3   5
HETATM    5  C           1     -33.380  -3.943 -15.577  0.00  0.00     0.187 C 
BRANCH   5   6
HETATM    6  C           1     -34.160  -2.979 -16.438  0.00  0.00     0.196 C 
HETATM    7  O           1     -33.708  -2.627 -17.548  0.00  0.00    -0.646 OA
HETATM    8  O           1     -35.258  -2.533 -16.040  0.00  0.00    -0.646 OA
ENDBRANCH   5   6
BRANCH   5   9
HETATM    9  C           1     -32.810  -5.056 -16.447  0.00  0.00     0.066 C 
BRANCH   9  10
HETATM   10  C           1     -31.380  -4.710 -16.841  0.00  0.00     0.273 C 
BRANCH  10  11
HETATM   11  N           1     -30.546  -5.873 -16.691  0.00  0.00     0.099 N 
HETATM   12  H           1     -31.089  -6.628 -16.271  0.00  0.00     0.317 HD
BRANCH  11  13
HETATM   13  C           1     -30.108  -6.268 -18.001  0.00  0.00     0.328 C 
BRANCH  13  14
HETATM   14  C           1     -29.929  -7.766 -18.040  0.00  0.00     0.207 C 
HETATM   15  O           1     -30.172  -8.398 -19.091  0.00  0.00    -0.646 OA
HETATM   16  O           1     -29.536  -8.375 -17.021  0.00  0.00    -0.646 OA
ENDBRANCH  13  14
BRANCH  13  17
HETATM   17  C           1     -28.782  -5.589 -18.319  0.00  0.00     0.149 C 
BRANCH  17  18
HETATM   18  C           1     -27.913  -5.580 -17.085  0.00  0.00     0.217 C 
HETATM   19  N           1     -27.083  -6.638 -16.824  0.00  0.00    -0.370 N 
HETATM   20  H           1     -26.501  -6.632 -15.997  0.00  0.00     0.159 HD
HETATM   21  H           1     -27.053  -7.426 -17.459  0.00  0.00     0.159 HD
HETATM   22  O           1     -27.949  -4.640 -16.327  0.00  0.00    -0.274 OA
ENDBRANCH  17  18
ENDBRANCH  13  17
ENDBRANCH  11  13
ENDBRANCH  10  11
ENDBRANCH   9  10
ENDBRANCH   5   9
ENDBRANCH   3   5
BRANCH   2  23
HETATM   23  C           1     -34.907  -4.927 -12.203  0.00  0.00     0.274 C 
BRANCH  23  24
HETATM   24  N           1     -34.511  -6.351 -11.945  0.00  0.00    -0.067 N 
HETATM   25  H           1     -34.000  -6.727 -12.775  0.00  0.00     0.275 HD
HETATM   26  H           1     -33.890  -6.392 -11.105  0.00  0.00     0.275 HD
HETATM   27  H           1     -35.368  -6.926 -11.773  0.00  0.00     0.275 HD
ENDBRANCH  23  24
BRANCH  23  28
HETATM   28  C           1     -34.794  -4.128 -10.912  0.00  0.00     0.044 C 
BRANCH  28  29
HETATM   29  C           1     -35.963  -3.157 -10.809  0.00  0.00     0.023 C 
BRANCH  29  30
HETATM   30  C           1     -35.435  -1.731 -10.742  0.00  0.00     0.138 C 
BRANCH  30  31
HETATM   31  N           1     -34.802  -1.380 -12.022  0.00  0.00    -0.227 N 
HETATM   32  C           1     -35.428  -0.675 -12.866  0.00  0.00     0.665 C 
HETATM   33  N           1     -36.631  -0.261 -12.601  0.00  0.00    -0.235 N 
HETATM   34  N           1     -34.882  -0.374 -13.967  0.00  0.00    -0.235 N 
HETATM   35  H           1     -37.149   0.322 -13.298  0.00  0.00     0.174 HD
HETATM   36  H           1     -37.082  -0.509 -11.691  0.00  0.00     0.174 HD
HETATM   37  H           1     -35.402   0.212 -14.668  0.00  0.00     0.174 HD
HETATM   38  H           1     -33.911  -0.708 -14.182  0.00  0.00     0.174 HD
HETATM   39  H           1     -33.829  -1.715 -12.235  0.00  0.00     0.177 HD
ENDBRANCH  30  31
ENDBRANCH  29  30
ENDBRANCH  28  29
ENDBRANCH  23  28
ENDBRANCH   2  23
TORSDOF 15
ENDMDL
MODEL 8
REMARK VINA RESULT:      -6.0     15.430     17.790
REMARK  15 active torsions:
REMARK  status: ('A' for Active; 'I' for Inactive)
REMARK    1  A    between atoms: N_4  and  C_12 
REMARK       I    between atoms: N_5  and  C_7 
REMARK       I    between atoms: N_6  and  C_7 
REMARK    2  A    between atoms: N_8  and  C_9 
REMARK    3  A    between atoms: C_9  and  C_10 
REMARK    4  A    between atoms: C_10  and  C_11 
REMARK    5  A    between atoms: C_11  and  C_12 
REMARK    6  A    between atoms: C_12  and  C_13 
REMARK       I    between atoms: C_13  and  N_14 
REMARK    7  A    between atoms: N_14  and  C_18 
REMARK    8  A    between atoms: C_17  and  C_18 
REMARK    9  A    between atoms: C_18  and  C_19 
REMARK   10  A    between atoms: C_19  and  C_20 
REMARK   11  A    between atoms: C_20  and  N_21 
REMARK   12  A    between atoms: N_21  and  C_25 
REMARK   13  A    between atoms: C_24  and  C_25 
REMARK   14  A    between atoms: C_25  and  C_26 
REMARK   15  A    between atoms: C_26  and  C_28 
REMARK       I    between atoms: N_27  and  C_28 
ROOT
HETATM    1  O           1     -22.034  -7.634  -5.137  0.00  0.00    -0.271 OA
HETATM    2  C           1     -21.259  -6.755  -4.843  0.00  0.00     0.249 C 
HETATM    3  N           1     -20.829  -6.628  -3.550  0.00  0.00    -0.345 N 
HETATM    4  H           1     -20.179  -5.891  -3.303  0.00  0.00     0.163 HD
ENDROOT
BRANCH   3   5
HETATM    5  C           1     -21.301  -7.547  -2.533  0.00  0.00     0.187 C 
BRANCH   5   6
HETATM    6  C           1     -22.193  -6.809  -1.565  0.00  0.00     0.196 C 
HETATM    7  O           1     -22.452  -5.601  -1.751  0.00  0.00    -0.646 OA
HETATM    8  O           1     -22.673  -7.407  -0.578  0.00  0.00    -0.646 OA
ENDBRANCH   5   6
BRANCH   5   9
HETATM    9  C           1     -20.110  -8.132  -1.784  0.00  0.00     0.066 C 
BRANCH   9  10
HETATM   10  C           1     -19.652  -9.409  -2.476  0.00  0.00     0.273 C 
BRANCH  10  11
HETATM   11  N           1     -18.587  -9.102  -3.393  0.00  0.00     0.099 N 
HETATM   12  H           1     -17.998  -8.369  -2.998  0.00  0.00     0.317 HD
BRANCH  11  13
HETATM   13  C           1     -17.808 -10.297  -3.574  0.00  0.00     0.328 C 
BRANCH  13  14
HETATM   14  C           1     -16.343  -9.938  -3.627  0.00  0.00     0.207 C 
HETATM   15  O           1     -15.804  -9.370  -2.653  0.00  0.00    -0.646 OA
HETATM   16  O           1     -15.670 -10.210  -4.645  0.00  0.00    -0.646 OA
ENDBRANCH  13  14
BRANCH  13  17
HETATM   17  C           1     -18.213 -10.974  -4.876  0.00  0.00     0.149 C 
BRANCH  17  18
HETATM   18  C           1     -19.022 -10.013  -5.713  0.00  0.00     0.217 C 
HETATM   19  N           1     -20.358 -10.236  -5.914  0.00  0.00    -0.370 N 
HETATM   20  H           1     -20.900  -9.592  -6.475  0.00  0.00     0.159 HD
HETATM   21  H           1     -20.803 -11.046  -5.501  0.00  0.00     0.159 HD
HETATM   22  O           1     -18.490  -9.046  -6.206  0.00  0.00    -0.274 OA
ENDBRANCH  17  18
ENDBRANCH  13  17
ENDBRANCH  11  13
ENDBRANCH  10  11
ENDBRANCH   9  10
ENDBRANCH   5   9
ENDBRANCH   3   5
BRANCH   2  23
HETATM   23  C           1     -20.768  -5.797  -5.900  0.00  0.00     0.274 C 
BRANCH  23  24
HETATM   24  N           1     -19.952  -6.546  -6.912  0.00  0.00    -0.067 N 
HETATM   25  H           1     -20.042  -7.572  -6.741  0.00  0.00     0.275 HD
HETATM   26  H           1     -20.297  -6.320  -7.872  0.00  0.00     0.275 HD
HETATM   27  H           1     -18.948  -6.265  -6.827  0.00  0.00     0.275 HD
ENDBRANCH  23  24
BRANCH  23  28
HETATM   28  C           1     -21.960  -5.148  -6.591  0.00  0.00     0.044 C 
BRANCH  28  29
HETATM   29  C           1     -21.505  -3.886  -7.312  0.00  0.00     0.023 C 
BRANCH  29  30
HETATM   30  C           1     -22.055  -3.887  -8.733  0.00  0.00     0.138 C 
BRANCH  30  31
HETATM   31  N           1     -23.489  -3.565  -8.705  0.00  0.00    -0.227 N 
HETATM   32  C           1     -24.240  -3.937  -9.653  0.00  0.00     0.665 C 
HETATM   33  N           1     -23.744  -4.604 -10.651  0.00  0.00    -0.235 N 
HETATM   34  N           1     -25.475  -3.659  -9.627  0.00  0.00    -0.235 N 
HETATM   35  H           1     -24.364  -4.911 -11.435  0.00  0.00     0.174 HD
HETATM   36  H           1     -22.724  -4.834 -10.672  0.00  0.00     0.174 HD
HETATM   37  H           1     -26.099  -3.968 -10.414  0.00  0.00     0.174 HD
HETATM   38  H           1     -25.877  -3.120  -8.821  0.00  0.00     0.174 HD
HETATM   39  H           1     -23.890  -3.026  -7.897  0.00  0.00     0.177 HD
ENDBRANCH  30  31
ENDBRANCH  29  30
ENDBRANCH  28  29
ENDBRANCH  23  28
ENDBRANCH   2  23
TORSDOF 15
ENDMDL
MODEL 9
REMARK VINA RESULT:      -5.9     14.541     17.067
REMARK  15 active torsions:
REMARK  status: ('A' for Active; 'I' for Inactive)
REMARK    1  A    between atoms: N_4  and  C_12 
REMARK       I    between atoms: N_5  and  C_7 
REMARK       I    between atoms: N_6  and  C_7 
REMARK    2  A    between atoms: N_8  and  C_9 
REMARK    3  A    between atoms: C_9  and  C_10 
REMARK    4  A    between atoms: C_10  and  C_11 
REMARK    5  A    between atoms: C_11  and  C_12 
REMARK    6  A    between atoms: C_12  and  C_13 
REMARK       I    between atoms: C_13  and  N_14 
REMARK    7  A    between atoms: N_14  and  C_18 
REMARK    8  A    between atoms: C_17  and  C_18 
REMARK    9  A    between atoms: C_18  and  C_19 
REMARK   10  A    between atoms: C_19  and  C_20 
REMARK   11  A    between atoms: C_20  and  N_21 
REMARK   12  A    between atoms: N_21  and  C_25 
REMARK   13  A    between atoms: C_24  and  C_25 
REMARK   14  A    between atoms: C_25  and  C_26 
REMARK   15  A    between atoms: C_26  and  C_28 
REMARK       I    between atoms: N_27  and  C_28 
ROOT
HETATM    1  O           1     -21.681  -7.814  -5.424  0.00  0.00    -0.271 OA
HETATM    2  C           1     -21.200  -6.774  -5.043  0.00  0.00     0.249 C 
HETATM    3  N           1     -21.036  -6.545  -3.704  0.00  0.00    -0.345 N 
HETATM    4  H           1     -20.632  -5.672  -3.385  0.00  0.00     0.163 HD
ENDROOT
BRANCH   3   5
HETATM    5  C           1     -21.438  -7.550  -2.741  0.00  0.00     0.187 C 
BRANCH   5   6
HETATM    6  C           1     -22.148  -6.884  -1.587  0.00  0.00     0.196 C 
HETATM    7  O           1     -22.475  -7.556  -0.584  0.00  0.00    -0.646 OA
HETATM    8  O           1     -22.407  -5.663  -1.634  0.00  0.00    -0.646 OA
ENDBRANCH   5   6
BRANCH   5   9
HETATM    9  C           1     -20.206  -8.284  -2.227  0.00  0.00     0.066 C 
BRANCH   9  10
HETATM   10  C           1     -20.202  -9.709  -2.763  0.00  0.00     0.273 C 
BRANCH  10  11
HETATM   11  N           1     -21.528 -10.064  -3.194  0.00  0.00     0.099 N 
HETATM   12  H           1     -21.523 -10.245  -4.198  0.00  0.00     0.317 HD
BRANCH  11  13
HETATM   13  C           1     -21.910 -11.259  -2.493  0.00  0.00     0.328 C 
BRANCH  13  14
HETATM   14  C           1     -22.410 -12.284  -3.482  0.00  0.00     0.207 C 
HETATM   15  O           1     -22.823 -13.392  -3.078  0.00  0.00    -0.646 OA
HETATM   16  O           1     -22.410 -12.023  -4.705  0.00  0.00    -0.646 OA
ENDBRANCH  13  14
BRANCH  13  17
HETATM   17  C           1     -23.015 -10.932  -1.497  0.00  0.00     0.149 C 
BRANCH  17  18
HETATM   18  C           1     -22.505 -11.142  -0.092  0.00  0.00     0.217 C 
HETATM   19  N           1     -21.635 -10.242   0.462  0.00  0.00    -0.370 N 
HETATM   20  H           1     -21.294 -10.382   1.404  0.00  0.00     0.159 HD
HETATM   21  H           1     -21.334  -9.435  -0.070  0.00  0.00     0.159 HD
HETATM   22  O           1     -22.865 -12.105   0.544  0.00  0.00    -0.274 OA
ENDBRANCH  17  18
ENDBRANCH  13  17
ENDBRANCH  11  13
ENDBRANCH  10  11
ENDBRANCH   9  10
ENDBRANCH   5   9
ENDBRANCH   3   5
BRANCH   2  23
HETATM   23  C           1     -20.781  -5.725  -6.045  0.00  0.00     0.274 C 
BRANCH  23  24
HETATM   24  N           1     -19.956  -6.366  -7.123  0.00  0.00    -0.067 N 
HETATM   25  H           1     -20.580  -6.906  -7.764  0.00  0.00     0.275 HD
HETATM   26  H           1     -19.456  -5.625  -7.664  0.00  0.00     0.275 HD
HETATM   27  H           1     -19.258  -7.013  -6.689  0.00  0.00     0.275 HD
ENDBRANCH  23  24
BRANCH  23  28
HETATM   28  C           1     -22.020  -5.092  -6.665  0.00  0.00     0.044 C 
BRANCH  28  29
HETATM   29  C           1     -21.627  -3.813  -7.393  0.00  0.00     0.023 C 
BRANCH  29  30
HETATM   30  C           1     -22.166  -3.852  -8.816  0.00  0.00     0.138 C 
BRANCH  30  31
HETATM   31  N           1     -23.591  -3.488  -8.812  0.00  0.00    -0.227 N 
HETATM   32  C           1     -24.355  -3.909  -9.729  0.00  0.00     0.665 C 
HETATM   33  N           1     -23.879  -4.663 -10.675  0.00  0.00    -0.235 N 
HETATM   34  N           1     -25.581  -3.595  -9.725  0.00  0.00    -0.235 N 
HETATM   35  H           1     -24.510  -5.011 -11.433  0.00  0.00     0.174 HD
HETATM   36  H           1     -22.867  -4.922 -10.679  0.00  0.00     0.174 HD
HETATM   37  H           1     -26.215  -3.945 -10.486  0.00  0.00     0.174 HD
HETATM   38  H           1     -25.965  -2.986  -8.961  0.00  0.00     0.174 HD
HETATM   39  H           1     -23.974  -2.879  -8.047  0.00  0.00     0.177 HD
ENDBRANCH  30  31
ENDBRANCH  29  30
ENDBRANCH  28  29
ENDBRANCH  23  28
ENDBRANCH   2  23
TORSDOF 15
ENDMDL
