MODEL 1
REMARK VINA RESULT:      -8.3      0.000      0.000
REMARK  8 active torsions:
REMARK  status: ('A' for Active; 'I' for Inactive)
REMARK    1  A    between atoms: N_4  and  C_10 
REMARK       I    between atoms: N_4  and  C_8 
REMARK    2  A    between atoms: C_8  and  C_9 
REMARK    3  A    between atoms: C_9  and  C_20 
REMARK    4  A    between atoms: C_9  and  N_30 
REMARK    5  A    between atoms: C_10  and  C_11 
REMARK    6  A    between atoms: C_10  and  C_16 
REMARK    7  A    between atoms: C_11  and  C_21 
REMARK       I    between atoms: N_12  and  C_21 
REMARK    8  A    between atoms: C_20  and  C_25 
ROOT
HETATM    1  C           1     -21.091  -5.405  -6.566  0.00  0.00     0.278 C 
ENDROOT
BRANCH   1   2
HETATM    2  C           1     -21.624  -4.393  -7.550  0.00  0.00     0.249 C 
HETATM    3  O           1     -21.491  -3.212  -7.334  0.00  0.00    -0.271 OA
HETATM    4  N           1     -22.258  -4.814  -8.688  0.00  0.00    -0.344 N 
HETATM    5  H           1     -22.370  -5.804  -8.868  0.00  0.00     0.163 HD
BRANCH   4   6
HETATM    6  C           1     -22.770  -3.842  -9.634  0.00  0.00     0.194 C 
BRANCH   6   7
HETATM    7  C           1     -22.243  -4.162 -11.026  0.00  0.00     0.138 C 
BRANCH   7   8
HETATM    8  C           1     -20.751  -3.944 -11.063  0.00  0.00     0.217 C 
HETATM    9  N           1     -20.245  -2.752 -11.505  0.00  0.00    -0.370 N 
HETATM   10  H           1     -20.871  -2.016 -11.806  0.00  0.00     0.159 HD
HETATM   11  H           1     -19.243  -2.605 -11.531  0.00  0.00     0.159 HD
HETATM   12  O           1     -20.002  -4.822 -10.703  0.00  0.00    -0.274 OA
ENDBRANCH   7   8
ENDBRANCH   6   7
BRANCH   6  13
HETATM   13  C           1     -24.278  -3.896  -9.643  0.00  0.00     0.197 C 
HETATM   14  O           1     -24.941  -2.847  -9.495  0.00  0.00    -0.646 OA
HETATM   15  O           1     -24.864  -4.989  -9.799  0.00  0.00    -0.646 OA
ENDBRANCH   6  13
ENDBRANCH   4   6
ENDBRANCH   1   2
BRANCH   1  16
HETATM   16  C           1     -22.221  -5.872  -5.656  0.00  0.00     0.083 C 
BRANCH  16  17
HETATM   17  C           1     -21.743  -7.014  -4.813  0.00  0.00    -0.028 A 
HETATM   18  C           1     -21.796  -7.088  -3.394  0.00  0.00    -0.002 A 
HETATM   19  C           1     -21.250  -8.318  -3.025  0.00  0.00     0.042 A 
HETATM   20  C           1     -22.259  -6.222  -2.384  0.00  0.00     0.014 A 
HETATM   21  N           1     -20.881  -8.960  -4.186  0.00  0.00    -0.365 N 
HETATM   22  C           1     -21.142  -8.727  -1.691  0.00  0.00     0.030 A 
HETATM   23  C           1     -21.176  -8.181  -5.274  0.00  0.00     0.096 A 
HETATM   24  H           1     -20.439  -9.911  -4.231  0.00  0.00     0.165 HD
HETATM   25  C           1     -21.608  -7.851  -0.707  0.00  0.00     0.002 A 
HETATM   26  C           1     -22.158  -6.616  -1.045  0.00  0.00     0.001 A 
ENDBRANCH  16  17
ENDBRANCH   1  16
BRANCH   1  27
HETATM   27  N           1     -20.012  -4.775  -5.736  0.00  0.00    -0.066 N 
HETATM   28  H           1     -20.199  -3.751  -5.643  0.00  0.00     0.275 HD
HETATM   29  H           1     -19.999  -5.215  -4.789  0.00  0.00     0.275 HD
HETATM   30  H           1     -19.086  -4.918  -6.200  0.00  0.00     0.275 HD
ENDBRANCH   1  27
TORSDOF 8
ENDMDL
MODEL 2
REMARK VINA RESULT:      -7.5      3.405      7.970
REMARK  8 active torsions:
REMARK  status: ('A' for Active; 'I' for Inactive)
REMARK    1  A    between atoms: N_4  and  C_10 
REMARK       I    between atoms: N_4  and  C_8 
REMARK    2  A    between atoms: C_8  and  C_9 
REMARK    3  A    between atoms: C_9  and  C_20 
REMARK    4  A    between atoms: C_9  and  N_30 
REMARK    5  A    between atoms: C_10  and  C_11 
REMARK    6  A    between atoms: C_10  and  C_16 
REMARK    7  A    between atoms: C_11  and  C_21 
REMARK       I    between atoms: N_12  and  C_21 
REMARK    8  A    between atoms: C_20  and  C_25 
ROOT
HETATM    1  C           1     -21.479  -6.335  -5.513  0.00  0.00     0.278 C 
ENDROOT
BRANCH   1   2
HETATM    2  C           1     -20.364  -7.350  -5.470  0.00  0.00     0.249 C 
HETATM    3  O           1     -19.496  -7.330  -6.310  0.00  0.00    -0.271 OA
HETATM    4  N           1     -20.335  -8.293  -4.479  0.00  0.00    -0.344 N 
HETATM    5  H           1     -21.063  -8.311  -3.776  0.00  0.00     0.163 HD
BRANCH   4   6
HETATM    6  C           1     -19.263  -9.269  -4.437  0.00  0.00     0.194 C 
BRANCH   6   7
HETATM    7  C           1     -18.823  -9.478  -2.995  0.00  0.00     0.138 C 
BRANCH   7   8
HETATM    8  C           1     -19.942  -9.086  -2.063  0.00  0.00     0.217 C 
HETATM    9  N           1     -20.820 -10.035  -1.611  0.00  0.00    -0.370 N 
HETATM   10  H           1     -20.717 -10.998  -1.901  0.00  0.00     0.159 HD
HETATM   11  H           1     -21.572  -9.772  -0.985  0.00  0.00     0.159 HD
HETATM   12  O           1     -20.066  -7.935  -1.715  0.00  0.00    -0.274 OA
ENDBRANCH   7   8
ENDBRANCH   6   7
BRANCH   6  13
HETATM   13  C           1     -19.752 -10.577  -5.007  0.00  0.00     0.197 C 
HETATM   14  O           1     -20.065 -11.515  -4.242  0.00  0.00    -0.646 OA
HETATM   15  O           1     -19.843 -10.724  -6.246  0.00  0.00    -0.646 OA
ENDBRANCH   6  13
ENDBRANCH   4   6
ENDBRANCH   1   2
BRANCH   1  16
HETATM   16  C           1     -20.973  -5.050  -6.157  0.00  0.00     0.083 C 
BRANCH  16  17
HETATM   17  C           1     -21.890  -4.655  -7.273  0.00  0.00    -0.028 A 
HETATM   18  C           1     -21.521  -4.465  -8.633  0.00  0.00    -0.002 A 
HETATM   19  C           1     -22.678  -4.106  -9.327  0.00  0.00     0.042 A 
HETATM   20  C           1     -20.309  -4.566  -9.344  0.00  0.00     0.014 A 
HETATM   21  N           1     -23.706  -4.081  -8.411  0.00  0.00    -0.365 N 
HETATM   22  C           1     -22.683  -3.840 -10.701  0.00  0.00     0.030 A 
HETATM   23  C           1     -23.241  -4.413  -7.166  0.00  0.00     0.096 A 
HETATM   24  H           1     -24.703  -3.843  -8.635  0.00  0.00     0.165 HD
HETATM   25  C           1     -21.468  -3.946 -11.384  0.00  0.00     0.002 A 
HETATM   26  C           1     -20.297  -4.303 -10.718  0.00  0.00     0.001 A 
ENDBRANCH  16  17
ENDBRANCH   1  16
BRANCH   1  27
HETATM   27  N           1     -21.944  -6.044  -4.118  0.00  0.00    -0.066 N 
HETATM   28  H           1     -22.972  -5.850  -4.127  0.00  0.00     0.275 HD
HETATM   29  H           1     -21.750  -6.868  -3.507  0.00  0.00     0.275 HD
HETATM   30  H           1     -21.437  -5.208  -3.748  0.00  0.00     0.275 HD
ENDBRANCH   1  27
TORSDOF 8
ENDMDL
MODEL 3
REMARK VINA RESULT:      -7.4      3.826      7.845
REMARK  8 active torsions:
REMARK  status: ('A' for Active; 'I' for Inactive)
REMARK    1  A    between atoms: N_4  and  C_10 
REMARK       I    between atoms: N_4  and  C_8 
REMARK    2  A    between atoms: C_8  and  C_9 
REMARK    3  A    between atoms: C_9  and  C_20 
REMARK    4  A    between atoms: C_9  and  N_30 
REMARK    5  A    between atoms: C_10  and  C_11 
REMARK    6  A    between atoms: C_10  and  C_16 
REMARK    7  A    between atoms: C_11  and  C_21 
REMARK       I    between atoms: N_12  and  C_21 
REMARK    8  A    between atoms: C_20  and  C_25 
ROOT
HETATM    1  C           1     -21.554  -6.557  -5.356  0.00  0.00     0.278 C 
ENDROOT
BRANCH   1   2
HETATM    2  C           1     -20.877  -7.904  -5.295  0.00  0.00     0.249 C 
HETATM    3  O           1     -21.297  -8.822  -5.959  0.00  0.00    -0.271 OA
HETATM    4  N           1     -19.788  -8.087  -4.486  0.00  0.00    -0.344 N 
HETATM    5  H           1     -19.438  -7.318  -3.929  0.00  0.00     0.163 HD
BRANCH   4   6
HETATM    6  C           1     -19.138  -9.381  -4.426  0.00  0.00     0.194 C 
BRANCH   6   7
HETATM    7  C           1     -18.064  -9.460  -5.502  0.00  0.00     0.138 C 
BRANCH   7   8
HETATM    8  C           1     -18.156 -10.789  -6.210  0.00  0.00     0.217 C 
HETATM    9  N           1     -19.358 -11.218  -6.705  0.00  0.00    -0.370 N 
HETATM   10  H           1     -20.184 -10.645  -6.596  0.00  0.00     0.159 HD
HETATM   11  H           1     -19.420 -12.110  -7.181  0.00  0.00     0.159 HD
HETATM   12  O           1     -17.170 -11.474  -6.342  0.00  0.00    -0.274 OA
ENDBRANCH   7   8
ENDBRANCH   6   7
BRANCH   6  13
HETATM   13  C           1     -18.505  -9.563  -3.069  0.00  0.00     0.197 C 
HETATM   14  O           1     -17.303  -9.264  -2.895  0.00  0.00    -0.646 OA
HETATM   15  O           1     -19.181 -10.013  -2.118  0.00  0.00    -0.646 OA
ENDBRANCH   6  13
ENDBRANCH   4   6
ENDBRANCH   1   2
BRANCH   1  16
HETATM   16  C           1     -20.777  -5.641  -6.293  0.00  0.00     0.083 C 
BRANCH  16  17
HETATM   17  C           1     -21.724  -4.982  -7.248  0.00  0.00    -0.028 A 
HETATM   18  C           1     -21.436  -4.608  -8.589  0.00  0.00    -0.002 A 
HETATM   19  C           1     -22.594  -4.031  -9.112  0.00  0.00     0.042 A 
HETATM   20  C           1     -20.298  -4.707  -9.412  0.00  0.00     0.014 A 
HETATM   21  N           1     -23.544  -4.058  -8.115  0.00  0.00    -0.365 N 
HETATM   22  C           1     -22.671  -3.544 -10.422  0.00  0.00     0.030 A 
HETATM   23  C           1     -23.029  -4.632  -6.984  0.00  0.00     0.096 A 
HETATM   24  H           1     -24.524  -3.692  -8.211  0.00  0.00     0.165 HD
HETATM   25  C           1     -21.527  -3.653 -11.219  0.00  0.00     0.002 A 
HETATM   26  C           1     -20.357  -4.225 -10.724  0.00  0.00     0.001 A 
ENDBRANCH  16  17
ENDBRANCH   1  16
BRANCH   1  27
HETATM   27  N           1     -21.591  -5.953  -3.984  0.00  0.00    -0.066 N 
HETATM   28  H           1     -21.335  -6.680  -3.277  0.00  0.00     0.275 HD
HETATM   29  H           1     -20.909  -5.163  -3.933  0.00  0.00     0.275 HD
HETATM   30  H           1     -22.553  -5.597  -3.784  0.00  0.00     0.275 HD
ENDBRANCH   1  27
TORSDOF 8
ENDMDL
MODEL 4
REMARK VINA RESULT:      -7.4      3.632      8.036
REMARK  8 active torsions:
REMARK  status: ('A' for Active; 'I' for Inactive)
REMARK    1  A    between atoms: N_4  and  C_10 
REMARK       I    between atoms: N_4  and  C_8 
REMARK    2  A    between atoms: C_8  and  C_9 
REMARK    3  A    between atoms: C_9  and  C_20 
REMARK    4  A    between atoms: C_9  and  N_30 
REMARK    5  A    between atoms: C_10  and  C_11 
REMARK    6  A    between atoms: C_10  and  C_16 
REMARK    7  A    between atoms: C_11  and  C_21 
REMARK       I    between atoms: N_12  and  C_21 
REMARK    8  A    between atoms: C_20  and  C_25 
ROOT
HETATM    1  C           1     -21.691  -6.474  -5.482  0.00  0.00     0.278 C 
ENDROOT
BRANCH   1   2
HETATM    2  C           1     -20.967  -7.388  -4.525  0.00  0.00     0.249 C 
HETATM    3  O           1     -19.857  -7.784  -4.790  0.00  0.00    -0.271 OA
HETATM    4  N           1     -21.568  -7.770  -3.356  0.00  0.00    -0.344 N 
HETATM    5  H           1     -22.499  -7.440  -3.135  0.00  0.00     0.163 HD
BRANCH   4   6
HETATM    6  C           1     -20.874  -8.650  -2.437  0.00  0.00     0.194 C 
BRANCH   6   7
HETATM    7  C           1     -20.812  -7.999  -1.061  0.00  0.00     0.138 C 
BRANCH   7   8
HETATM    8  C           1     -22.174  -7.465  -0.694  0.00  0.00     0.217 C 
HETATM    9  N           1     -22.992  -8.188   0.132  0.00  0.00    -0.370 N 
HETATM   10  H           1     -22.684  -9.080   0.495  0.00  0.00     0.159 HD
HETATM   11  H           1     -23.907  -7.830   0.379  0.00  0.00     0.159 HD
HETATM   12  O           1     -22.542  -6.399  -1.127  0.00  0.00    -0.274 OA
ENDBRANCH   7   8
ENDBRANCH   6   7
BRANCH   6  13
HETATM   13  C           1     -21.612  -9.961  -2.339  0.00  0.00     0.197 C 
HETATM   14  O           1     -22.310 -10.358  -3.297  0.00  0.00    -0.646 OA
HETATM   15  O           1     -21.526 -10.652  -1.301  0.00  0.00    -0.646 OA
ENDBRANCH   6  13
ENDBRANCH   4   6
ENDBRANCH   1   2
BRANCH   1  16
HETATM   16  C           1     -20.934  -5.157  -5.597  0.00  0.00     0.083 C 
BRANCH  16  17
HETATM   17  C           1     -20.702  -4.838  -7.042  0.00  0.00    -0.028 A 
HETATM   18  C           1     -21.693  -4.445  -7.982  0.00  0.00    -0.002 A 
HETATM   19  C           1     -21.046  -4.248  -9.203  0.00  0.00     0.042 A 
HETATM   20  C           1     -23.084  -4.237  -7.912  0.00  0.00     0.014 A 
HETATM   21  N           1     -19.710  -4.514  -8.999  0.00  0.00    -0.365 N 
HETATM   22  C           1     -21.723  -3.852 -10.362  0.00  0.00     0.030 A 
HETATM   23  C           1     -19.491  -4.871  -7.695  0.00  0.00     0.096 A 
HETATM   24  H           1     -18.967  -4.451  -9.738  0.00  0.00     0.165 HD
HETATM   25  C           1     -23.103  -3.653 -10.268  0.00  0.00     0.002 A 
HETATM   26  C           1     -23.777  -3.842  -9.062  0.00  0.00     0.001 A 
ENDBRANCH  16  17
ENDBRANCH   1  16
BRANCH   1  27
HETATM   27  N           1     -23.075  -6.209  -4.970  0.00  0.00    -0.066 N 
HETATM   28  H           1     -23.061  -6.187  -3.925  0.00  0.00     0.275 HD
HETATM   29  H           1     -23.412  -5.290  -5.333  0.00  0.00     0.275 HD
HETATM   30  H           1     -23.718  -6.968  -5.292  0.00  0.00     0.275 HD
ENDBRANCH   1  27
TORSDOF 8
ENDMDL
MODEL 5
REMARK VINA RESULT:      -7.0      3.148      7.613
REMARK  8 active torsions:
REMARK  status: ('A' for Active; 'I' for Inactive)
REMARK    1  A    between atoms: N_4  and  C_10 
REMARK       I    between atoms: N_4  and  C_8 
REMARK    2  A    between atoms: C_8  and  C_9 
REMARK    3  A    between atoms: C_9  and  C_20 
REMARK    4  A    between atoms: C_9  and  N_30 
REMARK    5  A    between atoms: C_10  and  C_11 
REMARK    6  A    between atoms: C_10  and  C_16 
REMARK    7  A    between atoms: C_11  and  C_21 
REMARK       I    between atoms: N_12  and  C_21 
REMARK    8  A    between atoms: C_20  and  C_25 
ROOT
HETATM    1  C           1     -20.167  -5.819  -5.963  0.00  0.00     0.278 C 
ENDROOT
BRANCH   1   2
HETATM    2  C           1     -20.905  -6.486  -4.829  0.00  0.00     0.249 C 
HETATM    3  O           1     -21.702  -5.857  -4.175  0.00  0.00    -0.271 OA
HETATM    4  N           1     -20.671  -7.803  -4.541  0.00  0.00    -0.344 N 
HETATM    5  H           1     -20.002  -8.330  -5.089  0.00  0.00     0.163 HD
BRANCH   4   6
HETATM    6  C           1     -21.380  -8.445  -3.451  0.00  0.00     0.194 C 
BRANCH   6   7
HETATM    7  C           1     -21.796  -9.847  -3.871  0.00  0.00     0.138 C 
BRANCH   7   8
HETATM    8  C           1     -20.902 -10.326  -4.988  0.00  0.00     0.217 C 
HETATM    9  N           1     -19.791 -11.073  -4.702  0.00  0.00    -0.370 N 
HETATM   10  H           1     -19.570 -11.305  -3.742  0.00  0.00     0.159 HD
HETATM   11  H           1     -19.190 -11.395  -5.451  0.00  0.00     0.159 HD
HETATM   12  O           1     -21.166 -10.051  -6.135  0.00  0.00    -0.274 OA
ENDBRANCH   7   8
ENDBRANCH   6   7
BRANCH   6  13
HETATM   13  C           1     -20.478  -8.528  -2.245  0.00  0.00     0.197 C 
HETATM   14  O           1     -20.569  -7.674  -1.336  0.00  0.00    -0.646 OA
HETATM   15  O           1     -19.640  -9.452  -2.153  0.00  0.00    -0.646 OA
ENDBRANCH   6  13
ENDBRANCH   4   6
ENDBRANCH   1   2
BRANCH   1  16
HETATM   16  C           1     -20.657  -4.385  -6.115  0.00  0.00     0.083 C 
BRANCH  16  17
HETATM   17  C           1     -21.690  -4.322  -7.198  0.00  0.00    -0.028 A 
HETATM   18  C           1     -21.438  -4.152  -8.587  0.00  0.00    -0.002 A 
HETATM   19  C           1     -22.676  -4.150  -9.232  0.00  0.00     0.042 A 
HETATM   20  C           1     -20.272  -4.001  -9.361  0.00  0.00     0.014 A 
HETATM   21  N           1     -23.638  -4.313  -8.259  0.00  0.00    -0.365 N 
HETATM   22  C           1     -22.806  -4.003 -10.617  0.00  0.00     0.030 A 
HETATM   23  C           1     -23.052  -4.418  -7.026  0.00  0.00     0.096 A 
HETATM   24  H           1     -24.672  -4.352  -8.439  0.00  0.00     0.165 HD
HETATM   25  C           1     -21.634  -3.853 -11.364  0.00  0.00     0.002 A 
HETATM   26  C           1     -20.384  -3.851 -10.748  0.00  0.00     0.001 A 
ENDBRANCH  16  17
ENDBRANCH   1  16
BRANCH   1  27
HETATM   27  N           1     -20.422  -6.570  -7.236  0.00  0.00    -0.066 N 
HETATM   28  H           1     -20.940  -7.453  -7.021  0.00  0.00     0.275 HD
HETATM   29  H           1     -20.993  -5.980  -7.881  0.00  0.00     0.275 HD
HETATM   30  H           1     -19.512  -6.805  -7.693  0.00  0.00     0.275 HD
ENDBRANCH   1  27
TORSDOF 8
ENDMDL
MODEL 6
REMARK VINA RESULT:      -7.0      3.542      8.157
REMARK  8 active torsions:
REMARK  status: ('A' for Active; 'I' for Inactive)
REMARK    1  A    between atoms: N_4  and  C_10 
REMARK       I    between atoms: N_4  and  C_8 
REMARK    2  A    between atoms: C_8  and  C_9 
REMARK    3  A    between atoms: C_9  and  C_20 
REMARK    4  A    between atoms: C_9  and  N_30 
REMARK    5  A    between atoms: C_10  and  C_11 
REMARK    6  A    between atoms: C_10  and  C_16 
REMARK    7  A    between atoms: C_11  and  C_21 
REMARK       I    between atoms: N_12  and  C_21 
REMARK    8  A    between atoms: C_20  and  C_25 
ROOT
HETATM    1  C           1     -20.364  -6.188  -6.109  0.00  0.00     0.278 C 
ENDROOT
BRANCH   1   2
HETATM    2  C           1     -20.468  -6.473  -4.631  0.00  0.00     0.249 C 
HETATM    3  O           1     -20.767  -5.588  -3.865  0.00  0.00    -0.271 OA
HETATM    4  N           1     -20.223  -7.734  -4.158  0.00  0.00    -0.344 N 
HETATM    5  H           1     -19.971  -8.475  -4.800  0.00  0.00     0.163 HD
BRANCH   4   6
HETATM    6  C           1     -20.322  -8.008  -2.738  0.00  0.00     0.194 C 
BRANCH   6   7
HETATM    7  C           1     -21.768  -8.326  -2.382  0.00  0.00     0.138 C 
BRANCH   7   8
HETATM    8  C           1     -22.231  -7.405  -1.280  0.00  0.00     0.217 C 
HETATM    9  N           1     -22.339  -6.061  -1.513  0.00  0.00    -0.370 N 
HETATM   10  H           1     -22.109  -5.684  -2.423  0.00  0.00     0.159 HD
HETATM   11  H           1     -22.649  -5.442  -0.773  0.00  0.00     0.159 HD
HETATM   12  O           1     -22.507  -7.854  -0.193  0.00  0.00    -0.274 OA
ENDBRANCH   7   8
ENDBRANCH   6   7
BRANCH   6  13
HETATM   13  C           1     -19.449  -9.188  -2.392  0.00  0.00     0.197 C 
HETATM   14  O           1     -19.870 -10.070  -1.612  0.00  0.00    -0.646 OA
HETATM   15  O           1     -18.304  -9.284  -2.884  0.00  0.00    -0.646 OA
ENDBRANCH   6  13
ENDBRANCH   4   6
ENDBRANCH   1   2
BRANCH   1  16
HETATM   16  C           1     -20.543  -4.695  -6.352  0.00  0.00     0.083 C 
BRANCH  16  17
HETATM   17  C           1     -21.615  -4.480  -7.376  0.00  0.00    -0.028 A 
HETATM   18  C           1     -21.421  -4.365  -8.780  0.00  0.00    -0.002 A 
HETATM   19  C           1     -22.679  -4.174  -9.354  0.00  0.00     0.042 A 
HETATM   20  C           1     -20.292  -4.405  -9.621  0.00  0.00     0.014 A 
HETATM   21  N           1     -23.596  -4.175  -8.326  0.00  0.00    -0.365 N 
HETATM   22  C           1     -22.865  -4.021 -10.733  0.00  0.00     0.030 A 
HETATM   23  C           1     -22.963  -4.360  -7.126  0.00  0.00     0.096 A 
HETATM   24  H           1     -24.632  -4.053  -8.447  0.00  0.00     0.165 HD
HETATM   25  C           1     -21.729  -4.064 -11.546  0.00  0.00     0.002 A 
HETATM   26  C           1     -20.460  -4.253 -11.001  0.00  0.00     0.001 A 
ENDBRANCH  16  17
ENDBRANCH   1  16
BRANCH   1  27
HETATM   27  N           1     -21.433  -6.943  -6.840  0.00  0.00    -0.066 N 
HETATM   28  H           1     -21.274  -6.861  -7.870  0.00  0.00     0.275 HD
HETATM   29  H           1     -21.401  -7.950  -6.562  0.00  0.00     0.275 HD
HETATM   30  H           1     -22.369  -6.545  -6.600  0.00  0.00     0.275 HD
ENDBRANCH   1  27
TORSDOF 8
ENDMDL
MODEL 7
REMARK VINA RESULT:      -6.9     13.388     15.127
REMARK  8 active torsions:
REMARK  status: ('A' for Active; 'I' for Inactive)
REMARK    1  A    between atoms: N_4  and  C_10 
REMARK       I    between atoms: N_4  and  C_8 
REMARK    2  A    between atoms: C_8  and  C_9 
REMARK    3  A    between atoms: C_9  and  C_20 
REMARK    4  A    between atoms: C_9  and  N_30 
REMARK    5  A    between atoms: C_10  and  C_11 
REMARK    6  A    between atoms: C_10  and  C_16 
REMARK    7  A    between atoms: C_11  and  C_21 
REMARK       I    between atoms: N_12  and  C_21 
REMARK    8  A    between atoms: C_20  and  C_25 
ROOT
HETATM    1  C           1     -33.110  -4.533 -16.591  0.00  0.00     0.278 C 
ENDROOT
BRANCH   1   2
HETATM    2  C           1     -33.975  -4.508 -15.355  0.00  0.00     0.249 C 
HETATM    3  O           1     -35.066  -5.027 -15.371  0.00  0.00    -0.271 OA
HETATM    4  N           1     -33.523  -3.899 -14.215  0.00  0.00    -0.344 N 
HETATM    5  H           1     -32.609  -3.464 -14.203  0.00  0.00     0.163 HD
BRANCH   4   6
HETATM    6  C           1     -34.354  -3.875 -13.028  0.00  0.00     0.194 C 
BRANCH   6   7
HETATM    7  C           1     -33.602  -4.516 -11.869  0.00  0.00     0.138 C 
BRANCH   7   8
HETATM    8  C           1     -34.297  -5.791 -11.460  0.00  0.00     0.217 C 
HETATM    9  N           1     -35.052  -6.481 -12.370  0.00  0.00    -0.370 N 
HETATM   10  H           1     -35.143  -6.137 -13.317  0.00  0.00     0.159 HD
HETATM   11  H           1     -35.519  -7.337 -12.096  0.00  0.00     0.159 HD
HETATM   12  O           1     -34.189  -6.203 -10.330  0.00  0.00    -0.274 OA
ENDBRANCH   7   8
ENDBRANCH   6   7
BRANCH   6  13
HETATM   13  C           1     -34.691  -2.447 -12.679  0.00  0.00     0.197 C 
HETATM   14  O           1     -34.557  -2.042 -11.504  0.00  0.00    -0.646 OA
HETATM   15  O           1     -35.104  -1.667 -13.565  0.00  0.00    -0.646 OA
ENDBRANCH   6  13
ENDBRANCH   4   6
ENDBRANCH   1   2
BRANCH   1  16
HETATM   16  C           1     -31.651  -4.701 -16.187  0.00  0.00     0.083 C 
BRANCH  16  17
HETATM   17  C           1     -31.001  -5.720 -17.072  0.00  0.00    -0.028 A 
HETATM   18  C           1     -29.634  -5.740 -17.463  0.00  0.00    -0.002 A 
HETATM   19  C           1     -29.458  -6.855 -18.283  0.00  0.00     0.042 A 
HETATM   20  C           1     -28.526  -4.913 -17.197  0.00  0.00     0.014 A 
HETATM   21  N           1     -30.680  -7.482 -18.380  0.00  0.00    -0.365 N 
HETATM   22  C           1     -28.224  -7.186 -18.854  0.00  0.00     0.030 A 
HETATM   23  C           1     -31.621  -6.804 -17.650  0.00  0.00     0.096 A 
HETATM   24  H           1     -30.864  -8.356 -18.933  0.00  0.00     0.165 HD
HETATM   25  C           1     -27.138  -6.350 -18.575  0.00  0.00     0.002 A 
HETATM   26  C           1     -27.284  -5.230 -17.759  0.00  0.00     0.001 A 
ENDBRANCH  16  17
ENDBRANCH   1  16
BRANCH   1  27
HETATM   27  N           1     -33.274  -3.245 -17.341  0.00  0.00    -0.066 N 
HETATM   28  H           1     -32.338  -2.910 -17.666  0.00  0.00     0.275 HD
HETATM   29  H           1     -33.895  -3.399 -18.166  0.00  0.00     0.275 HD
HETATM   30  H           1     -33.700  -2.526 -16.713  0.00  0.00     0.275 HD
ENDBRANCH   1  27
TORSDOF 8
ENDMDL
MODEL 8
REMARK VINA RESULT:      -6.8      3.000      7.416
REMARK  8 active torsions:
REMARK  status: ('A' for Active; 'I' for Inactive)
REMARK    1  A    between atoms: N_4  and  C_10 
REMARK       I    between atoms: N_4  and  C_8 
REMARK    2  A    between atoms: C_8  and  C_9 
REMARK    3  A    between atoms: C_9  and  C_20 
REMARK    4  A    between atoms: C_9  and  N_30 
REMARK    5  A    between atoms: C_10  and  C_11 
REMARK    6  A    between atoms: C_10  and  C_16 
REMARK    7  A    between atoms: C_11  and  C_21 
REMARK       I    between atoms: N_12  and  C_21 
REMARK    8  A    between atoms: C_20  and  C_25 
ROOT
HETATM    1  C           1     -20.249  -5.418  -6.076  0.00  0.00     0.278 C 
ENDROOT
BRANCH   1   2
HETATM    2  C           1     -21.239  -6.118  -5.177  0.00  0.00     0.249 C 
HETATM    3  O           1     -22.417  -5.864  -5.263  0.00  0.00    -0.271 OA
HETATM    4  N           1     -20.801  -7.039  -4.265  0.00  0.00    -0.344 N 
HETATM    5  H           1     -19.814  -7.250  -4.192  0.00  0.00     0.163 HD
BRANCH   4   6
HETATM    6  C           1     -21.751  -7.711  -3.400  0.00  0.00     0.194 C 
BRANCH   6   7
HETATM    7  C           1     -21.546  -9.217  -3.493  0.00  0.00     0.138 C 
BRANCH   7   8
HETATM    8  C           1     -20.447  -9.516  -4.482  0.00  0.00     0.217 C 
HETATM    9  N           1     -20.760  -9.929  -5.749  0.00  0.00    -0.370 N 
HETATM   10  H           1     -21.729 -10.034  -6.023  0.00  0.00     0.159 HD
HETATM   11  H           1     -20.022 -10.131  -6.413  0.00  0.00     0.159 HD
HETATM   12  O           1     -19.290  -9.391  -4.157  0.00  0.00    -0.274 OA
ENDBRANCH   7   8
ENDBRANCH   6   7
BRANCH   6  13
HETATM   13  C           1     -21.540  -7.263  -1.976  0.00  0.00     0.197 C 
HETATM   14  O           1     -22.249  -6.352  -1.495  0.00  0.00    -0.646 OA
HETATM   15  O           1     -20.656  -7.802  -1.275  0.00  0.00    -0.646 OA
ENDBRANCH   6  13
ENDBRANCH   4   6
ENDBRANCH   1   2
BRANCH   1  16
HETATM   16  C           1     -20.881  -4.151  -6.638  0.00  0.00     0.083 C 
BRANCH  16  17
HETATM   17  C           1     -20.894  -4.219  -8.134  0.00  0.00    -0.028 A 
HETATM   18  C           1     -22.048  -4.318  -8.958  0.00  0.00    -0.002 A 
HETATM   19  C           1     -21.606  -4.354 -10.282  0.00  0.00     0.042 A 
HETATM   20  C           1     -23.432  -4.379  -8.705  0.00  0.00     0.014 A 
HETATM   21  N           1     -20.232  -4.280 -10.250  0.00  0.00    -0.365 N 
HETATM   22  C           1     -22.483  -4.449 -11.369  0.00  0.00     0.030 A 
HETATM   23  C           1     -19.790  -4.197  -8.956  0.00  0.00     0.096 A 
HETATM   24  H           1     -19.611  -4.284 -11.098  0.00  0.00     0.165 HD
HETATM   25  C           1     -23.852  -4.510 -11.091  0.00  0.00     0.002 A 
HETATM   26  C           1     -24.322  -4.476  -9.780  0.00  0.00     0.001 A 
ENDBRANCH  16  17
ENDBRANCH   1  16
BRANCH   1  27
HETATM   27  N           1     -19.870  -6.329  -7.206  0.00  0.00    -0.066 N 
HETATM   28  H           1     -19.421  -7.191  -6.822  0.00  0.00     0.275 HD
HETATM   29  H           1     -20.726  -6.592  -7.744  0.00  0.00     0.275 HD
HETATM   30  H           1     -19.197  -5.839  -7.839  0.00  0.00     0.275 HD
ENDBRANCH   1  27
TORSDOF 8
ENDMDL
MODEL 9
REMARK VINA RESULT:      -6.7      3.725      7.715
REMARK  8 active torsions:
REMARK  status: ('A' for Active; 'I' for Inactive)
REMARK    1  A    between atoms: N_4  and  C_10 
REMARK       I    between atoms: N_4  and  C_8 
REMARK    2  A    between atoms: C_8  and  C_9 
REMARK    3  A    between atoms: C_9  and  C_20 
REMARK    4  A    between atoms: C_9  and  N_30 
REMARK    5  A    between atoms: C_10  and  C_11 
REMARK    6  A    between atoms: C_10  and  C_16 
REMARK    7  A    between atoms: C_11  and  C_21 
REMARK       I    between atoms: N_12  and  C_21 
REMARK    8  A    between atoms: C_20  and  C_25 
ROOT
HETATM    1  C           1     -21.645  -6.794  -5.511  0.00  0.00     0.278 C 
ENDROOT
BRANCH   1   2
HETATM    2  C           1     -20.664  -7.734  -4.855  0.00  0.00     0.249 C 
HETATM    3  O           1     -20.372  -7.588  -3.692  0.00  0.00    -0.271 OA
HETATM    4  N           1     -20.104  -8.753  -5.578  0.00  0.00    -0.344 N 
HETATM    5  H           1     -20.348  -8.875  -6.553  0.00  0.00     0.163 HD
BRANCH   4   6
HETATM    6  C           1     -19.161  -9.656  -4.949  0.00  0.00     0.194 C 
BRANCH   6   7
HETATM    7  C           1     -19.679 -11.084  -5.051  0.00  0.00     0.138 C 
BRANCH   7   8
HETATM    8  C           1     -21.129 -11.066  -5.466  0.00  0.00     0.217 C 
HETATM    9  N           1     -22.113 -11.140  -4.518  0.00  0.00    -0.370 N 
HETATM   10  H           1     -21.869 -11.206  -3.538  0.00  0.00     0.159 HD
HETATM   11  H           1     -23.087 -11.128  -4.796  0.00  0.00     0.159 HD
HETATM   12  O           1     -21.423 -10.986  -6.636  0.00  0.00    -0.274 OA
ENDBRANCH   7   8
ENDBRANCH   6   7
BRANCH   6  13
HETATM   13  C           1     -17.827  -9.555  -5.646  0.00  0.00     0.197 C 
HETATM   14  O           1     -17.752  -9.041  -6.783  0.00  0.00    -0.646 OA
HETATM   15  O           1     -16.795  -9.984  -5.085  0.00  0.00    -0.646 OA
ENDBRANCH   6  13
ENDBRANCH   4   6
ENDBRANCH   1   2
BRANCH   1  16
HETATM   16  C           1     -20.888  -5.653  -6.178  0.00  0.00     0.083 C 
BRANCH  16  17
HETATM   17  C           1     -21.768  -4.997  -7.197  0.00  0.00    -0.028 A 
HETATM   18  C           1     -21.405  -4.672  -8.533  0.00  0.00    -0.002 A 
HETATM   19  C           1     -22.519  -4.078  -9.128  0.00  0.00     0.042 A 
HETATM   20  C           1     -20.232  -4.828  -9.296  0.00  0.00     0.014 A 
HETATM   21  N           1     -23.516  -4.048  -8.179  0.00  0.00    -0.365 N 
HETATM   22  C           1     -22.518  -3.630 -10.454  0.00  0.00     0.030 A 
HETATM   23  C           1     -23.073  -4.603  -7.007  0.00  0.00     0.096 A 
HETATM   24  H           1     -24.479  -3.658  -8.333  0.00  0.00     0.165 HD
HETATM   25  C           1     -21.341  -3.794 -11.191  0.00  0.00     0.002 A 
HETATM   26  C           1     -20.213  -4.384 -10.623  0.00  0.00     0.001 A 
ENDBRANCH  16  17
ENDBRANCH   1  16
BRANCH   1  27
HETATM   27  N           1     -22.573  -6.237  -4.473  0.00  0.00    -0.066 N 
HETATM   28  H           1     -22.485  -5.195  -4.451  0.00  0.00     0.275 HD
HETATM   29  H           1     -23.557  -6.498  -4.708  0.00  0.00     0.275 HD
HETATM   30  H           1     -22.324  -6.626  -3.536  0.00  0.00     0.275 HD
ENDBRANCH   1  27
TORSDOF 8
ENDMDL
