MODEL 1
REMARK VINA RESULT:      -5.7      0.000      0.000
REMARK  3 active torsions:
REMARK  status: ('A' for Active; 'I' for Inactive)
REMARK    1  A    between atoms: C_5  and  C_6 
REMARK    2  A    between atoms: C_6  and  N_14 
REMARK       I    between atoms: N_14  and  C_15 
REMARK    3  A    between atoms: C_15  and  C_16 
ROOT
HETATM    1  H           1     -34.635   1.553 -13.732  0.00  0.00     0.275 HD
HETATM    2  H           1     -33.509   0.324 -14.093  0.00  0.00     0.275 HD
HETATM    3  H           1     -35.118   0.198 -14.650  0.00  0.00     0.275 HD
HETATM    4  N           1     -34.509   0.524 -13.866  0.00  0.00    -0.067 N 
HETATM    5  C           1     -38.072  -0.336 -16.161  0.00  0.00     0.000 C 
HETATM    6 Se           1     -36.739   0.558 -15.054  0.00  0.00     0.000 Se
HETATM    7  C           1     -34.889  -0.195 -12.605  0.00  0.00     0.274 C 
HETATM    8  C           1     -36.346   0.098 -12.274  0.00  0.00     0.042 C 
HETATM    9  C           1     -37.233  -0.376 -13.417  0.00  0.00     0.003 C 
ENDROOT
BRANCH   7  10
HETATM   10  C           1     -34.706  -1.680 -12.801  0.00  0.00     0.249 C 
HETATM   11  O           1     -34.782  -2.158 -13.907  0.00  0.00    -0.271 OA
HETATM   12  N           1     -34.454  -2.487 -11.723  0.00  0.00    -0.345 N 
HETATM   13  H           1     -34.391  -2.087 -10.796  0.00  0.00     0.163 HD
BRANCH  12  14
HETATM   14  C           1     -34.280  -3.914 -11.911  0.00  0.00     0.181 C 
HETATM   15  C           1     -32.814  -4.277 -11.708  0.00  0.00     0.043 C 
BRANCH  14  16
HETATM   16  C           1     -35.126  -4.659 -10.909  0.00  0.00     0.196 C 
HETATM   17  O           1     -36.228  -4.190 -10.550  0.00  0.00    -0.646 OA
HETATM   18  O           1     -34.727  -5.746 -10.437  0.00  0.00    -0.646 OA
ENDBRANCH  14  16
ENDBRANCH  12  14
ENDBRANCH   7  10
TORSDOF 3
ENDMDL
MODEL 2
REMARK VINA RESULT:      -5.0     12.890     15.234
REMARK  3 active torsions:
REMARK  status: ('A' for Active; 'I' for Inactive)
REMARK    1  A    between atoms: C_5  and  C_6 
REMARK    2  A    between atoms: C_6  and  N_14 
REMARK       I    between atoms: N_14  and  C_15 
REMARK    3  A    between atoms: C_15  and  C_16 
ROOT
HETATM    1  H           1     -20.170  -3.658  -5.372  0.00  0.00     0.275 HD
HETATM    2  H           1     -21.782  -3.165  -5.634  0.00  0.00     0.275 HD
HETATM    3  H           1     -21.392  -4.827  -5.610  0.00  0.00     0.275 HD
HETATM    4  N           1     -21.057  -3.875  -5.882  0.00  0.00    -0.067 N 
HETATM    5  C           1     -21.132  -8.170  -5.384  0.00  0.00     0.000 C 
HETATM    6 Se           1     -20.561  -6.307  -5.404  0.00  0.00     0.000 Se
HETATM    7  C           1     -20.806  -3.837  -7.361  0.00  0.00     0.274 C 
HETATM    8  C           1     -19.748  -4.870  -7.723  0.00  0.00     0.042 C 
HETATM    9  C           1     -20.235  -6.257  -7.325  0.00  0.00     0.003 C 
ENDROOT
BRANCH   7  10
HETATM   10  C           1     -22.087  -4.149  -8.095  0.00  0.00     0.249 C 
HETATM   11  O           1     -23.078  -4.455  -7.477  0.00  0.00    -0.271 OA
HETATM   12  N           1     -22.125  -4.088  -9.462  0.00  0.00    -0.345 N 
HETATM   13  H           1     -21.294  -3.833  -9.981  0.00  0.00     0.163 HD
BRANCH  12  14
HETATM   14  C           1     -23.355  -4.390 -10.168  0.00  0.00     0.181 C 
HETATM   15  C           1     -24.365  -3.275  -9.928  0.00  0.00     0.043 C 
BRANCH  14  16
HETATM   16  C           1     -23.072  -4.503 -11.646  0.00  0.00     0.196 C 
HETATM   17  O           1     -23.963  -4.906 -12.424  0.00  0.00    -0.646 OA
HETATM   18  O           1     -21.946  -4.193 -12.092  0.00  0.00    -0.646 OA
ENDBRANCH  14  16
ENDBRANCH  12  14
ENDBRANCH   7  10
TORSDOF 3
ENDMDL
MODEL 3
REMARK VINA RESULT:      -4.9     25.644     26.961
REMARK  3 active torsions:
REMARK  status: ('A' for Active; 'I' for Inactive)
REMARK    1  A    between atoms: C_5  and  C_6 
REMARK    2  A    between atoms: C_6  and  N_14 
REMARK       I    between atoms: N_14  and  C_15 
REMARK    3  A    between atoms: C_15  and  C_16 
ROOT
HETATM    1  H           1     -12.431   3.551 -18.928  0.00  0.00     0.275 HD
HETATM    2  H           1     -12.108   5.168 -18.493  0.00  0.00     0.275 HD
HETATM    3  H           1     -12.965   4.826 -19.929  0.00  0.00     0.275 HD
HETATM    4  N           1     -12.201   4.503 -19.293  0.00  0.00    -0.067 N 
HETATM    5  C           1     -14.891   4.636 -22.677  0.00  0.00     0.000 C 
HETATM    6 Se           1     -13.836   4.018 -21.158  0.00  0.00     0.000 Se
HETATM    7  C           1     -10.907   4.451 -20.051  0.00  0.00     0.274 C 
HETATM    8  C           1     -11.042   3.480 -21.217  0.00  0.00     0.042 C 
HETATM    9  C           1     -12.156   3.950 -22.143  0.00  0.00     0.003 C 
ENDROOT
BRANCH   7  10
HETATM   10  C           1     -10.578   5.826 -20.577  0.00  0.00     0.249 C 
HETATM   11  O           1      -9.595   5.993 -21.258  0.00  0.00    -0.271 OA
HETATM   12  N           1     -11.392   6.886 -20.280  0.00  0.00    -0.345 N 
HETATM   13  H           1     -12.216   6.746 -19.708  0.00  0.00     0.163 HD
BRANCH  12  14
HETATM   14  C           1     -11.076   8.208 -20.783  0.00  0.00     0.181 C 
HETATM   15  C           1     -12.366   8.974 -21.045  0.00  0.00     0.043 C 
BRANCH  14  16
HETATM   16  C           1     -10.248   8.949 -19.763  0.00  0.00     0.196 C 
HETATM   17  O           1      -9.441   9.830 -20.133  0.00  0.00    -0.646 OA
HETATM   18  O           1     -10.368   8.683 -18.547  0.00  0.00    -0.646 OA
ENDBRANCH  14  16
ENDBRANCH  12  14
ENDBRANCH   7  10
TORSDOF 3
ENDMDL
MODEL 4
REMARK VINA RESULT:      -4.7     17.070     19.008
REMARK  3 active torsions:
REMARK  status: ('A' for Active; 'I' for Inactive)
REMARK    1  A    between atoms: C_5  and  C_6 
REMARK    2  A    between atoms: C_6  and  N_14 
REMARK       I    between atoms: N_14  and  C_15 
REMARK    3  A    between atoms: C_15  and  C_16 
ROOT
HETATM    1  H           1     -23.507  -7.981   0.890  0.00  0.00     0.275 HD
HETATM    2  H           1     -23.364  -7.056  -0.536  0.00  0.00     0.275 HD
HETATM    3  H           1     -23.396  -8.760  -0.625  0.00  0.00     0.275 HD
HETATM    4  N           1     -23.075  -7.941  -0.062  0.00  0.00    -0.067 N 
HETATM    5  C           1     -23.683 -12.042  -1.292  0.00  0.00     0.000 C 
HETATM    6 Se           1     -23.571 -10.414  -0.226  0.00  0.00     0.000 Se
HETATM    7  C           1     -21.580  -7.975   0.065  0.00  0.00     0.274 C 
HETATM    8  C           1     -21.160  -9.265   0.757  0.00  0.00     0.042 C 
HETATM    9  C           1     -21.629 -10.459  -0.062  0.00  0.00     0.003 C 
ENDROOT
BRANCH   7  10
HETATM   10  C           1     -20.960  -7.917  -1.309  0.00  0.00     0.249 C 
HETATM   11  O           1     -19.780  -8.134  -1.450  0.00  0.00    -0.271 OA
HETATM   12  N           1     -21.734  -7.616  -2.399  0.00  0.00    -0.345 N 
HETATM   13  H           1     -22.723  -7.434  -2.281  0.00  0.00     0.163 HD
BRANCH  12  14
HETATM   14  C           1     -21.138  -7.559  -3.719  0.00  0.00     0.181 C 
HETATM   15  C           1     -21.530  -8.802  -4.507  0.00  0.00     0.043 C 
BRANCH  14  16
HETATM   16  C           1     -21.631  -6.329  -4.439  0.00  0.00     0.196 C 
HETATM   17  O           1     -20.832  -5.411  -4.728  0.00  0.00    -0.646 OA
HETATM   18  O           1     -22.838  -6.226  -4.747  0.00  0.00    -0.646 OA
ENDBRANCH  14  16
ENDBRANCH  12  14
ENDBRANCH   7  10
TORSDOF 3
ENDMDL
MODEL 5
REMARK VINA RESULT:      -4.6     18.880     20.293
REMARK  3 active torsions:
REMARK  status: ('A' for Active; 'I' for Inactive)
REMARK    1  A    between atoms: C_5  and  C_6 
REMARK    2  A    between atoms: C_6  and  N_14 
REMARK       I    between atoms: N_14  and  C_15 
REMARK    3  A    between atoms: C_15  and  C_16 
ROOT
HETATM    1  H           1     -22.636 -12.876  -2.729  0.00  0.00     0.275 HD
HETATM    2  H           1     -22.833 -11.204  -3.004  0.00  0.00     0.275 HD
HETATM    3  H           1     -21.632 -11.754  -1.923  0.00  0.00     0.275 HD
HETATM    4  N           1     -22.595 -11.928  -2.289  0.00  0.00    -0.067 N 
HETATM    5  C           1     -18.995 -12.388   0.062  0.00  0.00     0.000 C 
HETATM    6 Se           1     -20.551 -12.754  -1.054  0.00  0.00     0.000 Se
HETATM    7  C           1     -23.580 -11.857  -1.159  0.00  0.00     0.274 C 
HETATM    8  C           1     -23.234 -12.913  -0.119  0.00  0.00     0.042 C 
HETATM    9  C           1     -21.830 -12.662   0.414  0.00  0.00     0.003 C 
ENDROOT
BRANCH   7  10
HETATM   10  C           1     -23.520 -10.489  -0.527  0.00  0.00     0.249 C 
HETATM   11  O           1     -24.349 -10.163   0.289  0.00  0.00    -0.271 OA
HETATM   12  N           1     -22.527  -9.614  -0.879  0.00  0.00    -0.345 N 
HETATM   13  H           1     -21.832  -9.887  -1.563  0.00  0.00     0.163 HD
BRANCH  12  14
HETATM   14  C           1     -22.469  -8.299  -0.272  0.00  0.00     0.181 C 
HETATM   15  C           1     -21.567  -8.345   0.954  0.00  0.00     0.043 C 
BRANCH  14  16
HETATM   16  C           1     -21.915  -7.310  -1.268  0.00  0.00     0.196 C 
HETATM   17  O           1     -20.811  -7.525  -1.815  0.00  0.00    -0.646 OA
HETATM   18  O           1     -22.560  -6.277  -1.548  0.00  0.00    -0.646 OA
ENDBRANCH  14  16
ENDBRANCH  12  14
ENDBRANCH   7  10
TORSDOF 3
ENDMDL
MODEL 6
REMARK VINA RESULT:      -4.5     17.735     19.884
REMARK  3 active torsions:
REMARK  status: ('A' for Active; 'I' for Inactive)
REMARK    1  A    between atoms: C_5  and  C_6 
REMARK    2  A    between atoms: C_6  and  N_14 
REMARK       I    between atoms: N_14  and  C_15 
REMARK    3  A    between atoms: C_15  and  C_16 
ROOT
HETATM    1  H           1     -23.171 -11.817  -0.856  0.00  0.00     0.275 HD
HETATM    2  H           1     -23.384 -10.500  -1.920  0.00  0.00     0.275 HD
HETATM    3  H           1     -21.905 -11.352  -1.903  0.00  0.00     0.275 HD
HETATM    4  N           1     -22.697 -11.006  -1.317  0.00  0.00    -0.067 N 
HETATM    5  C           1     -18.955 -12.887  -2.394  0.00  0.00     0.000 C 
HETATM    6 Se           1     -20.701 -12.529  -1.604  0.00  0.00     0.000 Se
HETATM    7  C           1     -22.172 -10.071  -0.267  0.00  0.00     0.274 C 
HETATM    8  C           1     -21.172 -10.809   0.614  0.00  0.00     0.042 C 
HETATM    9  C           1     -20.018 -11.316  -0.241  0.00  0.00     0.003 C 
ENDROOT
BRANCH   7  10
HETATM   10  C           1     -21.489  -8.902  -0.933  0.00  0.00     0.249 C 
HETATM   11  O           1     -20.850  -8.119  -0.272  0.00  0.00    -0.271 OA
HETATM   12  N           1     -21.595  -8.728  -2.287  0.00  0.00    -0.345 N 
HETATM   13  H           1     -22.131  -9.384  -2.841  0.00  0.00     0.163 HD
BRANCH  12  14
HETATM   14  C           1     -20.940  -7.604  -2.927  0.00  0.00     0.181 C 
HETATM   15  C           1     -20.364  -8.048  -4.266  0.00  0.00     0.043 C 
BRANCH  14  16
HETATM   16  C           1     -21.943  -6.499  -3.151  0.00  0.00     0.196 C 
HETATM   17  O           1     -22.368  -5.836  -2.181  0.00  0.00    -0.646 OA
HETATM   18  O           1     -22.348  -6.247  -4.306  0.00  0.00    -0.646 OA
ENDBRANCH  14  16
ENDBRANCH  12  14
ENDBRANCH   7  10
TORSDOF 3
ENDMDL
MODEL 7
REMARK VINA RESULT:      -4.4     25.535     26.813
REMARK  3 active torsions:
REMARK  status: ('A' for Active; 'I' for Inactive)
REMARK    1  A    between atoms: C_5  and  C_6 
REMARK    2  A    between atoms: C_6  and  N_14 
REMARK       I    between atoms: N_14  and  C_15 
REMARK    3  A    between atoms: C_15  and  C_16 
ROOT
HETATM    1  H           1     -11.455   4.461 -19.510  0.00  0.00     0.275 HD
HETATM    2  H           1     -11.757   5.762 -18.449  0.00  0.00     0.275 HD
HETATM    3  H           1     -12.438   5.762 -20.014  0.00  0.00     0.275 HD
HETATM    4  N           1     -11.603   5.494 -19.447  0.00  0.00    -0.067 N 
HETATM    5  C           1     -14.181   6.055 -22.873  0.00  0.00     0.000 C 
HETATM    6 Se           1     -12.957   5.279 -21.570  0.00  0.00     0.000 Se
HETATM    7  C           1     -10.391   6.205 -19.973  0.00  0.00     0.274 C 
HETATM    8  C           1     -10.165   5.814 -21.428  0.00  0.00     0.042 C 
HETATM    9  C           1     -11.383   6.203 -22.254  0.00  0.00     0.003 C 
ENDROOT
BRANCH   7  10
HETATM   10  C           1     -10.605   7.696 -19.881  0.00  0.00     0.249 C 
HETATM   11  O           1      -9.660   8.447 -19.929  0.00  0.00    -0.271 OA
HETATM   12  N           1     -11.871   8.199 -19.741  0.00  0.00    -0.345 N 
HETATM   13  H           1     -12.663   7.569 -19.700  0.00  0.00     0.163 HD
BRANCH  12  14
HETATM   14  C           1     -12.078   9.631 -19.651  0.00  0.00     0.181 C 
HETATM   15  C           1     -12.259  10.206 -21.050  0.00  0.00     0.043 C 
BRANCH  14  16
HETATM   16  C           1     -13.311   9.910 -18.828  0.00  0.00     0.196 C 
HETATM   17  O           1     -14.278  10.517 -19.337  0.00  0.00    -0.646 OA
HETATM   18  O           1     -13.366   9.534 -17.637  0.00  0.00    -0.646 OA
ENDBRANCH  14  16
ENDBRANCH  12  14
ENDBRANCH   7  10
TORSDOF 3
ENDMDL
MODEL 8
REMARK VINA RESULT:      -4.4     19.023     20.389
REMARK  3 active torsions:
REMARK  status: ('A' for Active; 'I' for Inactive)
REMARK    1  A    between atoms: C_5  and  C_6 
REMARK    2  A    between atoms: C_6  and  N_14 
REMARK       I    between atoms: N_14  and  C_15 
REMARK    3  A    between atoms: C_15  and  C_16 
ROOT
HETATM    1  H           1     -22.161 -13.461  -2.700  0.00  0.00     0.275 HD
HETATM    2  H           1     -20.766 -12.480  -2.756  0.00  0.00     0.275 HD
HETATM    3  H           1     -21.413 -12.957  -1.250  0.00  0.00     0.275 HD
HETATM    4  N           1     -21.646 -12.681  -2.231  0.00  0.00    -0.067 N 
HETATM    5  C           1     -22.173 -13.862   1.896  0.00  0.00     0.000 C 
HETATM    6 Se           1     -22.332 -13.745  -0.043  0.00  0.00     0.000 Se
HETATM    7  C           1     -22.508 -11.453  -2.212  0.00  0.00     0.274 C 
HETATM    8  C           1     -23.792 -11.746  -1.447  0.00  0.00     0.042 C 
HETATM    9  C           1     -23.451 -12.150  -0.019  0.00  0.00     0.003 C 
ENDROOT
BRANCH   7  10
HETATM   10  C           1     -21.764 -10.328  -1.535  0.00  0.00     0.249 C 
HETATM   11  O           1     -20.612 -10.479  -1.205  0.00  0.00    -0.271 OA
HETATM   12  N           1     -22.395  -9.137  -1.294  0.00  0.00    -0.345 N 
HETATM   13  H           1     -23.361  -9.012  -1.570  0.00  0.00     0.163 HD
BRANCH  12  14
HETATM   14  C           1     -21.681  -8.057  -0.643  0.00  0.00     0.181 C 
HETATM   15  C           1     -22.183  -6.722  -1.177  0.00  0.00     0.043 C 
BRANCH  14  16
HETATM   16  C           1     -21.916  -8.125   0.846  0.00  0.00     0.196 C 
HETATM   17  O           1     -21.003  -8.516   1.606  0.00  0.00    -0.646 OA
HETATM   18  O           1     -23.023  -7.791   1.320  0.00  0.00    -0.646 OA
ENDBRANCH  14  16
ENDBRANCH  12  14
ENDBRANCH   7  10
TORSDOF 3
ENDMDL
MODEL 9
REMARK VINA RESULT:      -4.3     18.325     20.065
REMARK  3 active torsions:
REMARK  status: ('A' for Active; 'I' for Inactive)
REMARK    1  A    between atoms: C_5  and  C_6 
REMARK    2  A    between atoms: C_6  and  N_14 
REMARK       I    between atoms: N_14  and  C_15 
REMARK    3  A    between atoms: C_15  and  C_16 
ROOT
HETATM    1  H           1     -17.364 -12.030  -2.540  0.00  0.00     0.275 HD
HETATM    2  H           1     -18.821 -12.171  -1.664  0.00  0.00     0.275 HD
HETATM    3  H           1     -18.860 -11.975  -3.360  0.00  0.00     0.275 HD
HETATM    4  N           1     -18.358 -11.713  -2.482  0.00  0.00    -0.067 N 
HETATM    5  C           1     -19.404 -11.872  -6.675  0.00  0.00     0.000 C 
HETATM    6 Se           1     -18.401 -11.874  -5.003  0.00  0.00     0.000 Se
HETATM    7  C           1     -18.398 -10.223  -2.308  0.00  0.00     0.274 C 
HETATM    8  C           1     -17.723  -9.556  -3.499  0.00  0.00     0.042 C 
HETATM    9  C           1     -18.453  -9.939  -4.779  0.00  0.00     0.003 C 
ENDROOT
BRANCH   7  10
HETATM   10  C           1     -19.834  -9.767  -2.223  0.00  0.00     0.249 C 
HETATM   11  O           1     -20.731 -10.560  -2.384  0.00  0.00    -0.271 OA
HETATM   12  N           1     -20.121  -8.453  -1.966  0.00  0.00    -0.345 N 
HETATM   13  H           1     -19.370  -7.788  -1.832  0.00  0.00     0.163 HD
BRANCH  12  14
HETATM   14  C           1     -21.501  -8.014  -1.885  0.00  0.00     0.181 C 
HETATM   15  C           1     -21.850  -7.701  -0.436  0.00  0.00     0.043 C 
BRANCH  14  16
HETATM   16  C           1     -21.683  -6.775  -2.726  0.00  0.00     0.196 C 
HETATM   17  O           1     -22.443  -5.861  -2.337  0.00  0.00    -0.646 OA
HETATM   18  O           1     -21.074  -6.661  -3.812  0.00  0.00    -0.646 OA
ENDBRANCH  14  16
ENDBRANCH  12  14
ENDBRANCH   7  10
TORSDOF 3
ENDMDL
