MODEL 1
REMARK VINA RESULT:      -7.3      0.000      0.000
REMARK  9 active torsions:
REMARK  status: ('A' for Active; 'I' for Inactive)
REMARK    1  A    between atoms: O_1  and  C_18 
REMARK    2  A    between atoms: N_2  and  C_6 
REMARK    3  A    between atoms: O_3  and  C_4 
REMARK    4  A    between atoms: C_4  and  C_6 
REMARK    5  A    between atoms: C_6  and  C_17 
REMARK    6  A    between atoms: C_9  and  C_14 
REMARK    7  A    between atoms: C_12  and  C_23 
REMARK    8  A    between atoms: C_14  and  C_23 
REMARK    9  A    between atoms: N_16  and  C_23 
REMARK       I    between atoms: N_16  and  C_17 
ROOT
HETATM    1  C           1     -26.770  -6.221 -17.415  0.00  0.00     0.189 C 
ENDROOT
BRANCH   1   2
HETATM    2  C           1     -26.254  -6.446 -16.016  0.00  0.00     0.197 C 
HETATM    3  O           1     -25.283  -5.782 -15.593  0.00  0.00    -0.646 OA
HETATM    4  O           1     -26.799  -7.296 -15.278  0.00  0.00    -0.646 OA
ENDBRANCH   1   2
BRANCH   1   5
HETATM    5  C           1     -28.132  -6.884 -17.568  0.00  0.00     0.074 C 
BRANCH   5   6
HETATM    6  C           1     -29.204  -5.841 -17.515  0.00  0.00    -0.056 A 
HETATM    7  C           1     -30.503  -6.195 -17.150  0.00  0.00     0.010 A 
HETATM    8  C           1     -31.503  -5.223 -17.100  0.00  0.00     0.037 A 
HETATM    9  C           1     -31.203  -3.897 -17.414  0.00  0.00     0.065 A 
HETATM   10  C           1     -29.904  -3.543 -17.779  0.00  0.00     0.037 A 
HETATM   11  C           1     -28.904  -4.515 -17.828  0.00  0.00     0.010 A 
BRANCH   9  12
HETATM   12  O           1     -32.174  -2.953 -17.365  0.00  0.00    -0.361 OA
HETATM   13  H           1     -33.033  -3.403 -17.413  0.00  0.00     0.217 HD
ENDBRANCH   9  12
ENDBRANCH   5   6
ENDBRANCH   1   5
BRANCH   1  14
HETATM   14  N           1     -25.841  -6.798 -18.369  0.00  0.00    -0.344 N 
HETATM   15  H           1     -25.058  -7.349 -18.042  0.00  0.00     0.163 HD
HETATM   16  C           1     -26.025  -6.598 -19.710  0.00  0.00     0.251 C 
HETATM   17  O           1     -26.962  -5.940 -20.100  0.00  0.00    -0.271 OA
BRANCH  16  18
HETATM   18  C           1     -25.060  -7.198 -20.702  0.00  0.00     0.297 C 
BRANCH  18  19
HETATM   19  N           1     -23.908  -7.816 -19.967  0.00  0.00    -0.064 N 
HETATM   20  H           1     -23.136  -7.118 -19.878  0.00  0.00     0.275 HD
HETATM   21  H           1     -24.221  -8.112 -19.015  0.00  0.00     0.275 HD
HETATM   22  H           1     -23.564  -8.650 -20.495  0.00  0.00     0.275 HD
ENDBRANCH  18  19
BRANCH  18  23
HETATM   23  C           1     -25.771  -8.268 -21.521  0.00  0.00     0.206 C 
BRANCH  23  24
HETATM   24  O           1     -27.007  -8.566 -20.929  0.00  0.00    -0.398 OA
HETATM   25  H           1     -27.517  -9.023 -21.576  0.00  0.00     0.209 HD
ENDBRANCH  23  24
ENDBRANCH  18  23
ENDBRANCH  16  18
ENDBRANCH   1  14
TORSDOF 9
ENDMDL
MODEL 2
REMARK VINA RESULT:      -7.0      2.245      5.754
REMARK  9 active torsions:
REMARK  status: ('A' for Active; 'I' for Inactive)
REMARK    1  A    between atoms: O_1  and  C_18 
REMARK    2  A    between atoms: N_2  and  C_6 
REMARK    3  A    between atoms: O_3  and  C_4 
REMARK    4  A    between atoms: C_4  and  C_6 
REMARK    5  A    between atoms: C_6  and  C_17 
REMARK    6  A    between atoms: C_9  and  C_14 
REMARK    7  A    between atoms: C_12  and  C_23 
REMARK    8  A    between atoms: C_14  and  C_23 
REMARK    9  A    between atoms: N_16  and  C_23 
REMARK       I    between atoms: N_16  and  C_17 
ROOT
HETATM    1  C           1     -27.675  -6.448 -16.882  0.00  0.00     0.189 C 
ENDROOT
BRANCH   1   2
HETATM    2  C           1     -27.275  -7.214 -15.645  0.00  0.00     0.197 C 
HETATM    3  O           1     -26.066  -7.400 -15.389  0.00  0.00    -0.646 OA
HETATM    4  O           1     -28.153  -7.661 -14.876  0.00  0.00    -0.646 OA
ENDBRANCH   1   2
BRANCH   1   5
HETATM    5  C           1     -26.448  -5.775 -17.483  0.00  0.00     0.074 C 
BRANCH   5   6
HETATM    6  C           1     -26.034  -6.505 -18.722  0.00  0.00    -0.056 A 
HETATM    7  C           1     -26.966  -6.750 -19.731  0.00  0.00     0.010 A 
HETATM    8  C           1     -26.582  -7.430 -20.886  0.00  0.00     0.037 A 
HETATM    9  C           1     -25.264  -7.865 -21.033  0.00  0.00     0.065 A 
HETATM   10  C           1     -24.332  -7.620 -20.024  0.00  0.00     0.037 A 
HETATM   11  C           1     -24.717  -6.939 -18.869  0.00  0.00     0.010 A 
BRANCH   9  12
HETATM   12  O           1     -24.889  -8.525 -22.155  0.00  0.00    -0.361 OA
HETATM   13  H           1     -25.685  -8.687 -22.689  0.00  0.00     0.217 HD
ENDBRANCH   9  12
ENDBRANCH   5   6
ENDBRANCH   1   5
BRANCH   1  14
HETATM   14  N           1     -28.655  -5.439 -16.528  0.00  0.00    -0.344 N 
HETATM   15  H           1     -28.575  -4.943 -15.650  0.00  0.00     0.163 HD
HETATM   16  C           1     -29.687  -5.158 -17.381  0.00  0.00     0.251 C 
HETATM   17  O           1     -29.782  -5.751 -18.430  0.00  0.00    -0.271 OA
BRANCH  16  18
HETATM   18  C           1     -30.706  -4.108 -17.013  0.00  0.00     0.297 C 
BRANCH  18  19
HETATM   19  N           1     -30.751  -3.058 -18.083  0.00  0.00    -0.064 N 
HETATM   20  H           1     -31.495  -2.361 -17.857  0.00  0.00     0.275 HD
HETATM   21  H           1     -29.825  -2.576 -18.135  0.00  0.00     0.275 HD
HETATM   22  H           1     -30.963  -3.506 -19.003  0.00  0.00     0.275 HD
ENDBRANCH  18  19
BRANCH  18  23
HETATM   23  C           1     -32.079  -4.756 -16.882  0.00  0.00     0.206 C 
BRANCH  23  24
HETATM   24  O           1     -31.936  -6.149 -16.821  0.00  0.00    -0.398 OA
HETATM   25  H           1     -31.104  -6.357 -17.212  0.00  0.00     0.209 HD
ENDBRANCH  23  24
ENDBRANCH  18  23
ENDBRANCH  16  18
ENDBRANCH   1  14
TORSDOF 9
ENDMDL
MODEL 3
REMARK VINA RESULT:      -6.7     10.476     13.277
REMARK  9 active torsions:
REMARK  status: ('A' for Active; 'I' for Inactive)
REMARK    1  A    between atoms: O_1  and  C_18 
REMARK    2  A    between atoms: N_2  and  C_6 
REMARK    3  A    between atoms: O_3  and  C_4 
REMARK    4  A    between atoms: C_4  and  C_6 
REMARK    5  A    between atoms: C_6  and  C_17 
REMARK    6  A    between atoms: C_9  and  C_14 
REMARK    7  A    between atoms: C_12  and  C_23 
REMARK    8  A    between atoms: C_14  and  C_23 
REMARK    9  A    between atoms: N_16  and  C_23 
REMARK       I    between atoms: N_16  and  C_17 
ROOT
HETATM    1  C           1     -21.079  -5.162  -6.967  0.00  0.00     0.189 C 
ENDROOT
BRANCH   1   2
HETATM    2  C           1     -19.698  -4.659  -6.629  0.00  0.00     0.197 C 
HETATM    3  O           1     -19.400  -4.399  -5.443  0.00  0.00    -0.646 OA
HETATM    4  O           1     -18.851  -4.501  -7.535  0.00  0.00    -0.646 OA
ENDBRANCH   1   2
BRANCH   1   5
HETATM    5  C           1     -21.948  -3.998  -7.423  0.00  0.00     0.074 C 
BRANCH   5   6
HETATM    6  C           1     -22.384  -4.223  -8.837  0.00  0.00    -0.056 A 
HETATM    7  C           1     -23.737  -4.398  -9.130  0.00  0.00     0.010 A 
HETATM    8  C           1     -24.144  -4.608 -10.447  0.00  0.00     0.037 A 
HETATM    9  C           1     -23.198  -4.642 -11.472  0.00  0.00     0.065 A 
HETATM   10  C           1     -21.846  -4.468 -11.180  0.00  0.00     0.037 A 
HETATM   11  C           1     -21.439  -4.257  -9.862  0.00  0.00     0.010 A 
BRANCH   9  12
HETATM   12  O           1     -23.593  -4.846 -12.753  0.00  0.00    -0.361 OA
HETATM   13  H           1     -22.798  -4.988 -13.293  0.00  0.00     0.217 HD
ENDBRANCH   9  12
ENDBRANCH   5   6
ENDBRANCH   1   5
BRANCH   1  14
HETATM   14  N           1     -21.669  -5.775  -5.793  0.00  0.00    -0.344 N 
HETATM   15  H           1     -22.269  -5.231  -5.185  0.00  0.00     0.163 HD
HETATM   16  C           1     -21.417  -7.089  -5.506  0.00  0.00     0.251 C 
HETATM   17  O           1     -20.702  -7.740  -6.232  0.00  0.00    -0.271 OA
BRANCH  16  18
HETATM   18  C           1     -22.032  -7.727  -4.285  0.00  0.00     0.297 C 
BRANCH  18  19
HETATM   19  N           1     -21.629  -9.170  -4.218  0.00  0.00    -0.064 N 
HETATM   20  H           1     -21.352  -9.410  -3.239  0.00  0.00     0.275 HD
HETATM   21  H           1     -22.434  -9.769  -4.509  0.00  0.00     0.275 HD
HETATM   22  H           1     -20.821  -9.336  -4.859  0.00  0.00     0.275 HD
ENDBRANCH  18  19
BRANCH  18  23
HETATM   23  C           1     -21.543  -7.006  -3.034  0.00  0.00     0.206 C 
BRANCH  23  24
HETATM   24  O           1     -22.420  -5.956  -2.727  0.00  0.00    -0.398 OA
HETATM   25  H           1     -23.060  -5.922  -3.418  0.00  0.00     0.209 HD
ENDBRANCH  23  24
ENDBRANCH  18  23
ENDBRANCH  16  18
ENDBRANCH   1  14
TORSDOF 9
ENDMDL
MODEL 4
REMARK VINA RESULT:      -6.0     13.283     16.015
REMARK  9 active torsions:
REMARK  status: ('A' for Active; 'I' for Inactive)
REMARK    1  A    between atoms: O_1  and  C_18 
REMARK    2  A    between atoms: N_2  and  C_6 
REMARK    3  A    between atoms: O_3  and  C_4 
REMARK    4  A    between atoms: C_4  and  C_6 
REMARK    5  A    between atoms: C_6  and  C_17 
REMARK    6  A    between atoms: C_9  and  C_14 
REMARK    7  A    between atoms: C_12  and  C_23 
REMARK    8  A    between atoms: C_14  and  C_23 
REMARK    9  A    between atoms: N_16  and  C_23 
REMARK       I    between atoms: N_16  and  C_17 
ROOT
HETATM    1  C           1     -20.176  -7.558  -4.929  0.00  0.00     0.189 C 
ENDROOT
BRANCH   1   2
HETATM    2  C           1     -19.125  -8.607  -5.194  0.00  0.00     0.197 C 
HETATM    3  O           1     -18.788  -9.398  -4.287  0.00  0.00    -0.646 OA
HETATM    4  O           1     -18.591  -8.685  -6.322  0.00  0.00    -0.646 OA
ENDBRANCH   1   2
BRANCH   1   5
HETATM    5  C           1     -21.484  -8.234  -4.538  0.00  0.00     0.074 C 
BRANCH   5   6
HETATM    6  C           1     -21.692  -8.104  -3.062  0.00  0.00    -0.056 A 
HETATM    7  C           1     -21.920  -6.848  -2.499  0.00  0.00     0.010 A 
HETATM    8  C           1     -22.115  -6.725  -1.123  0.00  0.00     0.037 A 
HETATM    9  C           1     -22.083  -7.859  -0.311  0.00  0.00     0.065 A 
HETATM   10  C           1     -21.855  -9.114  -0.874  0.00  0.00     0.037 A 
HETATM   11  C           1     -21.661  -9.237  -2.250  0.00  0.00     0.010 A 
BRANCH   9  12
HETATM   12  O           1     -22.273  -7.740   1.026  0.00  0.00    -0.361 OA
HETATM   13  H           1     -21.442  -7.429   1.421  0.00  0.00     0.217 HD
ENDBRANCH   9  12
ENDBRANCH   5   6
ENDBRANCH   1   5
BRANCH   1  14
HETATM   14  N           1     -20.380  -6.766  -6.127  0.00  0.00    -0.344 N 
HETATM   15  H           1     -20.472  -7.224  -7.025  0.00  0.00     0.163 HD
HETATM   16  C           1     -20.450  -5.402  -6.044  0.00  0.00     0.251 C 
HETATM   17  O           1     -20.342  -4.857  -4.971  0.00  0.00    -0.271 OA
BRANCH  16  18
HETATM   18  C           1     -20.663  -4.580  -7.290  0.00  0.00     0.297 C 
BRANCH  18  19
HETATM   19  N           1     -20.038  -5.277  -8.461  0.00  0.00    -0.064 N 
HETATM   20  H           1     -20.778  -5.774  -9.007  0.00  0.00     0.275 HD
HETATM   21  H           1     -19.567  -4.574  -9.074  0.00  0.00     0.275 HD
HETATM   22  H           1     -19.334  -5.970  -8.120  0.00  0.00     0.275 HD
ENDBRANCH  18  19
BRANCH  18  23
HETATM   23  C           1     -22.156  -4.410  -7.539  0.00  0.00     0.206 C 
BRANCH  23  24
HETATM   24  O           1     -22.873  -4.905  -6.441  0.00  0.00    -0.398 OA
HETATM   25  H           1     -22.241  -5.250  -5.833  0.00  0.00     0.209 HD
ENDBRANCH  23  24
ENDBRANCH  18  23
ENDBRANCH  16  18
ENDBRANCH   1  14
TORSDOF 9
ENDMDL
MODEL 5
REMARK VINA RESULT:      -6.0     13.313     16.076
REMARK  9 active torsions:
REMARK  status: ('A' for Active; 'I' for Inactive)
REMARK    1  A    between atoms: O_1  and  C_18 
REMARK    2  A    between atoms: N_2  and  C_6 
REMARK    3  A    between atoms: O_3  and  C_4 
REMARK    4  A    between atoms: C_4  and  C_6 
REMARK    5  A    between atoms: C_6  and  C_17 
REMARK    6  A    between atoms: C_9  and  C_14 
REMARK    7  A    between atoms: C_12  and  C_23 
REMARK    8  A    between atoms: C_14  and  C_23 
REMARK    9  A    between atoms: N_16  and  C_23 
REMARK       I    between atoms: N_16  and  C_17 
ROOT
HETATM    1  C           1     -21.027  -6.263  -4.392  0.00  0.00     0.189 C 
ENDROOT
BRANCH   1   2
HETATM    2  C           1     -22.295  -6.969  -4.802  0.00  0.00     0.197 C 
HETATM    3  O           1     -23.345  -6.314  -4.980  0.00  0.00    -0.646 OA
HETATM    4  O           1     -22.296  -8.208  -4.964  0.00  0.00    -0.646 OA
ENDBRANCH   1   2
BRANCH   1   5
HETATM    5  C           1     -21.165  -5.756  -2.963  0.00  0.00     0.074 C 
BRANCH   5   6
HETATM    6  C           1     -21.309  -6.919  -2.032  0.00  0.00    -0.056 A 
HETATM    7  C           1     -22.329  -6.928  -1.080  0.00  0.00     0.010 A 
HETATM    8  C           1     -22.464  -8.011  -0.212  0.00  0.00     0.037 A 
HETATM    9  C           1     -21.580  -9.087  -0.298  0.00  0.00     0.065 A 
HETATM   10  C           1     -20.560  -9.079  -1.249  0.00  0.00     0.037 A 
HETATM   11  C           1     -20.425  -7.994  -2.118  0.00  0.00     0.010 A 
BRANCH   9  12
HETATM   12  O           1     -21.711 -10.141   0.545  0.00  0.00    -0.361 OA
HETATM   13  H           1     -21.007 -10.081   1.212  0.00  0.00     0.217 HD
ENDBRANCH   9  12
ENDBRANCH   5   6
ENDBRANCH   1   5
BRANCH   1  14
HETATM   14  N           1     -20.791  -5.142  -5.282  0.00  0.00    -0.344 N 
HETATM   15  H           1     -20.878  -4.194  -4.936  0.00  0.00     0.163 HD
HETATM   16  C           1     -20.449  -5.364  -6.588  0.00  0.00     0.251 C 
HETATM   17  O           1     -20.344  -6.495  -7.001  0.00  0.00    -0.271 OA
BRANCH  16  18
HETATM   18  C           1     -20.203  -4.198  -7.513  0.00  0.00     0.297 C 
BRANCH  18  19
HETATM   19  N           1     -19.796  -4.708  -8.863  0.00  0.00    -0.064 N 
HETATM   20  H           1     -20.640  -5.050  -9.376  0.00  0.00     0.275 HD
HETATM   21  H           1     -19.348  -3.937  -9.407  0.00  0.00     0.275 HD
HETATM   22  H           1     -19.117  -5.495  -8.749  0.00  0.00     0.275 HD
ENDBRANCH  18  19
BRANCH  18  23
HETATM   23  C           1     -21.478  -3.375  -7.645  0.00  0.00     0.206 C 
BRANCH  23  24
HETATM   24  O           1     -22.573  -4.136  -7.214  0.00  0.00    -0.398 OA
HETATM   25  H           1     -22.363  -4.455  -6.352  0.00  0.00     0.209 HD
ENDBRANCH  23  24
ENDBRANCH  18  23
ENDBRANCH  16  18
ENDBRANCH   1  14
TORSDOF 9
ENDMDL
MODEL 6
REMARK VINA RESULT:      -5.9     11.198     14.107
REMARK  9 active torsions:
REMARK  status: ('A' for Active; 'I' for Inactive)
REMARK    1  A    between atoms: O_1  and  C_18 
REMARK    2  A    between atoms: N_2  and  C_6 
REMARK    3  A    between atoms: O_3  and  C_4 
REMARK    4  A    between atoms: C_4  and  C_6 
REMARK    5  A    between atoms: C_6  and  C_17 
REMARK    6  A    between atoms: C_9  and  C_14 
REMARK    7  A    between atoms: C_12  and  C_23 
REMARK    8  A    between atoms: C_14  and  C_23 
REMARK    9  A    between atoms: N_16  and  C_23 
REMARK       I    between atoms: N_16  and  C_17 
ROOT
HETATM    1  C           1     -21.077  -5.167  -6.844  0.00  0.00     0.189 C 
ENDROOT
BRANCH   1   2
HETATM    2  C           1     -19.690  -4.653  -6.553  0.00  0.00     0.197 C 
HETATM    3  O           1     -19.363  -4.363  -5.381  0.00  0.00    -0.646 OA
HETATM    4  O           1     -18.865  -4.516  -7.483  0.00  0.00    -0.646 OA
ENDBRANCH   1   2
BRANCH   1   5
HETATM    5  C           1     -21.088  -6.687  -6.744  0.00  0.00     0.074 C 
BRANCH   5   6
HETATM    6  C           1     -21.037  -7.093  -5.305  0.00  0.00    -0.056 A 
HETATM    7  C           1     -21.890  -6.490  -4.380  0.00  0.00     0.010 A 
HETATM    8  C           1     -21.844  -6.867  -3.038  0.00  0.00     0.037 A 
HETATM    9  C           1     -20.946  -7.851  -2.621  0.00  0.00     0.065 A 
HETATM   10  C           1     -20.093  -8.454  -3.546  0.00  0.00     0.037 A 
HETATM   11  C           1     -20.140  -8.076  -4.889  0.00  0.00     0.010 A 
BRANCH   9  12
HETATM   12  O           1     -20.901  -8.219  -1.318  0.00  0.00    -0.361 OA
HETATM   13  H           1     -20.046  -7.935  -0.955  0.00  0.00     0.217 HD
ENDBRANCH   9  12
ENDBRANCH   5   6
ENDBRANCH   1   5
BRANCH   1  14
HETATM   14  N           1     -21.468  -4.768  -8.183  0.00  0.00    -0.344 N 
HETATM   15  H           1     -20.807  -4.843  -8.946  0.00  0.00     0.163 HD
HETATM   16  C           1     -22.729  -4.292  -8.415  0.00  0.00     0.251 C 
HETATM   17  O           1     -23.519  -4.203  -7.504  0.00  0.00    -0.271 OA
BRANCH  16  18
HETATM   18  C           1     -23.135  -3.877  -9.807  0.00  0.00     0.297 C 
BRANCH  18  19
HETATM   19  N           1     -22.225  -4.525 -10.807  0.00  0.00    -0.064 N 
HETATM   20  H           1     -22.082  -3.882 -11.618  0.00  0.00     0.275 HD
HETATM   21  H           1     -21.304  -4.729 -10.358  0.00  0.00     0.275 HD
HETATM   22  H           1     -22.654  -5.417 -11.143  0.00  0.00     0.275 HD
ENDBRANCH  18  19
BRANCH  18  23
HETATM   23  C           1     -24.570  -4.315 -10.071  0.00  0.00     0.206 C 
BRANCH  23  24
HETATM   24  O           1     -25.450  -3.294  -9.683  0.00  0.00    -0.398 OA
HETATM   25  H           1     -25.043  -2.477  -9.920  0.00  0.00     0.209 HD
ENDBRANCH  23  24
ENDBRANCH  18  23
ENDBRANCH  16  18
ENDBRANCH   1  14
TORSDOF 9
ENDMDL
MODEL 7
REMARK VINA RESULT:      -5.9      1.651      2.015
REMARK  9 active torsions:
REMARK  status: ('A' for Active; 'I' for Inactive)
REMARK    1  A    between atoms: O_1  and  C_18 
REMARK    2  A    between atoms: N_2  and  C_6 
REMARK    3  A    between atoms: O_3  and  C_4 
REMARK    4  A    between atoms: C_4  and  C_6 
REMARK    5  A    between atoms: C_6  and  C_17 
REMARK    6  A    between atoms: C_9  and  C_14 
REMARK    7  A    between atoms: C_12  and  C_23 
REMARK    8  A    between atoms: C_14  and  C_23 
REMARK    9  A    between atoms: N_16  and  C_23 
REMARK       I    between atoms: N_16  and  C_17 
ROOT
HETATM    1  C           1     -26.147  -6.360 -16.896  0.00  0.00     0.189 C 
ENDROOT
BRANCH   1   2
HETATM    2  C           1     -25.056  -7.174 -16.245  0.00  0.00     0.197 C 
HETATM    3  O           1     -24.209  -7.763 -16.951  0.00  0.00    -0.646 OA
HETATM    4  O           1     -24.999  -7.258 -14.999  0.00  0.00    -0.646 OA
ENDBRANCH   1   2
BRANCH   1   5
HETATM    5  C           1     -27.446  -6.538 -16.122  0.00  0.00     0.074 C 
BRANCH   5   6
HETATM    6  C           1     -28.478  -5.594 -16.655  0.00  0.00    -0.056 A 
HETATM    7  C           1     -28.138  -4.268 -16.921  0.00  0.00     0.010 A 
HETATM    8  C           1     -29.099  -3.387 -17.417  0.00  0.00     0.037 A 
HETATM    9  C           1     -30.400  -3.833 -17.649  0.00  0.00     0.065 A 
HETATM   10  C           1     -30.741  -5.160 -17.383  0.00  0.00     0.037 A 
HETATM   11  C           1     -29.779  -6.041 -16.886  0.00  0.00     0.010 A 
BRANCH   9  12
HETATM   12  O           1     -31.334  -2.978 -18.132  0.00  0.00    -0.361 OA
HETATM   13  H           1     -32.060  -2.932 -17.487  0.00  0.00     0.217 HD
ENDBRANCH   9  12
ENDBRANCH   5   6
ENDBRANCH   1   5
BRANCH   1  14
HETATM   14  N           1     -26.333  -6.811 -18.263  0.00  0.00    -0.344 N 
HETATM   15  H           1     -27.175  -7.308 -18.521  0.00  0.00     0.163 HD
HETATM   16  C           1     -25.370  -6.562 -19.203  0.00  0.00     0.251 C 
HETATM   17  O           1     -24.364  -5.967 -18.895  0.00  0.00    -0.271 OA
BRANCH  16  18
HETATM   18  C           1     -25.564  -7.030 -20.624  0.00  0.00     0.297 C 
BRANCH  18  19
HETATM   19  N           1     -25.267  -5.902 -21.566  0.00  0.00    -0.064 N 
HETATM   20  H           1     -25.109  -5.024 -21.022  0.00  0.00     0.275 HD
HETATM   21  H           1     -24.410  -6.127 -22.120  0.00  0.00     0.275 HD
HETATM   22  H           1     -26.075  -5.767 -22.214  0.00  0.00     0.275 HD
ENDBRANCH  18  19
BRANCH  18  23
HETATM   23  C           1     -24.621  -8.191 -20.910  0.00  0.00     0.206 C 
BRANCH  23  24
HETATM   24  O           1     -23.563  -8.173 -19.991  0.00  0.00    -0.398 OA
HETATM   25  H           1     -23.283  -9.065 -19.877  0.00  0.00     0.209 HD
ENDBRANCH  23  24
ENDBRANCH  18  23
ENDBRANCH  16  18
ENDBRANCH   1  14
TORSDOF 9
ENDMDL
MODEL 8
REMARK VINA RESULT:      -5.8     12.991     15.160
REMARK  9 active torsions:
REMARK  status: ('A' for Active; 'I' for Inactive)
REMARK    1  A    between atoms: O_1  and  C_18 
REMARK    2  A    between atoms: N_2  and  C_6 
REMARK    3  A    between atoms: O_3  and  C_4 
REMARK    4  A    between atoms: C_4  and  C_6 
REMARK    5  A    between atoms: C_6  and  C_17 
REMARK    6  A    between atoms: C_9  and  C_14 
REMARK    7  A    between atoms: C_12  and  C_23 
REMARK    8  A    between atoms: C_14  and  C_23 
REMARK    9  A    between atoms: N_16  and  C_23 
REMARK       I    between atoms: N_16  and  C_17 
ROOT
HETATM    1  C           1     -21.436  -7.243  -4.100  0.00  0.00     0.189 C 
ENDROOT
BRANCH   1   2
HETATM    2  C           1     -21.597  -6.897  -2.640  0.00  0.00     0.197 C 
HETATM    3  O           1     -20.954  -7.528  -1.774  0.00  0.00    -0.646 OA
HETATM    4  O           1     -22.373  -5.978  -2.298  0.00  0.00    -0.646 OA
ENDBRANCH   1   2
BRANCH   1   5
HETATM    5  C           1     -22.406  -6.412  -4.930  0.00  0.00     0.074 C 
BRANCH   5   6
HETATM    6  C           1     -21.641  -5.598  -5.926  0.00  0.00    -0.056 A 
HETATM    7  C           1     -22.322  -4.873  -6.903  0.00  0.00     0.010 A 
HETATM    8  C           1     -21.610  -4.114  -7.833  0.00  0.00     0.037 A 
HETATM    9  C           1     -20.216  -4.080  -7.783  0.00  0.00     0.065 A 
HETATM   10  C           1     -19.535  -4.806  -6.806  0.00  0.00     0.037 A 
HETATM   11  C           1     -20.248  -5.564  -5.876  0.00  0.00     0.010 A 
BRANCH   9  12
HETATM   12  O           1     -19.523  -3.343  -8.685  0.00  0.00    -0.361 OA
HETATM   13  H           1     -18.886  -3.928  -9.125  0.00  0.00     0.217 HD
ENDBRANCH   9  12
ENDBRANCH   5   6
ENDBRANCH   1   5
BRANCH   1  14
HETATM   14  N           1     -21.717  -8.652  -4.295  0.00  0.00    -0.344 N 
HETATM   15  H           1     -22.526  -9.072  -3.855  0.00  0.00     0.163 HD
HETATM   16  C           1     -20.890  -9.414  -5.074  0.00  0.00     0.251 C 
HETATM   17  O           1     -19.925  -8.913  -5.600  0.00  0.00    -0.271 OA
BRANCH  16  18
HETATM   18  C           1     -21.183 -10.880  -5.277  0.00  0.00     0.297 C 
BRANCH  18  19
HETATM   19  N           1     -20.502 -11.357  -6.525  0.00  0.00    -0.064 N 
HETATM   20  H           1     -19.482 -11.136  -6.473  0.00  0.00     0.275 HD
HETATM   21  H           1     -20.630 -12.390  -6.618  0.00  0.00     0.275 HD
HETATM   22  H           1     -20.919 -10.878  -7.355  0.00  0.00     0.275 HD
ENDBRANCH  18  19
BRANCH  18  23
HETATM   23  C           1     -20.667 -11.672  -4.083  0.00  0.00     0.206 C 
BRANCH  23  24
HETATM   24  O           1     -19.825 -10.860  -3.311  0.00  0.00    -0.398 OA
HETATM   25  H           1     -19.267 -10.395  -3.911  0.00  0.00     0.209 HD
ENDBRANCH  23  24
ENDBRANCH  18  23
ENDBRANCH  16  18
ENDBRANCH   1  14
TORSDOF 9
ENDMDL
MODEL 9
REMARK VINA RESULT:      -5.8      2.301      2.621
REMARK  9 active torsions:
REMARK  status: ('A' for Active; 'I' for Inactive)
REMARK    1  A    between atoms: O_1  and  C_18 
REMARK    2  A    between atoms: N_2  and  C_6 
REMARK    3  A    between atoms: O_3  and  C_4 
REMARK    4  A    between atoms: C_4  and  C_6 
REMARK    5  A    between atoms: C_6  and  C_17 
REMARK    6  A    between atoms: C_9  and  C_14 
REMARK    7  A    between atoms: C_12  and  C_23 
REMARK    8  A    between atoms: C_14  and  C_23 
REMARK    9  A    between atoms: N_16  and  C_23 
REMARK       I    between atoms: N_16  and  C_17 
ROOT
HETATM    1  C           1     -25.420  -6.217 -17.101  0.00  0.00     0.189 C 
ENDROOT
BRANCH   1   2
HETATM    2  C           1     -24.946  -7.230 -16.088  0.00  0.00     0.197 C 
HETATM    3  O           1     -24.144  -8.127 -16.429  0.00  0.00    -0.646 OA
HETATM    4  O           1     -25.354  -7.172 -14.908  0.00  0.00    -0.646 OA
ENDBRANCH   1   2
BRANCH   1   5
HETATM    5  C           1     -26.681  -5.535 -16.587  0.00  0.00     0.074 C 
BRANCH   5   6
HETATM    6  C           1     -27.885  -6.207 -17.170  0.00  0.00    -0.056 A 
HETATM    7  C           1     -28.534  -7.215 -16.457  0.00  0.00     0.010 A 
HETATM    8  C           1     -29.656  -7.842 -17.000  0.00  0.00     0.037 A 
HETATM    9  C           1     -30.130  -7.458 -18.255  0.00  0.00     0.065 A 
HETATM   10  C           1     -29.481  -6.450 -18.968  0.00  0.00     0.037 A 
HETATM   11  C           1     -28.358  -5.823 -18.424  0.00  0.00     0.010 A 
BRANCH   9  12
HETATM   12  O           1     -31.220  -8.066 -18.782  0.00  0.00    -0.361 OA
HETATM   13  H           1     -31.415  -8.853 -18.246  0.00  0.00     0.217 HD
ENDBRANCH   9  12
ENDBRANCH   5   6
ENDBRANCH   1   5
BRANCH   1  14
HETATM   14  N           1     -25.710  -6.888 -18.354  0.00  0.00    -0.344 N 
HETATM   15  H           1     -26.617  -7.312 -18.503  0.00  0.00     0.163 HD
HETATM   16  C           1     -24.758  -6.948 -19.335  0.00  0.00     0.251 C 
HETATM   17  O           1     -23.675  -6.441 -19.157  0.00  0.00    -0.271 OA
BRANCH  16  18
HETATM   18  C           1     -25.059  -7.645 -20.638  0.00  0.00     0.297 C 
BRANCH  18  19
HETATM   19  N           1     -26.499  -8.064 -20.658  0.00  0.00    -0.064 N 
HETATM   20  H           1     -26.651  -8.827 -19.961  0.00  0.00     0.275 HD
HETATM   21  H           1     -27.103  -7.247 -20.417  0.00  0.00     0.275 HD
HETATM   22  H           1     -26.748  -8.412 -21.612  0.00  0.00     0.275 HD
ENDBRANCH  18  19
BRANCH  18  23
HETATM   23  C           1     -24.792  -6.694 -21.798  0.00  0.00     0.206 C 
BRANCH  23  24
HETATM   24  O           1     -25.277  -5.418 -21.478  0.00  0.00    -0.398 OA
HETATM   25  H           1     -24.608  -4.801 -21.725  0.00  0.00     0.209 HD
ENDBRANCH  23  24
ENDBRANCH  18  23
ENDBRANCH  16  18
ENDBRANCH   1  14
TORSDOF 9
ENDMDL
