MODEL 1
REMARK VINA RESULT:      -5.0      0.000      0.000
REMARK  8 active torsions:
REMARK  status: ('A' for Active; 'I' for Inactive)
REMARK    1  A    between atoms: C_4  and  C_5 
REMARK    2  A    between atoms: C_5  and  C_6 
REMARK    3  A    between atoms: C_5  and  N_16 
REMARK    4  A    between atoms: C_6  and  Se_7 
REMARK    5  A    between atoms: N_9  and  C_14 
REMARK    6  A    between atoms: S_12  and  C_13 
REMARK    7  A    between atoms: C_13  and  C_14 
REMARK    8  A    between atoms: C_14  and  C_15 
REMARK       I    between atoms: C_15  and  N_16 
ROOT
HETATM    1  H           1     -27.840  -6.895 -19.945  0.00  0.00     0.163 HD
HETATM    2  O           1     -26.130  -6.093 -17.439  0.00  0.00    -0.271 OA
HETATM    3  C           1     -26.357  -6.458 -18.568  0.00  0.00     0.249 C 
HETATM    4  N           1     -27.650  -6.591 -18.998  0.00  0.00    -0.345 N 
ENDROOT
BRANCH   3   5
HETATM    5  C           1     -25.215  -6.766 -19.505  0.00  0.00     0.283 C 
BRANCH   5   6
HETATM    6  N           1     -24.175  -7.566 -18.778  0.00  0.00    -0.066 N 
HETATM    7  H           1     -24.451  -7.667 -17.776  0.00  0.00     0.275 HD
HETATM    8  H           1     -23.253  -7.077 -18.838  0.00  0.00     0.275 HD
HETATM    9  H           1     -24.094  -8.512 -19.216  0.00  0.00     0.275 HD
ENDBRANCH   5   6
BRANCH   5  10
HETATM   10  C           1     -25.734  -7.568 -20.692  0.00  0.00     0.113 C 
BRANCH  10  11
HETATM   11  S           1     -24.374  -7.877 -21.854  0.00  0.00    -0.180 SA
HETATM   12  H           1     -25.114  -7.752 -22.971  0.00  0.00     0.101 HD
ENDBRANCH  10  11
ENDBRANCH   5  10
ENDBRANCH   3   5
BRANCH   4  13
HETATM   13  C           1     -28.747  -6.295 -18.098  0.00  0.00     0.185 C 
BRANCH  13  14
HETATM   14  C           1     -29.814  -7.351 -18.242  0.00  0.00     0.196 C 
HETATM   15  O           1     -29.607  -8.355 -18.957  0.00  0.00    -0.646 OA
HETATM   16  O           1     -30.906  -7.223 -17.646  0.00  0.00    -0.646 OA
ENDBRANCH  13  14
BRANCH  13  17
HETATM   17  C           1     -29.332  -4.931 -18.444  0.00  0.00     0.039 C 
BRANCH  17  18
HETATM   18 Se           1     -28.754  -3.622 -17.121  0.00  0.00     0.000 Se
HETATM   19  H           1     -27.513  -4.340 -16.781  0.00  0.00     0.000 HD
ENDBRANCH  17  18
ENDBRANCH  13  17
ENDBRANCH   4  13
TORSDOF 8
ENDMDL
MODEL 2
REMARK VINA RESULT:      -4.8     11.033     12.211
REMARK  8 active torsions:
REMARK  status: ('A' for Active; 'I' for Inactive)
REMARK    1  A    between atoms: C_4  and  C_5 
REMARK    2  A    between atoms: C_5  and  C_6 
REMARK    3  A    between atoms: C_5  and  N_16 
REMARK    4  A    between atoms: C_6  and  Se_7 
REMARK    5  A    between atoms: N_9  and  C_14 
REMARK    6  A    between atoms: S_12  and  C_13 
REMARK    7  A    between atoms: C_13  and  C_14 
REMARK    8  A    between atoms: C_14  and  C_15 
REMARK       I    between atoms: C_15  and  N_16 
ROOT
HETATM    1  H           1     -22.300  -5.649  -9.480  0.00  0.00     0.163 HD
HETATM    2  O           1     -21.823  -3.495  -7.249  0.00  0.00    -0.271 OA
HETATM    3  C           1     -21.807  -4.582  -7.776  0.00  0.00     0.249 C 
HETATM    4  N           1     -22.315  -4.739  -9.038  0.00  0.00    -0.345 N 
ENDROOT
BRANCH   3   5
HETATM    5  C           1     -21.227  -5.767  -7.044  0.00  0.00     0.283 C 
BRANCH   5   6
HETATM    6  N           1     -19.881  -6.098  -7.617  0.00  0.00    -0.066 N 
HETATM    7  H           1     -19.997  -6.457  -8.592  0.00  0.00     0.275 HD
HETATM    8  H           1     -19.422  -6.830  -7.029  0.00  0.00     0.275 HD
HETATM    9  H           1     -19.286  -5.239  -7.629  0.00  0.00     0.275 HD
ENDBRANCH   5   6
BRANCH   5  10
HETATM   10  C           1     -21.079  -5.428  -5.565  0.00  0.00     0.113 C 
BRANCH  10  11
HETATM   11  S           1     -21.925  -6.687  -4.568  0.00  0.00    -0.180 SA
HETATM   12  H           1     -22.174  -7.528  -5.589  0.00  0.00     0.101 HD
ENDBRANCH  10  11
ENDBRANCH   5  10
ENDBRANCH   3   5
BRANCH   4  13
HETATM   13  C           1     -22.872  -3.600  -9.741  0.00  0.00     0.185 C 
BRANCH  13  14
HETATM   14  C           1     -24.288  -3.911 -10.159  0.00  0.00     0.196 C 
HETATM   15  O           1     -24.923  -3.101 -10.867  0.00  0.00    -0.646 OA
HETATM   16  O           1     -24.826  -4.979  -9.795  0.00  0.00    -0.646 OA
ENDBRANCH  13  14
BRANCH  13  17
HETATM   17  C           1     -22.030  -3.307 -10.977  0.00  0.00     0.039 C 
BRANCH  17  18
HETATM   18 Se           1     -20.390  -4.358 -10.910  0.00  0.00     0.000 Se
HETATM   19  H           1     -19.593  -3.289 -10.284  0.00  0.00     0.000 HD
ENDBRANCH  17  18
ENDBRANCH  13  17
ENDBRANCH   4  13
TORSDOF 8
ENDMDL
MODEL 3
REMARK VINA RESULT:      -4.6      2.157      2.677
REMARK  8 active torsions:
REMARK  status: ('A' for Active; 'I' for Inactive)
REMARK    1  A    between atoms: C_4  and  C_5 
REMARK    2  A    between atoms: C_5  and  C_6 
REMARK    3  A    between atoms: C_5  and  N_16 
REMARK    4  A    between atoms: C_6  and  Se_7 
REMARK    5  A    between atoms: N_9  and  C_14 
REMARK    6  A    between atoms: S_12  and  C_13 
REMARK    7  A    between atoms: C_13  and  C_14 
REMARK    8  A    between atoms: C_14  and  C_15 
REMARK       I    between atoms: C_15  and  N_16 
ROOT
HETATM    1  H           1     -25.961  -6.704 -17.566  0.00  0.00     0.163 HD
HETATM    2  O           1     -27.113  -6.045 -20.408  0.00  0.00    -0.271 OA
HETATM    3  C           1     -26.315  -6.427 -19.586  0.00  0.00     0.249 C 
HETATM    4  N           1     -26.629  -6.383 -18.254  0.00  0.00    -0.345 N 
ENDROOT
BRANCH   3   5
HETATM    5  C           1     -24.971  -6.954 -20.027  0.00  0.00     0.283 C 
BRANCH   5   6
HETATM    6  N           1     -24.263  -7.560 -18.852  0.00  0.00    -0.066 N 
HETATM    7  H           1     -23.533  -6.897 -18.506  0.00  0.00     0.275 HD
HETATM    8  H           1     -23.810  -8.456 -19.141  0.00  0.00     0.275 HD
HETATM    9  H           1     -24.952  -7.750 -18.090  0.00  0.00     0.275 HD
ENDBRANCH   5   6
BRANCH   5  10
HETATM   10  C           1     -25.170  -8.016 -21.102  0.00  0.00     0.113 C 
BRANCH  10  11
HETATM   11  S           1     -23.684  -8.109 -22.141  0.00  0.00    -0.180 SA
HETATM   12  H           1     -24.221  -7.486 -23.206  0.00  0.00     0.101 HD
ENDBRANCH  10  11
ENDBRANCH   5  10
ENDBRANCH   3   5
BRANCH   4  13
HETATM   13  C           1     -27.920  -5.876 -17.831  0.00  0.00     0.185 C 
BRANCH  13  14
HETATM   14  C           1     -27.740  -4.988 -16.624  0.00  0.00     0.196 C 
HETATM   15  O           1     -27.859  -3.750 -16.737  0.00  0.00    -0.646 OA
HETATM   16  O           1     -27.472  -5.492 -15.512  0.00  0.00    -0.646 OA
ENDBRANCH  13  14
BRANCH  13  17
HETATM   17  C           1     -28.829  -7.045 -17.471  0.00  0.00     0.039 C 
BRANCH  17  18
HETATM   18 Se           1     -30.658  -6.405 -17.261  0.00  0.00     0.000 Se
HETATM   19  H           1     -30.383  -5.077 -17.834  0.00  0.00     0.000 HD
ENDBRANCH  17  18
ENDBRANCH  13  17
ENDBRANCH   4  13
TORSDOF 8
ENDMDL
MODEL 4
REMARK VINA RESULT:      -4.3      2.393      3.043
REMARK  8 active torsions:
REMARK  status: ('A' for Active; 'I' for Inactive)
REMARK    1  A    between atoms: C_4  and  C_5 
REMARK    2  A    between atoms: C_5  and  C_6 
REMARK    3  A    between atoms: C_5  and  N_16 
REMARK    4  A    between atoms: C_6  and  Se_7 
REMARK    5  A    between atoms: N_9  and  C_14 
REMARK    6  A    between atoms: S_12  and  C_13 
REMARK    7  A    between atoms: C_13  and  C_14 
REMARK    8  A    between atoms: C_14  and  C_15 
REMARK       I    between atoms: C_15  and  N_16 
ROOT
HETATM    1  H           1     -28.117  -4.175 -17.849  0.00  0.00     0.163 HD
HETATM    2  O           1     -28.990  -6.998 -18.902  0.00  0.00    -0.271 OA
HETATM    3  C           1     -28.255  -6.065 -18.680  0.00  0.00     0.249 C 
HETATM    4  N           1     -28.733  -4.956 -18.035  0.00  0.00    -0.345 N 
ENDROOT
BRANCH   3   5
HETATM    5  C           1     -26.811  -6.123 -19.114  0.00  0.00     0.283 C 
BRANCH   5   6
HETATM    6  N           1     -25.981  -6.707 -18.010  0.00  0.00    -0.066 N 
HETATM    7  H           1     -25.470  -5.942 -17.515  0.00  0.00     0.275 HD
HETATM    8  H           1     -25.292  -7.382 -18.412  0.00  0.00     0.275 HD
HETATM    9  H           1     -26.602  -7.207 -17.334  0.00  0.00     0.275 HD
ENDBRANCH   5   6
BRANCH   5  10
HETATM   10  C           1     -26.688  -6.995 -20.357  0.00  0.00     0.113 C 
BRANCH  10  11
HETATM   11  S           1     -24.953  -7.474 -20.591  0.00  0.00    -0.180 SA
HETATM   12  H           1     -24.572  -6.329 -21.188  0.00  0.00     0.101 HD
ENDBRANCH  10  11
ENDBRANCH   5  10
ENDBRANCH   3   5
BRANCH   4  13
HETATM   13  C           1     -30.120  -4.901 -17.618  0.00  0.00     0.185 C 
BRANCH  13  14
HETATM   14  C           1     -30.574  -3.463 -17.572  0.00  0.00     0.196 C 
HETATM   15  O           1     -31.791  -3.190 -17.649  0.00  0.00    -0.646 OA
HETATM   16  O           1     -29.733  -2.546 -17.458  0.00  0.00    -0.646 OA
ENDBRANCH  13  14
BRANCH  13  17
HETATM   17  C           1     -30.258  -5.522 -16.234  0.00  0.00     0.039 C 
BRANCH  17  18
HETATM   18 Se           1     -28.526  -5.509 -15.340  0.00  0.00     0.000 Se
HETATM   19  H           1     -27.794  -5.003 -16.514  0.00  0.00     0.000 HD
ENDBRANCH  17  18
ENDBRANCH  13  17
ENDBRANCH   4  13
TORSDOF 8
ENDMDL
MODEL 5
REMARK VINA RESULT:      -4.2      2.501      2.576
REMARK  8 active torsions:
REMARK  status: ('A' for Active; 'I' for Inactive)
REMARK    1  A    between atoms: C_4  and  C_5 
REMARK    2  A    between atoms: C_5  and  C_6 
REMARK    3  A    between atoms: C_5  and  N_16 
REMARK    4  A    between atoms: C_6  and  Se_7 
REMARK    5  A    between atoms: N_9  and  C_14 
REMARK    6  A    between atoms: S_12  and  C_13 
REMARK    7  A    between atoms: C_13  and  C_14 
REMARK    8  A    between atoms: C_14  and  C_15 
REMARK       I    between atoms: C_15  and  N_16 
ROOT
HETATM    1  H           1     -27.430  -5.546 -17.554  0.00  0.00     0.163 HD
HETATM    2  O           1     -27.111  -7.639 -15.239  0.00  0.00    -0.271 OA
HETATM    3  C           1     -26.777  -6.804 -16.046  0.00  0.00     0.249 C 
HETATM    4  N           1     -27.709  -6.246 -16.879  0.00  0.00    -0.345 N 
ENDROOT
BRANCH   3   5
HETATM    5  C           1     -25.333  -6.375 -16.135  0.00  0.00     0.283 C 
BRANCH   5   6
HETATM    6  N           1     -24.771  -6.224 -14.753  0.00  0.00    -0.066 N 
HETATM    7  H           1     -25.482  -5.771 -14.135  0.00  0.00     0.275 HD
HETATM    8  H           1     -23.912  -5.630 -14.788  0.00  0.00     0.275 HD
HETATM    9  H           1     -24.526  -7.166 -14.372  0.00  0.00     0.275 HD
ENDBRANCH   5   6
BRANCH   5  10
HETATM   10  C           1     -24.536  -7.429 -16.894  0.00  0.00     0.113 C 
BRANCH  10  11
HETATM   11  S           1     -24.458  -6.978 -18.651  0.00  0.00    -0.180 SA
HETATM   12  H           1     -25.443  -6.063 -18.604  0.00  0.00     0.101 HD
ENDBRANCH  10  11
ENDBRANCH   5  10
ENDBRANCH   3   5
BRANCH   4  13
HETATM   13  C           1     -29.097  -6.657 -16.793  0.00  0.00     0.185 C 
BRANCH  13  14
HETATM   14  C           1     -29.520  -7.272 -18.105  0.00  0.00     0.196 C 
HETATM   15  O           1     -28.766  -7.205 -19.098  0.00  0.00    -0.646 OA
HETATM   16  O           1     -30.626  -7.849 -18.196  0.00  0.00    -0.646 OA
ENDBRANCH  13  14
BRANCH  13  17
HETATM   17  C           1     -29.968  -5.443 -16.496  0.00  0.00     0.039 C 
BRANCH  17  18
HETATM   18 Se           1     -29.329  -3.918 -17.527  0.00  0.00     0.000 Se
HETATM   19  H           1     -30.063  -4.288 -18.749  0.00  0.00     0.000 HD
ENDBRANCH  17  18
ENDBRANCH  13  17
ENDBRANCH   4  13
TORSDOF 8
ENDMDL
MODEL 6
REMARK VINA RESULT:      -4.1     14.419     15.542
REMARK  8 active torsions:
REMARK  status: ('A' for Active; 'I' for Inactive)
REMARK    1  A    between atoms: C_4  and  C_5 
REMARK    2  A    between atoms: C_5  and  C_6 
REMARK    3  A    between atoms: C_5  and  N_16 
REMARK    4  A    between atoms: C_6  and  Se_7 
REMARK    5  A    between atoms: N_9  and  C_14 
REMARK    6  A    between atoms: S_12  and  C_13 
REMARK    7  A    between atoms: C_13  and  C_14 
REMARK    8  A    between atoms: C_14  and  C_15 
REMARK       I    between atoms: C_15  and  N_16 
ROOT
HETATM    1  H           1     -19.863  -6.806  -4.808  0.00  0.00     0.163 HD
HETATM    2  O           1     -22.636  -5.623  -5.676  0.00  0.00    -0.271 OA
HETATM    3  C           1     -21.437  -5.773  -5.668  0.00  0.00     0.249 C 
HETATM    4  N           1     -20.867  -6.679  -4.815  0.00  0.00    -0.345 N 
ENDROOT
BRANCH   3   5
HETATM    5  C           1     -20.568  -4.962  -6.597  0.00  0.00     0.283 C 
BRANCH   5   6
HETATM    6  N           1     -20.022  -5.851  -7.674  0.00  0.00    -0.066 N 
HETATM    7  H           1     -20.745  -5.982  -8.418  0.00  0.00     0.275 HD
HETATM    8  H           1     -19.771  -6.780  -7.266  0.00  0.00     0.275 HD
HETATM    9  H           1     -19.169  -5.413  -8.089  0.00  0.00     0.275 HD
ENDBRANCH   5   6
BRANCH   5  10
HETATM   10  C           1     -21.399  -3.851  -7.230  0.00  0.00     0.113 C 
BRANCH  10  11
HETATM   11  S           1     -21.783  -4.288  -8.949  0.00  0.00    -0.180 SA
HETATM   12  H           1     -20.512  -4.528  -9.319  0.00  0.00     0.101 HD
ENDBRANCH  10  11
ENDBRANCH   5  10
ENDBRANCH   3   5
BRANCH   4  13
HETATM   13  C           1     -21.702  -7.459  -3.922  0.00  0.00     0.185 C 
BRANCH  13  14
HETATM   14  C           1     -21.622  -6.883  -2.529  0.00  0.00     0.196 C 
HETATM   15  O           1     -20.868  -7.405  -1.680  0.00  0.00    -0.646 OA
HETATM   16  O           1     -22.310  -5.885  -2.226  0.00  0.00    -0.646 OA
ENDBRANCH  13  14
BRANCH  13  17
HETATM   17  C           1     -21.214  -8.902  -3.904  0.00  0.00     0.039 C 
BRANCH  17  18
HETATM   18 Se           1     -19.469  -9.009  -4.765  0.00  0.00     0.000 Se
HETATM   19  H           1     -18.752  -8.360  -3.655  0.00  0.00     0.000 HD
ENDBRANCH  17  18
ENDBRANCH  13  17
ENDBRANCH   4  13
TORSDOF 8
ENDMDL
MODEL 7
REMARK VINA RESULT:      -3.8     13.967     15.128
REMARK  8 active torsions:
REMARK  status: ('A' for Active; 'I' for Inactive)
REMARK    1  A    between atoms: C_4  and  C_5 
REMARK    2  A    between atoms: C_5  and  C_6 
REMARK    3  A    between atoms: C_5  and  N_16 
REMARK    4  A    between atoms: C_6  and  Se_7 
REMARK    5  A    between atoms: N_9  and  C_14 
REMARK    6  A    between atoms: S_12  and  C_13 
REMARK    7  A    between atoms: C_13  and  C_14 
REMARK    8  A    between atoms: C_14  and  C_15 
REMARK       I    between atoms: C_15  and  N_16 
ROOT
HETATM    1  H           1     -22.002  -7.472  -6.163  0.00  0.00     0.163 HD
HETATM    2  O           1     -20.572  -4.795  -5.371  0.00  0.00    -0.271 OA
HETATM    3  C           1     -21.298  -5.533  -5.993  0.00  0.00     0.249 C 
HETATM    4  N           1     -21.393  -6.854  -5.643  0.00  0.00    -0.345 N 
ENDROOT
BRANCH   3   5
HETATM    5  C           1     -22.102  -5.001  -7.154  0.00  0.00     0.283 C 
BRANCH   5   6
HETATM    6  N           1     -23.460  -4.585  -6.672  0.00  0.00    -0.066 N 
HETATM    7  H           1     -23.979  -5.423  -6.326  0.00  0.00     0.275 HD
HETATM    8  H           1     -23.990  -4.147  -7.459  0.00  0.00     0.275 HD
HETATM    9  H           1     -23.357  -3.892  -5.896  0.00  0.00     0.275 HD
ENDBRANCH   5   6
BRANCH   5  10
HETATM   10  C           1     -21.387  -3.798  -7.757  0.00  0.00     0.113 C 
BRANCH  10  11
HETATM   11  S           1     -20.310  -4.350  -9.110  0.00  0.00    -0.180 SA
HETATM   12  H           1     -19.391  -4.939  -8.324  0.00  0.00     0.101 HD
ENDBRANCH  10  11
ENDBRANCH   5  10
ENDBRANCH   3   5
BRANCH   4  13
HETATM   13  C           1     -20.621  -7.365  -4.527  0.00  0.00     0.185 C 
BRANCH  13  14
HETATM   14  C           1     -19.803  -8.549  -4.983  0.00  0.00     0.196 C 
HETATM   15  O           1     -19.097  -8.461  -6.010  0.00  0.00    -0.646 OA
HETATM   16  O           1     -19.832  -9.616  -4.333  0.00  0.00    -0.646 OA
ENDBRANCH  13  14
BRANCH  13  17
HETATM   17  C           1     -21.566  -7.799  -3.414  0.00  0.00     0.039 C 
BRANCH  17  18
HETATM   18 Se           1     -21.940  -6.281  -2.250  0.00  0.00     0.000 Se
HETATM   19  H           1     -20.705  -5.559  -2.602  0.00  0.00     0.000 HD
ENDBRANCH  17  18
ENDBRANCH  13  17
ENDBRANCH   4  13
TORSDOF 8
ENDMDL
MODEL 8
REMARK VINA RESULT:      -3.7      7.778      9.505
REMARK  8 active torsions:
REMARK  status: ('A' for Active; 'I' for Inactive)
REMARK    1  A    between atoms: C_4  and  C_5 
REMARK    2  A    between atoms: C_5  and  C_6 
REMARK    3  A    between atoms: C_5  and  N_16 
REMARK    4  A    between atoms: C_6  and  Se_7 
REMARK    5  A    between atoms: N_9  and  C_14 
REMARK    6  A    between atoms: S_12  and  C_13 
REMARK    7  A    between atoms: C_13  and  C_14 
REMARK    8  A    between atoms: C_14  and  C_15 
REMARK       I    between atoms: C_15  and  N_16 
ROOT
HETATM    1  H           1     -33.926  -5.314 -12.847  0.00  0.00     0.163 HD
HETATM    2  O           1     -34.629  -2.807 -14.597  0.00  0.00    -0.271 OA
HETATM    3  C           1     -34.249  -3.927 -14.349  0.00  0.00     0.249 C 
HETATM    4  N           1     -34.244  -4.376 -13.056  0.00  0.00    -0.345 N 
ENDROOT
BRANCH   3   5
HETATM    5  C           1     -33.781  -4.830 -15.463  0.00  0.00     0.283 C 
BRANCH   5   6
HETATM    6  N           1     -34.916  -5.704 -15.908  0.00  0.00    -0.066 N 
HETATM    7  H           1     -35.761  -5.115 -16.083  0.00  0.00     0.275 HD
HETATM    8  H           1     -35.129  -6.405 -15.163  0.00  0.00     0.275 HD
HETATM    9  H           1     -34.648  -6.202 -16.787  0.00  0.00     0.275 HD
ENDBRANCH   5   6
BRANCH   5  10
HETATM   10  C           1     -33.303  -3.983 -16.637  0.00  0.00     0.113 C 
BRANCH  10  11
HETATM   11  S           1     -31.580  -4.402 -17.023  0.00  0.00    -0.180 SA
HETATM   12  H           1     -31.269  -3.215 -17.577  0.00  0.00     0.101 HD
ENDBRANCH  10  11
ENDBRANCH   5  10
ENDBRANCH   3   5
BRANCH   4  13
HETATM   13  C           1     -34.694  -3.508 -11.985  0.00  0.00     0.185 C 
BRANCH  13  14
HETATM   14  C           1     -33.504  -2.819 -11.363  0.00  0.00     0.196 C 
HETATM   15  O           1     -33.656  -1.738 -10.755  0.00  0.00    -0.646 OA
HETATM   16  O           1     -32.367  -3.330 -11.456  0.00  0.00    -0.646 OA
ENDBRANCH  13  14
BRANCH  13  17
HETATM   17  C           1     -35.410  -4.339 -10.928  0.00  0.00     0.039 C 
BRANCH  17  18
HETATM   18 Se           1     -34.437  -6.003 -10.639  0.00  0.00     0.000 Se
HETATM   19  H           1     -35.038  -6.261  -9.320  0.00  0.00     0.000 HD
ENDBRANCH  17  18
ENDBRANCH  13  17
ENDBRANCH   4  13
TORSDOF 8
ENDMDL
MODEL 9
REMARK VINA RESULT:      -3.6     13.026     14.117
REMARK  8 active torsions:
REMARK  status: ('A' for Active; 'I' for Inactive)
REMARK    1  A    between atoms: C_4  and  C_5 
REMARK    2  A    between atoms: C_5  and  C_6 
REMARK    3  A    between atoms: C_5  and  N_16 
REMARK    4  A    between atoms: C_6  and  Se_7 
REMARK    5  A    between atoms: N_9  and  C_14 
REMARK    6  A    between atoms: S_12  and  C_13 
REMARK    7  A    between atoms: C_13  and  C_14 
REMARK    8  A    between atoms: C_14  and  C_15 
REMARK       I    between atoms: C_15  and  N_16 
ROOT
HETATM    1  H           1     -21.008  -6.397  -7.596  0.00  0.00     0.163 HD
HETATM    2  O           1     -22.443  -6.001  -4.833  0.00  0.00    -0.271 OA
HETATM    3  C           1     -21.799  -6.559  -5.689  0.00  0.00     0.249 C 
HETATM    4  N           1     -21.549  -5.929  -6.879  0.00  0.00    -0.345 N 
ENDROOT
BRANCH   3   5
HETATM    5  C           1     -21.269  -7.951  -5.447  0.00  0.00     0.283 C 
BRANCH   5   6
HETATM    6  N           1     -19.802  -7.988  -5.758  0.00  0.00    -0.066 N 
HETATM    7  H           1     -19.481  -8.981  -5.809  0.00  0.00     0.275 HD
HETATM    8  H           1     -19.273  -7.491  -5.006  0.00  0.00     0.275 HD
HETATM    9  H           1     -19.628  -7.516  -6.674  0.00  0.00     0.275 HD
ENDBRANCH   5   6
BRANCH   5  10
HETATM   10  C           1     -21.488  -8.332  -3.988  0.00  0.00     0.113 C 
BRANCH  10  11
HETATM   11  S           1     -21.508 -10.140  -3.831  0.00  0.00    -0.180 SA
HETATM   12  H           1     -20.678 -10.378  -4.863  0.00  0.00     0.101 HD
ENDBRANCH  10  11
ENDBRANCH   5  10
ENDBRANCH   3   5
BRANCH   4  13
HETATM   13  C           1     -22.058  -4.592  -7.112  0.00  0.00     0.185 C 
BRANCH  13  14
HETATM   14  C           1     -22.711  -4.532  -8.471  0.00  0.00     0.196 C 
HETATM   15  O           1     -22.132  -5.023  -9.463  0.00  0.00    -0.646 OA
HETATM   16  O           1     -23.831  -3.992  -8.603  0.00  0.00    -0.646 OA
ENDBRANCH  13  14
BRANCH  13  17
HETATM   17  C           1     -20.907  -3.596  -7.056  0.00  0.00     0.039 C 
BRANCH  17  18
HETATM   18 Se           1     -19.241  -4.502  -7.505  0.00  0.00     0.000 Se
HETATM   19  H           1     -18.428  -3.729  -6.550  0.00  0.00     0.000 HD
ENDBRANCH  17  18
ENDBRANCH  13  17
ENDBRANCH   4  13
TORSDOF 8
ENDMDL
