MODEL 1
REMARK VINA RESULT:      -5.5      0.000      0.000
REMARK  7 active torsions:
REMARK  status: ('A' for Active; 'I' for Inactive)
REMARK    1  A    between atoms: C_1  and  C_8 
REMARK    2  A    between atoms: C_1  and  O_2 
REMARK    3  A    between atoms: O_2  and  P_3 
REMARK    4  A    between atoms: P_3  and  O_10 
REMARK    5  A    between atoms: C_6  and  C_8 
REMARK    6  A    between atoms: C_8  and  N_23 
REMARK    7  A    between atoms: C_21  and  C_22 
REMARK       I    between atoms: C_22  and  N_23 
ROOT
HETATM    1  O           1     -20.581  -8.179  -6.027  0.00  0.00    -0.271 OA
HETATM    2  C           1     -21.409  -7.622  -5.346  0.00  0.00     0.249 C 
HETATM    3  N           1     -21.806  -6.349  -5.656  0.00  0.00    -0.343 N 
HETATM    4  H           1     -22.500  -5.882  -5.086  0.00  0.00     0.163 HD
ENDROOT
BRANCH   3   5
HETATM    5  C           1     -21.233  -5.669  -6.802  0.00  0.00     0.210 C 
BRANCH   5   6
HETATM    6  C           1     -22.278  -4.750  -7.420  0.00  0.00     0.217 C 
BRANCH   6   7
HETATM    7  O           1     -22.042  -4.633  -8.798  0.00  0.00    -0.287 OA
BRANCH   7   8
HETATM    8  P           1     -23.297  -4.150  -9.692  0.00  0.00     0.406 P 
HETATM    9  O           1     -23.917  -5.323 -10.349  0.00  0.00    -0.624 OA
HETATM   10  O           1     -22.830  -3.197 -10.724  0.00  0.00    -0.624 OA
BRANCH   8  11
HETATM   11  O           1     -24.386  -3.427  -8.743  0.00  0.00    -0.300 OA
HETATM   12  H           1     -24.310  -2.509  -8.941  0.00  0.00     0.223 HD
ENDBRANCH   8  11
ENDBRANCH   7   8
ENDBRANCH   6   7
ENDBRANCH   5   6
BRANCH   5  13
HETATM   13  C           1     -20.044  -4.853  -6.359  0.00  0.00     0.198 C 
HETATM   14  O           1     -19.134  -4.582  -7.172  0.00  0.00    -0.646 OA
HETATM   15  O           1     -19.968  -4.449  -5.179  0.00  0.00    -0.646 OA
ENDBRANCH   5  13
ENDBRANCH   3   5
BRANCH   2  16
HETATM   16  C           1     -22.005  -8.328  -4.153  0.00  0.00     0.274 C 
HETATM   17  N           1     -21.659  -9.787  -4.212  0.00  0.00    -0.067 N 
HETATM   18  H           1     -22.071 -10.277  -3.387  0.00  0.00     0.275 HD
HETATM   19  H           1     -22.045 -10.201  -5.091  0.00  0.00     0.275 HD
HETATM   20  H           1     -20.619  -9.898  -4.201  0.00  0.00     0.275 HD
HETATM   21 Se           1     -19.480  -9.785  -2.932  0.00  0.00     0.000 Se
HETATM   22  C           1     -17.552  -9.496  -2.887  0.00  0.00     0.000 C 
HETATM   23  C           1     -19.929  -7.890  -2.855  0.00  0.00     0.003 C 
HETATM   24  C           1     -21.443  -7.725  -2.873  0.00  0.00     0.042 C 
ENDBRANCH   2  16
TORSDOF 7
ENDMDL
MODEL 2
REMARK VINA RESULT:      -5.3      3.939      6.729
REMARK  7 active torsions:
REMARK  status: ('A' for Active; 'I' for Inactive)
REMARK    1  A    between atoms: C_1  and  C_8 
REMARK    2  A    between atoms: C_1  and  O_2 
REMARK    3  A    between atoms: O_2  and  P_3 
REMARK    4  A    between atoms: P_3  and  O_10 
REMARK    5  A    between atoms: C_6  and  C_8 
REMARK    6  A    between atoms: C_8  and  N_23 
REMARK    7  A    between atoms: C_21  and  C_22 
REMARK       I    between atoms: C_22  and  N_23 
ROOT
HETATM    1  O           1     -21.039  -6.607  -7.293  0.00  0.00    -0.271 OA
HETATM    2  C           1     -20.676  -5.688  -6.599  0.00  0.00     0.249 C 
HETATM    3  N           1     -20.680  -5.815  -5.236  0.00  0.00    -0.343 N 
HETATM    4  H           1     -20.375  -5.045  -4.654  0.00  0.00     0.163 HD
ENDROOT
BRANCH   3   5
HETATM    5  C           1     -21.121  -7.055  -4.625  0.00  0.00     0.210 C 
BRANCH   5   6
HETATM    6  C           1     -20.009  -8.091  -4.721  0.00  0.00     0.217 C 
BRANCH   6   7
HETATM    7  O           1     -20.475  -9.215  -5.419  0.00  0.00    -0.287 OA
BRANCH   7   8
HETATM    8  P           1     -20.830 -10.508  -4.521  0.00  0.00     0.406 P 
HETATM    9  O           1     -22.200 -10.372  -3.977  0.00  0.00    -0.624 OA
HETATM   10  O           1     -19.864 -10.614  -3.405  0.00  0.00    -0.624 OA
BRANCH   8  11
HETATM   11  O           1     -20.745 -11.837  -5.436  0.00  0.00    -0.300 OA
HETATM   12  H           1     -20.738 -11.522  -6.323  0.00  0.00     0.223 HD
ENDBRANCH   8  11
ENDBRANCH   7   8
ENDBRANCH   6   7
ENDBRANCH   5   6
BRANCH   5  13
HETATM   13  C           1     -21.456  -6.808  -3.175  0.00  0.00     0.198 C 
HETATM   14  O           1     -22.360  -6.000  -2.871  0.00  0.00    -0.646 OA
HETATM   15  O           1     -20.831  -7.413  -2.278  0.00  0.00    -0.646 OA
ENDBRANCH   5  13
ENDBRANCH   3   5
BRANCH   2  16
HETATM   16  C           1     -20.217  -4.397  -7.234  0.00  0.00     0.274 C 
HETATM   17  N           1     -19.803  -4.658  -8.652  0.00  0.00    -0.067 N 
HETATM   18  H           1     -19.486  -3.766  -9.093  0.00  0.00     0.275 HD
HETATM   19  H           1     -19.019  -5.350  -8.664  0.00  0.00     0.275 HD
HETATM   20  H           1     -20.615  -5.042  -9.187  0.00  0.00     0.275 HD
HETATM   21 Se           1     -22.002  -4.286  -9.840  0.00  0.00     0.000 Se
HETATM   22  C           1     -23.747  -4.950 -10.401  0.00  0.00     0.000 C 
HETATM   23  C           1     -22.541  -3.948  -7.998  0.00  0.00     0.003 C 
HETATM   24  C           1     -21.359  -3.389  -7.217  0.00  0.00     0.042 C 
ENDBRANCH   2  16
TORSDOF 7
ENDMDL
MODEL 3
REMARK VINA RESULT:      -5.2      2.496      3.192
REMARK  7 active torsions:
REMARK  status: ('A' for Active; 'I' for Inactive)
REMARK    1  A    between atoms: C_1  and  C_8 
REMARK    2  A    between atoms: C_1  and  O_2 
REMARK    3  A    between atoms: O_2  and  P_3 
REMARK    4  A    between atoms: P_3  and  O_10 
REMARK    5  A    between atoms: C_6  and  C_8 
REMARK    6  A    between atoms: C_8  and  N_23 
REMARK    7  A    between atoms: C_21  and  C_22 
REMARK       I    between atoms: C_22  and  N_23 
ROOT
HETATM    1  O           1     -19.574  -8.755  -5.540  0.00  0.00    -0.271 OA
HETATM    2  C           1     -20.678  -9.176  -5.289  0.00  0.00     0.249 C 
HETATM    3  N           1     -21.611  -8.352  -4.719  0.00  0.00    -0.343 N 
HETATM    4  H           1     -22.537  -8.704  -4.508  0.00  0.00     0.163 HD
ENDROOT
BRANCH   3   5
HETATM    5  C           1     -21.274  -6.974  -4.416  0.00  0.00     0.210 C 
BRANCH   5   6
HETATM    6  C           1     -22.144  -6.045  -5.252  0.00  0.00     0.217 C 
BRANCH   6   7
HETATM    7  O           1     -21.619  -5.952  -6.549  0.00  0.00    -0.287 OA
BRANCH   7   8
HETATM    8  P           1     -22.011  -4.624  -7.379  0.00  0.00     0.406 P 
HETATM    9  O           1     -21.706  -4.827  -8.813  0.00  0.00    -0.624 OA
HETATM   10  O           1     -21.232  -3.474  -6.867  0.00  0.00    -0.624 OA
BRANCH   8  11
HETATM   11  O           1     -23.590  -4.327  -7.202  0.00  0.00    -0.300 OA
HETATM   12  H           1     -23.865  -4.889  -6.499  0.00  0.00     0.223 HD
ENDBRANCH   8  11
ENDBRANCH   7   8
ENDBRANCH   6   7
ENDBRANCH   5   6
BRANCH   5  13
HETATM   13  C           1     -21.516  -6.708  -2.951  0.00  0.00     0.198 C 
HETATM   14  O           1     -20.797  -7.259  -2.089  0.00  0.00    -0.646 OA
HETATM   15  O           1     -22.434  -5.937  -2.598  0.00  0.00    -0.646 OA
ENDBRANCH   5  13
ENDBRANCH   3   5
BRANCH   2  16
HETATM   16  C           1     -21.030 -10.610  -5.603  0.00  0.00     0.274 C 
HETATM   17  N           1     -19.873 -11.267  -6.297  0.00  0.00    -0.067 N 
HETATM   18  H           1     -20.115 -12.259  -6.514  0.00  0.00     0.275 HD
HETATM   19  H           1     -19.666 -10.756  -7.185  0.00  0.00     0.275 HD
HETATM   20  H           1     -19.034 -11.240  -5.675  0.00  0.00     0.275 HD
HETATM   21 Se           1     -18.607 -12.171  -4.305  0.00  0.00     0.000 Se
HETATM   22  C           1     -17.356 -11.892  -2.837  0.00  0.00     0.000 C 
HETATM   23  C           1     -20.108 -11.317  -3.403  0.00  0.00     0.003 C 
HETATM   24  C           1     -21.333 -11.353  -4.308  0.00  0.00     0.042 C 
ENDBRANCH   2  16
TORSDOF 7
ENDMDL
MODEL 4
REMARK VINA RESULT:      -5.1      3.344      4.935
REMARK  7 active torsions:
REMARK  status: ('A' for Active; 'I' for Inactive)
REMARK    1  A    between atoms: C_1  and  C_8 
REMARK    2  A    between atoms: C_1  and  O_2 
REMARK    3  A    between atoms: O_2  and  P_3 
REMARK    4  A    between atoms: P_3  and  O_10 
REMARK    5  A    between atoms: C_6  and  C_8 
REMARK    6  A    between atoms: C_8  and  N_23 
REMARK    7  A    between atoms: C_21  and  C_22 
REMARK       I    between atoms: C_22  and  N_23 
ROOT
HETATM    1  O           1     -18.968  -9.456  -2.253  0.00  0.00    -0.271 OA
HETATM    2  C           1     -20.026  -9.869  -1.843  0.00  0.00     0.249 C 
HETATM    3  N           1     -21.149  -9.092  -1.941  0.00  0.00    -0.343 N 
HETATM    4  H           1     -22.036  -9.438  -1.598  0.00  0.00     0.163 HD
ENDROOT
BRANCH   3   5
HETATM    5  C           1     -21.068  -7.772  -2.537  0.00  0.00     0.210 C 
BRANCH   5   6
HETATM    6  C           1     -21.456  -7.856  -4.008  0.00  0.00     0.217 C 
BRANCH   6   7
HETATM    7  O           1     -20.471  -7.232  -4.788  0.00  0.00    -0.287 OA
BRANCH   7   8
HETATM    8  P           1     -20.981  -6.038  -5.748  0.00  0.00     0.406 P 
HETATM    9  O           1     -20.786  -6.425  -7.164  0.00  0.00    -0.624 OA
HETATM   10  O           1     -20.207  -4.810  -5.461  0.00  0.00    -0.624 OA
BRANCH   8  11
HETATM   11  O           1     -22.549  -5.764  -5.477  0.00  0.00    -0.300 OA
HETATM   12  H           1     -22.581  -4.913  -5.075  0.00  0.00     0.223 HD
ENDBRANCH   8  11
ENDBRANCH   7   8
ENDBRANCH   6   7
ENDBRANCH   5   6
BRANCH   5  13
HETATM   13  C           1     -22.011  -6.838  -1.820  0.00  0.00     0.198 C 
HETATM   14  O           1     -22.491  -5.852  -2.420  0.00  0.00    -0.646 OA
HETATM   15  O           1     -22.313  -7.050  -0.626  0.00  0.00    -0.646 OA
ENDBRANCH   5  13
ENDBRANCH   3   5
BRANCH   2  16
HETATM   16  C           1     -20.111 -11.242  -1.222  0.00  0.00     0.274 C 
HETATM   17  N           1     -21.551 -11.599  -0.995  0.00  0.00    -0.067 N 
HETATM   18  H           1     -21.611 -12.549  -0.565  0.00  0.00     0.275 HD
HETATM   19  H           1     -21.985 -10.898  -0.353  0.00  0.00     0.275 HD
HETATM   20  H           1     -22.058 -11.596  -1.909  0.00  0.00     0.275 HD
HETATM   21 Se           1     -22.088 -12.725  -3.193  0.00  0.00     0.000 Se
HETATM   22  C           1     -22.587 -12.598  -5.073  0.00  0.00     0.000 C 
HETATM   23  C           1     -20.219 -12.261  -3.488  0.00  0.00     0.003 C 
HETATM   24  C           1     -19.478 -12.263  -2.158  0.00  0.00     0.042 C 
ENDBRANCH   2  16
TORSDOF 7
ENDMDL
MODEL 5
REMARK VINA RESULT:      -5.1      4.365      6.450
REMARK  7 active torsions:
REMARK  status: ('A' for Active; 'I' for Inactive)
REMARK    1  A    between atoms: C_1  and  C_8 
REMARK    2  A    between atoms: C_1  and  O_2 
REMARK    3  A    between atoms: O_2  and  P_3 
REMARK    4  A    between atoms: P_3  and  O_10 
REMARK    5  A    between atoms: C_6  and  C_8 
REMARK    6  A    between atoms: C_8  and  N_23 
REMARK    7  A    between atoms: C_21  and  C_22 
REMARK       I    between atoms: C_22  and  N_23 
ROOT
HETATM    1  O           1     -21.474 -10.775  -4.198  0.00  0.00    -0.271 OA
HETATM    2  C           1     -20.557 -10.147  -4.672  0.00  0.00     0.249 C 
HETATM    3  N           1     -20.384  -8.831  -4.339  0.00  0.00    -0.343 N 
HETATM    4  H           1     -19.615  -8.305  -4.735  0.00  0.00     0.163 HD
ENDROOT
BRANCH   3   5
HETATM    5  C           1     -21.301  -8.189  -3.417  0.00  0.00     0.210 C 
BRANCH   5   6
HETATM    6  C           1     -20.609  -7.981  -2.076  0.00  0.00     0.217 C 
BRANCH   6   7
HETATM    7  O           1     -21.097  -8.912  -1.147  0.00  0.00    -0.287 OA
BRANCH   7   8
HETATM    8  P           1     -22.171  -8.351  -0.081  0.00  0.00     0.406 P 
HETATM    9  O           1     -21.517  -8.176   1.236  0.00  0.00    -0.624 OA
HETATM   10  O           1     -23.288  -9.314   0.047  0.00  0.00    -0.624 OA
BRANCH   8  11
HETATM   11  O           1     -22.742  -6.928  -0.590  0.00  0.00    -0.300 OA
HETATM   12  H           1     -23.128  -7.108  -1.431  0.00  0.00     0.223 HD
ENDBRANCH   8  11
ENDBRANCH   7   8
ENDBRANCH   6   7
ENDBRANCH   5   6
BRANCH   5  13
HETATM   13  C           1     -21.726  -6.855  -3.978  0.00  0.00     0.198 C 
HETATM   14  O           1     -22.192  -5.978  -3.219  0.00  0.00    -0.646 OA
HETATM   15  O           1     -21.613  -6.627  -5.201  0.00  0.00    -0.646 OA
ENDBRANCH   5  13
ENDBRANCH   3   5
BRANCH   2  16
HETATM   16  C           1     -19.602 -10.814  -5.632  0.00  0.00     0.274 C 
HETATM   17  N           1     -18.627  -9.799  -6.152  0.00  0.00    -0.067 N 
HETATM   18  H           1     -17.966 -10.259  -6.817  0.00  0.00     0.275 HD
HETATM   19  H           1     -19.148  -9.041  -6.649  0.00  0.00     0.275 HD
HETATM   20  H           1     -18.092  -9.389  -5.354  0.00  0.00     0.275 HD
HETATM   21 Se           1     -16.796 -10.004  -4.423  0.00  0.00     0.000 Se
HETATM   22  C           1     -16.078  -9.552  -2.668  0.00  0.00     0.000 C 
HETATM   23  C           1     -18.061 -11.322  -3.746  0.00  0.00     0.003 C 
HETATM   24  C           1     -18.844 -11.919  -4.908  0.00  0.00     0.042 C 
ENDBRANCH   2  16
TORSDOF 7
ENDMDL
MODEL 6
REMARK VINA RESULT:      -5.1      3.952      5.794
REMARK  7 active torsions:
REMARK  status: ('A' for Active; 'I' for Inactive)
REMARK    1  A    between atoms: C_1  and  C_8 
REMARK    2  A    between atoms: C_1  and  O_2 
REMARK    3  A    between atoms: O_2  and  P_3 
REMARK    4  A    between atoms: P_3  and  O_10 
REMARK    5  A    between atoms: C_6  and  C_8 
REMARK    6  A    between atoms: C_8  and  N_23 
REMARK    7  A    between atoms: C_21  and  C_22 
REMARK       I    between atoms: C_22  and  N_23 
ROOT
HETATM    1  O           1     -19.768  -8.154  -1.472  0.00  0.00    -0.271 OA
HETATM    2  C           1     -20.942  -7.908  -1.329  0.00  0.00     0.249 C 
HETATM    3  N           1     -21.709  -7.575  -2.412  0.00  0.00    -0.343 N 
HETATM    4  H           1     -22.693  -7.369  -2.293  0.00  0.00     0.163 HD
ENDROOT
BRANCH   3   5
HETATM    5  C           1     -21.113  -7.518  -3.734  0.00  0.00     0.210 C 
BRANCH   5   6
HETATM    6  C           1     -21.485  -8.774  -4.511  0.00  0.00     0.217 C 
BRANCH   6   7
HETATM    7  O           1     -20.529  -9.005  -5.512  0.00  0.00    -0.287 OA
BRANCH   7   8
HETATM    8  P           1     -19.307  -9.981  -5.112  0.00  0.00     0.406 P 
HETATM    9  O           1     -18.468 -10.237  -6.304  0.00  0.00    -0.624 OA
HETATM   10  O           1     -19.844 -11.262  -4.602  0.00  0.00    -0.624 OA
BRANCH   8  11
HETATM   11  O           1     -18.411  -9.277  -3.966  0.00  0.00    -0.300 OA
HETATM   12  H           1     -18.250  -9.956  -3.333  0.00  0.00     0.223 HD
ENDBRANCH   8  11
ENDBRANCH   7   8
ENDBRANCH   6   7
ENDBRANCH   5   6
BRANCH   5  13
HETATM   13  C           1     -21.626  -6.302  -4.465  0.00  0.00     0.198 C 
HETATM   14  O           1     -20.832  -5.402  -4.813  0.00  0.00    -0.646 OA
HETATM   15  O           1     -22.844  -6.195  -4.722  0.00  0.00    -0.646 OA
ENDBRANCH   5  13
ENDBRANCH   3   5
BRANCH   2  16
HETATM   16  C           1     -21.563  -7.966   0.045  0.00  0.00     0.274 C 
HETATM   17  N           1     -23.058  -7.932  -0.080  0.00  0.00    -0.067 N 
HETATM   18  H           1     -23.489  -7.972   0.871  0.00  0.00     0.275 HD
HETATM   19  H           1     -23.346  -7.047  -0.556  0.00  0.00     0.275 HD
HETATM   20  H           1     -23.378  -8.752  -0.644  0.00  0.00     0.275 HD
HETATM   21 Se           1     -23.553 -10.405  -0.244  0.00  0.00     0.000 Se
HETATM   22  C           1     -23.664 -12.033  -1.309  0.00  0.00     0.000 C 
HETATM   23  C           1     -21.611 -10.449  -0.081  0.00  0.00     0.003 C 
HETATM   24  C           1     -21.142  -9.255   0.739  0.00  0.00     0.042 C 
ENDBRANCH   2  16
TORSDOF 7
ENDMDL
MODEL 7
REMARK VINA RESULT:      -5.1      4.202      5.885
REMARK  7 active torsions:
REMARK  status: ('A' for Active; 'I' for Inactive)
REMARK    1  A    between atoms: C_1  and  C_8 
REMARK    2  A    between atoms: C_1  and  O_2 
REMARK    3  A    between atoms: O_2  and  P_3 
REMARK    4  A    between atoms: P_3  and  O_10 
REMARK    5  A    between atoms: C_6  and  C_8 
REMARK    6  A    between atoms: C_8  and  N_23 
REMARK    7  A    between atoms: C_21  and  C_22 
REMARK       I    between atoms: C_22  and  N_23 
ROOT
HETATM    1  O           1     -20.026  -9.860  -1.457  0.00  0.00    -0.271 OA
HETATM    2  C           1     -21.061  -9.917  -2.078  0.00  0.00     0.249 C 
HETATM    3  N           1     -21.924  -8.855  -2.070  0.00  0.00    -0.343 N 
HETATM    4  H           1     -22.790  -8.902  -2.590  0.00  0.00     0.163 HD
ENDROOT
BRANCH   3   5
HETATM    5  C           1     -21.596  -7.660  -1.316  0.00  0.00     0.210 C 
BRANCH   5   6
HETATM    6  C           1     -22.145  -6.438  -2.040  0.00  0.00     0.217 C 
BRANCH   6   7
HETATM    7  O           1     -21.156  -5.908  -2.882  0.00  0.00    -0.287 OA
BRANCH   7   8
HETATM    8  P           1     -21.326  -6.218  -4.457  0.00  0.00     0.406 P 
HETATM    9  O           1     -20.603  -5.193  -5.244  0.00  0.00    -0.624 OA
HETATM   10  O           1     -22.762  -6.191  -4.813  0.00  0.00    -0.624 OA
BRANCH   8  11
HETATM   11  O           1     -20.716  -7.677  -4.786  0.00  0.00    -0.300 OA
HETATM   12  H           1     -21.025  -8.232  -4.091  0.00  0.00     0.223 HD
ENDBRANCH   8  11
ENDBRANCH   7   8
ENDBRANCH   6   7
ENDBRANCH   5   6
BRANCH   5  13
HETATM   13  C           1     -22.209  -7.749   0.059  0.00  0.00     0.198 C 
HETATM   14  O           1     -23.414  -7.460   0.225  0.00  0.00    -0.646 OA
HETATM   15  O           1     -21.514  -8.111   1.032  0.00  0.00    -0.646 OA
ENDBRANCH   5  13
ENDBRANCH   3   5
BRANCH   2  16
HETATM   16  C           1     -21.403 -11.161  -2.862  0.00  0.00     0.274 C 
HETATM   17  N           1     -20.428 -12.249  -2.523  0.00  0.00    -0.067 N 
HETATM   18  H           1     -20.664 -13.111  -3.064  0.00  0.00     0.275 HD
HETATM   19  H           1     -19.461 -11.938  -2.768  0.00  0.00     0.275 HD
HETATM   20  H           1     -20.479 -12.456  -1.499  0.00  0.00     0.275 HD
HETATM   21 Se           1     -21.620 -13.331  -0.574  0.00  0.00     0.000 Se
HETATM   22  C           1     -22.062 -13.361   1.324  0.00  0.00     0.000 C 
HETATM   23  C           1     -22.886 -11.917  -1.014  0.00  0.00     0.003 C 
HETATM   24  C           1     -22.813 -11.614  -2.505  0.00  0.00     0.042 C 
ENDBRANCH   2  16
TORSDOF 7
ENDMDL
MODEL 8
REMARK VINA RESULT:      -5.0      3.230      4.670
REMARK  7 active torsions:
REMARK  status: ('A' for Active; 'I' for Inactive)
REMARK    1  A    between atoms: C_1  and  C_8 
REMARK    2  A    between atoms: C_1  and  O_2 
REMARK    3  A    between atoms: O_2  and  P_3 
REMARK    4  A    between atoms: P_3  and  O_10 
REMARK    5  A    between atoms: C_6  and  C_8 
REMARK    6  A    between atoms: C_8  and  N_23 
REMARK    7  A    between atoms: C_21  and  C_22 
REMARK       I    between atoms: C_22  and  N_23 
ROOT
HETATM    1  O           1     -22.456 -10.608  -2.780  0.00  0.00    -0.271 OA
HETATM    2  C           1     -21.985  -9.628  -2.253  0.00  0.00     0.249 C 
HETATM    3  N           1     -21.161  -8.798  -2.964  0.00  0.00    -0.343 N 
HETATM    4  H           1     -20.767  -7.977  -2.524  0.00  0.00     0.163 HD
ENDROOT
BRANCH   3   5
HETATM    5  C           1     -20.854  -9.094  -4.350  0.00  0.00     0.210 C 
BRANCH   5   6
HETATM    6  C           1     -21.539  -8.074  -5.250  0.00  0.00     0.217 C 
BRANCH   6   7
HETATM    7  O           1     -21.241  -6.779  -4.802  0.00  0.00    -0.287 OA
BRANCH   7   8
HETATM    8  P           1     -20.847  -5.708  -5.945  0.00  0.00     0.406 P 
HETATM    9  O           1     -20.095  -4.588  -5.335  0.00  0.00    -0.624 OA
HETATM   10  O           1     -22.079  -5.188  -6.579  0.00  0.00    -0.624 OA
BRANCH   8  11
HETATM   11  O           1     -19.928  -6.428  -7.062  0.00  0.00    -0.300 OA
HETATM   12  H           1     -19.137  -6.666  -6.609  0.00  0.00     0.223 HD
ENDBRANCH   8  11
ENDBRANCH   7   8
ENDBRANCH   6   7
ENDBRANCH   5   6
BRANCH   5  13
HETATM   13  C           1     -19.361  -9.028  -4.559  0.00  0.00     0.198 C 
HETATM   14  O           1     -18.590  -9.075  -3.576  0.00  0.00    -0.646 OA
HETATM   15  O           1     -18.895  -8.927  -5.714  0.00  0.00    -0.646 OA
ENDBRANCH   5  13
ENDBRANCH   3   5
BRANCH   2  16
HETATM   16  C           1     -22.304  -9.319  -0.811  0.00  0.00     0.274 C 
HETATM   17  N           1     -23.323 -10.297  -0.304  0.00  0.00    -0.067 N 
HETATM   18  H           1     -23.544 -10.084   0.695  0.00  0.00     0.275 HD
HETATM   19  H           1     -24.193 -10.220  -0.877  0.00  0.00     0.275 HD
HETATM   20  H           1     -22.941 -11.267  -0.378  0.00  0.00     0.275 HD
HETATM   21 Se           1     -21.805 -12.115   0.577  0.00  0.00     0.000 Se
HETATM   22  C           1     -20.697 -13.686   0.257  0.00  0.00     0.000 C 
HETATM   23  C           1     -20.481 -10.846  -0.081  0.00  0.00     0.003 C 
HETATM   24  C           1     -21.035  -9.431   0.025  0.00  0.00     0.042 C 
ENDBRANCH   2  16
TORSDOF 7
ENDMDL
MODEL 9
REMARK VINA RESULT:      -5.0      4.516      6.709
REMARK  7 active torsions:
REMARK  status: ('A' for Active; 'I' for Inactive)
REMARK    1  A    between atoms: C_1  and  C_8 
REMARK    2  A    between atoms: C_1  and  O_2 
REMARK    3  A    between atoms: O_2  and  P_3 
REMARK    4  A    between atoms: P_3  and  O_10 
REMARK    5  A    between atoms: C_6  and  C_8 
REMARK    6  A    between atoms: C_8  and  N_23 
REMARK    7  A    between atoms: C_21  and  C_22 
REMARK       I    between atoms: C_22  and  N_23 
ROOT
HETATM    1  O           1     -18.961 -11.144  -3.572  0.00  0.00    -0.271 OA
HETATM    2  C           1     -18.379 -10.251  -3.005  0.00  0.00     0.249 C 
HETATM    3  N           1     -18.914  -8.991  -2.983  0.00  0.00    -0.343 N 
HETATM    4  H           1     -18.427  -8.242  -2.508  0.00  0.00     0.163 HD
ENDROOT
BRANCH   3   5
HETATM    5  C           1     -20.180  -8.729  -3.641  0.00  0.00     0.210 C 
BRANCH   5   6
HETATM    6  C           1     -21.043  -7.849  -2.747  0.00  0.00     0.217 C 
BRANCH   6   7
HETATM    7  O           1     -20.743  -8.110  -1.402  0.00  0.00    -0.287 OA
BRANCH   7   8
HETATM    8  P           1     -22.002  -8.158  -0.392  0.00  0.00     0.406 P 
HETATM    9  O           1     -22.802  -9.375  -0.657  0.00  0.00    -0.624 OA
HETATM   10  O           1     -22.844  -6.959  -0.597  0.00  0.00    -0.624 OA
BRANCH   8  11
HETATM   11  O           1     -21.466  -8.188   1.132  0.00  0.00    -0.300 OA
HETATM   12  H           1     -22.134  -7.752   1.633  0.00  0.00     0.223 HD
ENDBRANCH   8  11
ENDBRANCH   7   8
ENDBRANCH   6   7
ENDBRANCH   5   6
BRANCH   5  13
HETATM   13  C           1     -19.929  -8.025  -4.951  0.00  0.00     0.198 C 
HETATM   14  O           1     -20.386  -6.877  -5.141  0.00  0.00    -0.646 OA
HETATM   15  O           1     -19.265  -8.589  -5.847  0.00  0.00    -0.646 OA
ENDBRANCH   5  13
ENDBRANCH   3   5
BRANCH   2  16
HETATM   16  C           1     -17.061 -10.522  -2.320  0.00  0.00     0.274 C 
HETATM   17  N           1     -16.691 -11.964  -2.504  0.00  0.00    -0.067 N 
HETATM   18  H           1     -15.779 -12.153  -2.031  0.00  0.00     0.275 HD
HETATM   19  H           1     -17.433 -12.570  -2.085  0.00  0.00     0.275 HD
HETATM   20  H           1     -16.605 -12.174  -3.525  0.00  0.00     0.275 HD
HETATM   21 Se           1     -15.373 -11.821  -4.656  0.00  0.00     0.000 Se
HETATM   22  C           1     -15.330 -11.731  -6.602  0.00  0.00     0.000 C 
HETATM   23  C           1     -15.854  -9.947  -4.418  0.00  0.00     0.003 C 
HETATM   24  C           1     -15.981  -9.639  -2.932  0.00  0.00     0.042 C 
ENDBRANCH   2  16
TORSDOF 7
ENDMDL
