MODEL 1
REMARK VINA RESULT:      -5.0      0.000      0.000
REMARK  8 active torsions:
REMARK  status: ('A' for Active; 'I' for Inactive)
REMARK    1  A    between atoms: S_1  and  C_5 
REMARK    2  A    between atoms: N_2  and  C_6 
REMARK    3  A    between atoms: C_3  and  S_4 
REMARK    4  A    between atoms: C_3  and  C_12 
REMARK    5  A    between atoms: C_5  and  C_6 
REMARK    6  A    between atoms: C_6  and  C_7 
REMARK       I    between atoms: C_7  and  N_8 
REMARK    7  A    between atoms: N_8  and  C_12 
REMARK    8  A    between atoms: C_11  and  C_12 
ROOT
HETATM    1  C           1     -26.362  -6.439 -18.540  0.00  0.00     0.249 C 
HETATM    2  N           1     -27.655  -6.565 -18.971  0.00  0.00    -0.344 N 
HETATM    3  O           1     -26.133  -6.079 -17.410  0.00  0.00    -0.271 OA
HETATM    4  H           1     -27.846  -6.866 -19.918  0.00  0.00     0.163 HD
ENDROOT
BRANCH   1   5
HETATM    5  C           1     -25.221  -6.750 -19.478  0.00  0.00     0.283 C 
BRANCH   5   6
HETATM    6  N           1     -24.188  -7.565 -18.757  0.00  0.00    -0.066 N 
HETATM    7  H           1     -23.243  -7.148 -18.913  0.00  0.00     0.275 HD
HETATM    8  H           1     -24.402  -7.570 -17.734  0.00  0.00     0.275 HD
HETATM    9  H           1     -24.201  -8.544 -19.122  0.00  0.00     0.275 HD
ENDBRANCH   5   6
BRANCH   5  10
HETATM   10  C           1     -25.746  -7.539 -20.671  0.00  0.00     0.113 C 
BRANCH  10  11
HETATM   11  S           1     -24.383  -7.871 -21.824  0.00  0.00    -0.180 SA
HETATM   12  H           1     -24.996  -8.872 -22.481  0.00  0.00     0.101 HD
ENDBRANCH  10  11
ENDBRANCH   5  10
ENDBRANCH   1   5
BRANCH   2  13
HETATM   13  C           1     -28.751  -6.266 -18.070  0.00  0.00     0.194 C 
BRANCH  13  14
HETATM   14  C           1     -29.346  -4.911 -18.426  0.00  0.00     0.106 C 
BRANCH  14  15
HETATM   15  S           1     -28.823  -3.677 -17.203  0.00  0.00    -0.180 SA
HETATM   16  H           1     -29.381  -4.287 -16.141  0.00  0.00     0.101 HD
ENDBRANCH  14  15
ENDBRANCH  13  14
BRANCH  13  17
HETATM   17  C           1     -29.812  -7.333 -18.199  0.00  0.00     0.197 C 
HETATM   18  O           1     -29.618  -8.321 -18.940  0.00  0.00    -0.646 OA
HETATM   19  O           1     -30.883  -7.227 -17.564  0.00  0.00    -0.646 OA
ENDBRANCH  13  17
ENDBRANCH   2  13
TORSDOF 8
ENDMDL
MODEL 2
REMARK VINA RESULT:      -5.0      2.412      2.838
REMARK  8 active torsions:
REMARK  status: ('A' for Active; 'I' for Inactive)
REMARK    1  A    between atoms: S_1  and  C_5 
REMARK    2  A    between atoms: N_2  and  C_6 
REMARK    3  A    between atoms: C_3  and  S_4 
REMARK    4  A    between atoms: C_3  and  C_12 
REMARK    5  A    between atoms: C_5  and  C_6 
REMARK    6  A    between atoms: C_6  and  C_7 
REMARK       I    between atoms: C_7  and  N_8 
REMARK    7  A    between atoms: N_8  and  C_12 
REMARK    8  A    between atoms: C_11  and  C_12 
ROOT
HETATM    1  C           1     -25.329  -6.864 -18.968  0.00  0.00     0.249 C 
HETATM    2  N           1     -26.480  -6.644 -18.262  0.00  0.00    -0.344 N 
HETATM    3  O           1     -24.269  -6.483 -18.532  0.00  0.00    -0.271 OA
HETATM    4  H           1     -27.368  -6.962 -18.628  0.00  0.00     0.163 HD
ENDROOT
BRANCH   1   5
HETATM    5  C           1     -25.384  -7.584 -20.293  0.00  0.00     0.283 C 
BRANCH   5   6
HETATM    6  N           1     -26.813  -7.880 -20.642  0.00  0.00    -0.066 N 
HETATM    7  H           1     -27.113  -7.269 -21.435  0.00  0.00     0.275 HD
HETATM    8  H           1     -26.901  -8.883 -20.924  0.00  0.00     0.275 HD
HETATM    9  H           1     -27.419  -7.696 -19.811  0.00  0.00     0.275 HD
ENDBRANCH   5   6
BRANCH   5  10
HETATM   10  C           1     -24.770  -6.706 -21.375  0.00  0.00     0.113 C 
BRANCH  10  11
HETATM   11  S           1     -23.861  -7.744 -22.555  0.00  0.00    -0.180 SA
HETATM   12  H           1     -23.867  -6.851 -23.561  0.00  0.00     0.101 HD
ENDBRANCH  10  11
ENDBRANCH   5  10
ENDBRANCH   1   5
BRANCH   2  13
HETATM   13  C           1     -26.428  -5.952 -16.989  0.00  0.00     0.194 C 
BRANCH  13  14
HETATM   14  C           1     -27.659  -5.069 -16.839  0.00  0.00     0.106 C 
BRANCH  14  15
HETATM   15  S           1     -28.768  -5.331 -18.252  0.00  0.00    -0.180 SA
HETATM   16  H           1     -29.326  -4.107 -18.220  0.00  0.00     0.101 HD
ENDBRANCH  14  15
ENDBRANCH  13  14
BRANCH  13  17
HETATM   17  C           1     -26.393  -6.963 -15.868  0.00  0.00     0.197 C 
HETATM   18  O           1     -25.296  -7.370 -15.428  0.00  0.00    -0.646 OA
HETATM   19  O           1     -27.460  -7.392 -15.380  0.00  0.00    -0.646 OA
ENDBRANCH  13  17
ENDBRANCH   2  13
TORSDOF 8
ENDMDL
MODEL 3
REMARK VINA RESULT:      -4.8     11.039     12.197
REMARK  8 active torsions:
REMARK  status: ('A' for Active; 'I' for Inactive)
REMARK    1  A    between atoms: S_1  and  C_5 
REMARK    2  A    between atoms: N_2  and  C_6 
REMARK    3  A    between atoms: C_3  and  S_4 
REMARK    4  A    between atoms: C_3  and  C_12 
REMARK    5  A    between atoms: C_5  and  C_6 
REMARK    6  A    between atoms: C_6  and  C_7 
REMARK       I    between atoms: C_7  and  N_8 
REMARK    7  A    between atoms: N_8  and  C_12 
REMARK    8  A    between atoms: C_11  and  C_12 
ROOT
HETATM    1  C           1     -21.788  -4.576  -7.768  0.00  0.00     0.249 C 
HETATM    2  N           1     -22.326  -4.742  -9.015  0.00  0.00    -0.344 N 
HETATM    3  O           1     -21.758  -3.478  -7.263  0.00  0.00    -0.271 OA
HETATM    4  H           1     -22.350  -5.661  -9.438  0.00  0.00     0.163 HD
ENDROOT
BRANCH   1   5
HETATM    5  C           1     -21.230  -5.764  -7.024  0.00  0.00     0.283 C 
BRANCH   5   6
HETATM    6  N           1     -19.875  -6.105  -7.570  0.00  0.00    -0.066 N 
HETATM    7  H           1     -19.153  -5.495  -7.123  0.00  0.00     0.275 HD
HETATM    8  H           1     -19.659  -7.107  -7.365  0.00  0.00     0.275 HD
HETATM    9  H           1     -19.868  -5.951  -8.604  0.00  0.00     0.275 HD
ENDBRANCH   5   6
BRANCH   5  10
HETATM   10  C           1     -21.108  -5.426  -5.544  0.00  0.00     0.113 C 
BRANCH  10  11
HETATM   11  S           1     -21.918  -6.718  -4.559  0.00  0.00    -0.180 SA
HETATM   12  H           1     -21.448  -6.302  -3.369  0.00  0.00     0.101 HD
ENDBRANCH  10  11
ENDBRANCH   5  10
ENDBRANCH   1   5
BRANCH   2  13
HETATM   13  C           1     -22.863  -3.601  -9.731  0.00  0.00     0.194 C 
BRANCH  13  14
HETATM   14  C           1     -22.008  -3.324 -10.960  0.00  0.00     0.106 C 
BRANCH  14  15
HETATM   15  S           1     -20.494  -4.322 -10.883  0.00  0.00    -0.180 SA
HETATM   16  H           1     -20.861  -5.051  -9.814  0.00  0.00     0.101 HD
ENDBRANCH  14  15
ENDBRANCH  13  14
BRANCH  13  17
HETATM   17  C           1     -24.280  -3.897 -10.159  0.00  0.00     0.197 C 
HETATM   18  O           1     -24.832  -4.959  -9.799  0.00  0.00    -0.646 OA
HETATM   19  O           1     -24.900  -3.080 -10.873  0.00  0.00    -0.646 OA
ENDBRANCH  13  17
ENDBRANCH   2  13
TORSDOF 8
ENDMDL
MODEL 4
REMARK VINA RESULT:      -4.8     10.123     11.369
REMARK  8 active torsions:
REMARK  status: ('A' for Active; 'I' for Inactive)
REMARK    1  A    between atoms: S_1  and  C_5 
REMARK    2  A    between atoms: N_2  and  C_6 
REMARK    3  A    between atoms: C_3  and  S_4 
REMARK    4  A    between atoms: C_3  and  C_12 
REMARK    5  A    between atoms: C_5  and  C_6 
REMARK    6  A    between atoms: C_6  and  C_7 
REMARK       I    between atoms: C_7  and  N_8 
REMARK    7  A    between atoms: N_8  and  C_12 
REMARK    8  A    between atoms: C_11  and  C_12 
ROOT
HETATM    1  C           1     -34.293  -2.600 -12.157  0.00  0.00     0.249 C 
HETATM    2  N           1     -35.049  -1.699 -12.857  0.00  0.00    -0.344 N 
HETATM    3  O           1     -33.684  -2.244 -11.176  0.00  0.00    -0.271 OA
HETATM    4  H           1     -35.559  -1.996 -13.679  0.00  0.00     0.163 HD
ENDROOT
BRANCH   1   5
HETATM    5  C           1     -34.221  -4.037 -12.611  0.00  0.00     0.283 C 
BRANCH   5   6
HETATM    6  N           1     -33.704  -4.092 -14.018  0.00  0.00    -0.066 N 
HETATM    7  H           1     -33.236  -5.012 -14.183  0.00  0.00     0.275 HD
HETATM    8  H           1     -34.501  -3.982 -14.685  0.00  0.00     0.275 HD
HETATM    9  H           1     -33.016  -3.319 -14.165  0.00  0.00     0.275 HD
ENDBRANCH   5   6
BRANCH   5  10
HETATM   10  C           1     -33.283  -4.812 -11.695  0.00  0.00     0.113 C 
BRANCH  10  11
HETATM   11  S           1     -34.248  -5.952 -10.663  0.00  0.00    -0.180 SA
HETATM   12  H           1     -34.692  -5.018  -9.802  0.00  0.00     0.101 HD
ENDBRANCH  10  11
ENDBRANCH   5  10
ENDBRANCH   1   5
BRANCH   2  13
HETATM   13  C           1     -35.119  -0.318 -12.422  0.00  0.00     0.194 C 
BRANCH  13  14
HETATM   14  C           1     -35.146   0.598 -13.638  0.00  0.00     0.106 C 
BRANCH  14  15
HETATM   15  S           1     -35.678  -0.345 -15.095  0.00  0.00    -0.180 SA
HETATM   16  H           1     -36.998  -0.164 -14.905  0.00  0.00     0.101 HD
ENDBRANCH  14  15
ENDBRANCH  13  14
BRANCH  13  17
HETATM   17  C           1     -36.373  -0.110 -11.607  0.00  0.00     0.197 C 
HETATM   18  O           1     -37.456  -0.604 -11.990  0.00  0.00    -0.646 OA
HETATM   19  O           1     -36.328   0.554 -10.550  0.00  0.00    -0.646 OA
ENDBRANCH  13  17
ENDBRANCH   2  13
TORSDOF 8
ENDMDL
MODEL 5
REMARK VINA RESULT:      -4.1     18.550     20.184
REMARK  8 active torsions:
REMARK  status: ('A' for Active; 'I' for Inactive)
REMARK    1  A    between atoms: S_1  and  C_5 
REMARK    2  A    between atoms: N_2  and  C_6 
REMARK    3  A    between atoms: C_3  and  S_4 
REMARK    4  A    between atoms: C_3  and  C_12 
REMARK    5  A    between atoms: C_5  and  C_6 
REMARK    6  A    between atoms: C_6  and  C_7 
REMARK       I    between atoms: C_7  and  N_8 
REMARK    7  A    between atoms: N_8  and  C_12 
REMARK    8  A    between atoms: C_11  and  C_12 
ROOT
HETATM    1  C           1     -11.529   6.432 -20.870  0.00  0.00     0.249 C 
HETATM    2  N           1     -12.192   5.325 -20.413  0.00  0.00    -0.344 N 
HETATM    3  O           1     -11.783   6.879 -21.964  0.00  0.00    -0.271 OA
HETATM    4  H           1     -11.979   4.949 -19.497  0.00  0.00     0.163 HD
ENDROOT
BRANCH   1   5
HETATM    5  C           1     -10.482   7.093 -20.009  0.00  0.00     0.283 C 
BRANCH   5   6
HETATM    6  N           1      -9.130   6.541 -20.352  0.00  0.00    -0.066 N 
HETATM    7  H           1      -8.390   7.112 -19.886  0.00  0.00     0.275 HD
HETATM    8  H           1      -9.065   5.551 -20.023  0.00  0.00     0.275 HD
HETATM    9  H           1      -8.994   6.573 -21.388  0.00  0.00     0.275 HD
ENDBRANCH   5   6
BRANCH   5  10
HETATM   10  C           1     -10.493   8.595 -20.258  0.00  0.00     0.113 C 
BRANCH  10  11
HETATM   11  S           1      -9.029   9.060 -21.225  0.00  0.00    -0.180 SA
HETATM   12  H           1      -8.577   7.807 -21.405  0.00  0.00     0.101 HD
ENDBRANCH  10  11
ENDBRANCH   5  10
ENDBRANCH   1   5
BRANCH   2  13
HETATM   13  C           1     -13.198   4.689 -21.240  0.00  0.00     0.194 C 
BRANCH  13  14
HETATM   14  C           1     -13.068   3.176 -21.127  0.00  0.00     0.106 C 
BRANCH  14  15
HETATM   15  S           1     -11.344   2.741 -20.760  0.00  0.00    -0.180 SA
HETATM   16  H           1     -11.351   1.570 -21.422  0.00  0.00     0.101 HD
ENDBRANCH  14  15
ENDBRANCH  13  14
BRANCH  13  17
HETATM   17  C           1     -14.571   5.112 -20.777  0.00  0.00     0.197 C 
HETATM   18  O           1     -15.473   5.332 -21.614  0.00  0.00    -0.646 OA
HETATM   19  O           1     -14.806   5.242 -19.557  0.00  0.00    -0.646 OA
ENDBRANCH  13  17
ENDBRANCH   2  13
TORSDOF 8
ENDMDL
MODEL 6
REMARK VINA RESULT:      -4.1     18.769     20.484
REMARK  8 active torsions:
REMARK  status: ('A' for Active; 'I' for Inactive)
REMARK    1  A    between atoms: S_1  and  C_5 
REMARK    2  A    between atoms: N_2  and  C_6 
REMARK    3  A    between atoms: C_3  and  S_4 
REMARK    4  A    between atoms: C_3  and  C_12 
REMARK    5  A    between atoms: C_5  and  C_6 
REMARK    6  A    between atoms: C_6  and  C_7 
REMARK       I    between atoms: C_7  and  N_8 
REMARK    7  A    between atoms: N_8  and  C_12 
REMARK    8  A    between atoms: C_11  and  C_12 
ROOT
HETATM    1  C           1     -12.668   5.381 -19.945  0.00  0.00     0.249 C 
HETATM    2  N           1     -12.601   6.571 -20.618  0.00  0.00    -0.344 N 
HETATM    3  O           1     -11.878   5.140 -19.063  0.00  0.00    -0.271 OA
HETATM    4  H           1     -13.262   6.773 -21.358  0.00  0.00     0.163 HD
ENDROOT
BRANCH   1   5
HETATM    5  C           1     -13.728   4.370 -20.306  0.00  0.00     0.283 C 
BRANCH   5   6
HETATM    6  N           1     -14.806   5.039 -21.106  0.00  0.00    -0.066 N 
HETATM    7  H           1     -14.593   4.949 -22.125  0.00  0.00     0.275 HD
HETATM    8  H           1     -15.725   4.584 -20.901  0.00  0.00     0.275 HD
HETATM    9  H           1     -14.853   6.051 -20.848  0.00  0.00     0.275 HD
ENDBRANCH   5   6
BRANCH   5  10
HETATM   10  C           1     -13.104   3.253 -21.133  0.00  0.00     0.113 C 
BRANCH  10  11
HETATM   11  S           1     -13.281   3.635 -22.899  0.00  0.00    -0.180 SA
HETATM   12  H           1     -14.530   3.149 -23.023  0.00  0.00     0.101 HD
ENDBRANCH  10  11
ENDBRANCH   5  10
ENDBRANCH   1   5
BRANCH   2  13
HETATM   13  C           1     -11.583   7.544 -20.272  0.00  0.00     0.194 C 
BRANCH  13  14
HETATM   14  C           1     -10.794   7.919 -21.519  0.00  0.00     0.106 C 
BRANCH  14  15
HETATM   15  S           1      -9.325   8.872 -21.044  0.00  0.00    -0.180 SA
HETATM   16  H           1      -8.454   7.853 -21.158  0.00  0.00     0.101 HD
ENDBRANCH  14  15
ENDBRANCH  13  14
BRANCH  13  17
HETATM   17  C           1     -12.239   8.777 -19.701  0.00  0.00     0.197 C 
HETATM   18  O           1     -13.061   9.423 -20.387  0.00  0.00    -0.646 OA
HETATM   19  O           1     -11.962   9.152 -18.541  0.00  0.00    -0.646 OA
ENDBRANCH  13  17
ENDBRANCH   2  13
TORSDOF 8
ENDMDL
MODEL 7
REMARK VINA RESULT:      -4.0     14.365     15.494
REMARK  8 active torsions:
REMARK  status: ('A' for Active; 'I' for Inactive)
REMARK    1  A    between atoms: S_1  and  C_5 
REMARK    2  A    between atoms: N_2  and  C_6 
REMARK    3  A    between atoms: C_3  and  S_4 
REMARK    4  A    between atoms: C_3  and  C_12 
REMARK    5  A    between atoms: C_5  and  C_6 
REMARK    6  A    between atoms: C_6  and  C_7 
REMARK       I    between atoms: C_7  and  N_8 
REMARK    7  A    between atoms: N_8  and  C_12 
REMARK    8  A    between atoms: C_11  and  C_12 
ROOT
HETATM    1  C           1     -21.448  -5.752  -5.704  0.00  0.00     0.249 C 
HETATM    2  N           1     -20.867  -6.671  -4.873  0.00  0.00    -0.344 N 
HETATM    3  O           1     -22.646  -5.598  -5.693  0.00  0.00    -0.271 OA
HETATM    4  H           1     -19.863  -6.800  -4.883  0.00  0.00     0.163 HD
ENDROOT
BRANCH   1   5
HETATM    5  C           1     -20.590  -4.931  -6.636  0.00  0.00     0.283 C 
BRANCH   5   6
HETATM    6  N           1     -20.028  -5.816  -7.708  0.00  0.00    -0.066 N 
HETATM    7  H           1     -20.597  -6.690  -7.775  0.00  0.00     0.275 HD
HETATM    8  H           1     -20.054  -5.312  -8.624  0.00  0.00     0.275 HD
HETATM    9  H           1     -19.039  -6.061  -7.474  0.00  0.00     0.275 HD
ENDBRANCH   5   6
BRANCH   5  10
HETATM   10  C           1     -21.437  -3.837  -7.274  0.00  0.00     0.113 C 
BRANCH  10  11
HETATM   11  S           1     -21.824  -4.293  -8.988  0.00  0.00    -0.180 SA
HETATM   12  H           1     -20.747  -3.703  -9.536  0.00  0.00     0.101 HD
ENDBRANCH  10  11
ENDBRANCH   5  10
ENDBRANCH   1   5
BRANCH   2  13
HETATM   13  C           1     -21.690  -7.461  -3.977  0.00  0.00     0.194 C 
BRANCH  13  14
HETATM   14  C           1     -21.188  -8.898  -3.961  0.00  0.00     0.106 C 
BRANCH  14  15
HETATM   15  S           1     -19.573  -8.986  -4.783  0.00  0.00    -0.180 SA
HETATM   16  H           1     -20.011  -8.598  -5.995  0.00  0.00     0.101 HD
ENDBRANCH  14  15
ENDBRANCH  13  14
BRANCH  13  17
HETATM   17  C           1     -21.613  -6.884  -2.584  0.00  0.00     0.197 C 
HETATM   18  O           1     -22.320  -5.901  -2.275  0.00  0.00    -0.646 OA
HETATM   19  O           1     -20.843  -7.390  -1.740  0.00  0.00    -0.646 OA
ENDBRANCH  13  17
ENDBRANCH   2  13
TORSDOF 8
ENDMDL
MODEL 8
REMARK VINA RESULT:      -4.0     18.562     20.200
REMARK  8 active torsions:
REMARK  status: ('A' for Active; 'I' for Inactive)
REMARK    1  A    between atoms: S_1  and  C_5 
REMARK    2  A    between atoms: N_2  and  C_6 
REMARK    3  A    between atoms: C_3  and  S_4 
REMARK    4  A    between atoms: C_3  and  C_12 
REMARK    5  A    between atoms: C_5  and  C_6 
REMARK    6  A    between atoms: C_6  and  C_7 
REMARK       I    between atoms: C_7  and  N_8 
REMARK    7  A    between atoms: N_8  and  C_12 
REMARK    8  A    between atoms: C_11  and  C_12 
ROOT
HETATM    1  C           1     -11.675   6.362 -20.216  0.00  0.00     0.249 C 
HETATM    2  N           1     -11.700   5.358 -21.146  0.00  0.00    -0.344 N 
HETATM    3  O           1     -12.628   6.543 -19.496  0.00  0.00    -0.271 OA
HETATM    4  H           1     -10.903   5.207 -21.750  0.00  0.00     0.163 HD
ENDROOT
BRANCH   1   5
HETATM    5  C           1     -10.457   7.244 -20.092  0.00  0.00     0.283 C 
BRANCH   5   6
HETATM    6  N           1      -9.221   6.423 -20.315  0.00  0.00    -0.066 N 
HETATM    7  H           1      -8.674   6.824 -21.110  0.00  0.00     0.275 HD
HETATM    8  H           1      -8.636   6.434 -19.449  0.00  0.00     0.275 HD
HETATM    9  H           1      -9.493   5.439 -20.540  0.00  0.00     0.275 HD
ENDBRANCH   5   6
BRANCH   5  10
HETATM   10  C           1     -10.524   8.352 -21.135  0.00  0.00     0.113 C 
BRANCH  10  11
HETATM   11  S           1      -8.885   9.111 -21.317  0.00  0.00    -0.180 SA
HETATM   12  H           1      -8.198   8.096 -20.765  0.00  0.00     0.101 HD
ENDBRANCH  10  11
ENDBRANCH   5  10
ENDBRANCH   1   5
BRANCH   2  13
HETATM   13  C           1     -12.871   4.510 -21.266  0.00  0.00     0.194 C 
BRANCH  13  14
HETATM   14  C           1     -13.454   4.644 -22.666  0.00  0.00     0.106 C 
BRANCH  14  15
HETATM   15  S           1     -15.147   5.290 -22.558  0.00  0.00    -0.180 SA
HETATM   16  H           1     -15.760   4.115 -22.785  0.00  0.00     0.101 HD
ENDBRANCH  14  15
ENDBRANCH  13  14
BRANCH  13  17
HETATM   17  C           1     -12.478   3.073 -21.019  0.00  0.00     0.197 C 
HETATM   18  O           1     -11.349   2.805 -20.554  0.00  0.00    -0.646 OA
HETATM   19  O           1     -13.281   2.152 -21.280  0.00  0.00    -0.646 OA
ENDBRANCH  13  17
ENDBRANCH   2  13
TORSDOF 8
ENDMDL
MODEL 9
REMARK VINA RESULT:      -4.0      2.068      2.263
REMARK  8 active torsions:
REMARK  status: ('A' for Active; 'I' for Inactive)
REMARK    1  A    between atoms: S_1  and  C_5 
REMARK    2  A    between atoms: N_2  and  C_6 
REMARK    3  A    between atoms: C_3  and  S_4 
REMARK    4  A    between atoms: C_3  and  C_12 
REMARK    5  A    between atoms: C_5  and  C_6 
REMARK    6  A    between atoms: C_6  and  C_7 
REMARK       I    between atoms: C_7  and  N_8 
REMARK    7  A    between atoms: N_8  and  C_12 
REMARK    8  A    between atoms: C_11  and  C_12 
ROOT
HETATM    1  C           1     -26.312  -6.421 -18.983  0.00  0.00     0.249 C 
HETATM    2  N           1     -27.471  -6.172 -18.300  0.00  0.00    -0.344 N 
HETATM    3  O           1     -25.265  -6.512 -18.386  0.00  0.00    -0.271 OA
HETATM    4  H           1     -28.348  -6.094 -18.800  0.00  0.00     0.163 HD
ENDROOT
BRANCH   1   5
HETATM    5  C           1     -26.342  -6.582 -20.483  0.00  0.00     0.283 C 
BRANCH   5   6
HETATM    6  N           1     -25.237  -5.771 -21.095  0.00  0.00    -0.066 N 
HETATM    7  H           1     -25.642  -4.950 -21.598  0.00  0.00     0.275 HD
HETATM    8  H           1     -24.594  -5.436 -20.342  0.00  0.00     0.275 HD
HETATM    9  H           1     -24.704  -6.365 -21.771  0.00  0.00     0.275 HD
ENDBRANCH   5   6
BRANCH   5  10
HETATM   10  C           1     -26.151  -8.050 -20.841  0.00  0.00     0.113 C 
BRANCH  10  11
HETATM   11  S           1     -27.770  -8.818 -21.129  0.00  0.00    -0.180 SA
HETATM   12  H           1     -27.452  -9.374 -22.313  0.00  0.00     0.101 HD
ENDBRANCH  10  11
ENDBRANCH   5  10
ENDBRANCH   1   5
BRANCH   2  13
HETATM   13  C           1     -27.444  -6.017 -16.858  0.00  0.00     0.194 C 
BRANCH  13  14
HETATM   14  C           1     -28.109  -4.702 -16.475  0.00  0.00     0.106 C 
BRANCH  14  15
HETATM   15  S           1     -29.250  -4.194 -17.792  0.00  0.00    -0.180 SA
HETATM   16  H           1     -28.974  -5.218 -18.620  0.00  0.00     0.101 HD
ENDBRANCH  14  15
ENDBRANCH  13  14
BRANCH  13  17
HETATM   17  C           1     -28.186  -7.163 -16.215  0.00  0.00     0.197 C 
HETATM   18  O           1     -27.858  -7.559 -15.076  0.00  0.00    -0.646 OA
HETATM   19  O           1     -29.129  -7.715 -16.822  0.00  0.00    -0.646 OA
ENDBRANCH  13  17
ENDBRANCH   2  13
TORSDOF 8
ENDMDL
