MODEL 1
REMARK VINA RESULT:      -6.0      0.000      0.000
REMARK  5 active torsions:
REMARK  status: ('A' for Active; 'I' for Inactive)
REMARK    1  A    between atoms: C_2  and  C_4 
REMARK    2  A    between atoms: C_4  and  C_5 
REMARK    3  A    between atoms: C_4  and  N_8 
REMARK       I    between atoms: N_8  and  C_9 
REMARK    4  A    between atoms: C_9  and  C_10 
REMARK    5  A    between atoms: C_10  and  N_16 
ROOT
HETATM    1  N           1     -22.172  -4.786  -8.633  0.00  0.00    -0.344 N 
HETATM    2  C           1     -21.693  -4.359  -7.423  0.00  0.00     0.248 C 
HETATM    3  H           1     -22.337  -5.771  -8.793  0.00  0.00     0.163 HD
HETATM    4  O           1     -21.496  -3.182  -7.233  0.00  0.00    -0.271 OA
ENDROOT
BRANCH   1   5
HETATM    5  C           1     -22.443  -3.825  -9.685  0.00  0.00     0.189 C 
BRANCH   5   6
HETATM    6  C           1     -21.526  -4.098 -10.870  0.00  0.00     0.010 C 
HETATM    7  C           1     -21.194  -2.786 -11.567  0.00  0.00     0.012 C 
HETATM    8  C           1     -20.241  -4.751 -10.376  0.00  0.00     0.012 C 
ENDBRANCH   5   6
BRANCH   5   9
HETATM    9  C           1     -23.883  -3.953 -10.123  0.00  0.00     0.197 C 
HETATM   10  O           1     -24.443  -5.070 -10.109  0.00  0.00    -0.646 OA
HETATM   11  O           1     -24.513  -2.941 -10.499  0.00  0.00    -0.646 OA
ENDBRANCH   5   9
ENDBRANCH   1   5
BRANCH   2  12
HETATM   12  C           1     -21.410  -5.358  -6.329  0.00  0.00     0.270 C 
HETATM   13  C           1     -20.313  -4.819  -5.420  0.00  0.00     0.050 C 
BRANCH  12  14
HETATM   14  N           1     -20.963  -6.653  -6.938  0.00  0.00    -0.067 N 
HETATM   15  H           1     -21.080  -6.608  -7.977  0.00  0.00     0.275 HD
HETATM   16  H           1     -21.541  -7.435  -6.556  0.00  0.00     0.275 HD
HETATM   17  H           1     -19.957  -6.819  -6.707  0.00  0.00     0.275 HD
ENDBRANCH  12  14
ENDBRANCH   2  12
TORSDOF 5
ENDMDL
MODEL 2
REMARK VINA RESULT:      -5.8      9.682     11.321
REMARK  5 active torsions:
REMARK  status: ('A' for Active; 'I' for Inactive)
REMARK    1  A    between atoms: C_2  and  C_4 
REMARK    2  A    between atoms: C_4  and  C_5 
REMARK    3  A    between atoms: C_4  and  N_8 
REMARK       I    between atoms: N_8  and  C_9 
REMARK    4  A    between atoms: C_9  and  C_10 
REMARK    5  A    between atoms: C_10  and  N_16 
ROOT
HETATM    1  N           1     -26.904  -6.574 -18.376  0.00  0.00    -0.344 N 
HETATM    2  C           1     -25.653  -6.791 -18.890  0.00  0.00     0.248 C 
HETATM    3  H           1     -27.722  -6.852 -18.902  0.00  0.00     0.163 HD
HETATM    4  O           1     -24.676  -6.460 -18.261  0.00  0.00    -0.271 OA
ENDROOT
BRANCH   1   5
HETATM    5  C           1     -27.055  -5.947 -17.077  0.00  0.00     0.189 C 
BRANCH   5   6
HETATM    6  C           1     -28.373  -5.186 -17.032  0.00  0.00     0.010 C 
HETATM    7  C           1     -28.098  -3.710 -16.779  0.00  0.00     0.012 C 
HETATM    8  C           1     -29.097  -5.348 -18.363  0.00  0.00     0.012 C 
ENDBRANCH   5   6
BRANCH   5   9
HETATM    9  C           1     -27.049  -7.009 -16.003  0.00  0.00     0.197 C 
HETATM   10  O           1     -28.118  -7.559 -15.663  0.00  0.00    -0.646 OA
HETATM   11  O           1     -25.975  -7.335 -15.455  0.00  0.00    -0.646 OA
ENDBRANCH   5   9
ENDBRANCH   1   5
BRANCH   2  12
HETATM   12  C           1     -25.496  -7.443 -20.241  0.00  0.00     0.270 C 
HETATM   13  C           1     -25.036  -6.404 -21.256  0.00  0.00     0.050 C 
BRANCH  12  14
HETATM   14  N           1     -26.811  -8.018 -20.675  0.00  0.00    -0.067 N 
HETATM   15  H           1     -27.584  -7.376 -20.386  0.00  0.00     0.275 HD
HETATM   16  H           1     -26.947  -8.952 -20.227  0.00  0.00     0.275 HD
HETATM   17  H           1     -26.819  -8.126 -21.715  0.00  0.00     0.275 HD
ENDBRANCH  12  14
ENDBRANCH   2  12
TORSDOF 5
ENDMDL
MODEL 3
REMARK VINA RESULT:      -5.7     12.171     14.137
REMARK  5 active torsions:
REMARK  status: ('A' for Active; 'I' for Inactive)
REMARK    1  A    between atoms: C_2  and  C_4 
REMARK    2  A    between atoms: C_4  and  C_5 
REMARK    3  A    between atoms: C_4  and  N_8 
REMARK       I    between atoms: N_8  and  C_9 
REMARK    4  A    between atoms: C_9  and  C_10 
REMARK    5  A    between atoms: C_10  and  N_16 
ROOT
HETATM    1  N           1     -35.282  -1.780 -12.589  0.00  0.00    -0.344 N 
HETATM    2  C           1     -34.288  -2.521 -12.008  0.00  0.00     0.248 C 
HETATM    3  H           1     -35.874  -2.194 -13.296  0.00  0.00     0.163 HD
HETATM    4  O           1     -33.580  -2.026 -11.163  0.00  0.00    -0.271 OA
ENDROOT
BRANCH   1   5
HETATM    5  C           1     -35.484  -0.400 -12.191  0.00  0.00     0.189 C 
BRANCH   5   6
HETATM    6  C           1     -35.805   0.440 -13.419  0.00  0.00     0.010 C 
HETATM    7  C           1     -34.569   1.229 -13.831  0.00  0.00     0.012 C 
HETATM    8  C           1     -36.229  -0.474 -14.562  0.00  0.00     0.012 C 
ENDBRANCH   5   6
BRANCH   5   9
HETATM    9  C           1     -36.633  -0.323 -11.214  0.00  0.00     0.197 C 
HETATM   10  O           1     -37.632  -1.058 -11.366  0.00  0.00    -0.646 OA
HETATM   11  O           1     -36.584   0.476 -10.254  0.00  0.00    -0.646 OA
ENDBRANCH   5   9
ENDBRANCH   1   5
BRANCH   2  12
HETATM   12  C           1     -34.077  -3.956 -12.423  0.00  0.00     0.270 C 
HETATM   13  C           1     -32.829  -4.504 -11.741  0.00  0.00     0.050 C 
BRANCH  12  14
HETATM   14  N           1     -33.904  -4.026 -13.911  0.00  0.00    -0.067 N 
HETATM   15  H           1     -32.939  -3.713 -14.164  0.00  0.00     0.275 HD
HETATM   16  H           1     -34.605  -3.404 -14.372  0.00  0.00     0.275 HD
HETATM   17  H           1     -34.046  -5.010 -14.233  0.00  0.00     0.275 HD
ENDBRANCH  12  14
ENDBRANCH   2  12
TORSDOF 5
ENDMDL
MODEL 4
REMARK VINA RESULT:      -5.7     13.612     15.591
REMARK  5 active torsions:
REMARK  status: ('A' for Active; 'I' for Inactive)
REMARK    1  A    between atoms: C_2  and  C_4 
REMARK    2  A    between atoms: C_4  and  C_5 
REMARK    3  A    between atoms: C_4  and  N_8 
REMARK       I    between atoms: N_8  and  C_9 
REMARK    4  A    between atoms: C_9  and  C_10 
REMARK    5  A    between atoms: C_10  and  N_16 
ROOT
HETATM    1  N           1     -35.750  -0.492 -12.380  0.00  0.00    -0.344 N 
HETATM    2  C           1     -36.441  -0.388 -13.559  0.00  0.00     0.248 C 
HETATM    3  H           1     -34.818  -0.106 -12.305  0.00  0.00     0.163 HD
HETATM    4  O           1     -37.554  -0.849 -13.649  0.00  0.00    -0.271 OA
ENDROOT
BRANCH   1   5
HETATM    5  C           1     -36.356  -1.154 -11.241  0.00  0.00     0.189 C 
BRANCH   5   6
HETATM    6  C           1     -35.343  -2.096 -10.605  0.00  0.00     0.010 C 
HETATM    7  C           1     -35.785  -3.537 -10.821  0.00  0.00     0.012 C 
HETATM    8  C           1     -33.978  -1.881 -11.247  0.00  0.00     0.012 C 
ENDBRANCH   5   6
BRANCH   5   9
HETATM    9  C           1     -36.787  -0.119 -10.230  0.00  0.00     0.197 C 
HETATM   10  O           1     -37.720   0.667 -10.500  0.00  0.00    -0.646 OA
HETATM   11  O           1     -36.210  -0.050  -9.123  0.00  0.00    -0.646 OA
ENDBRANCH   5   9
ENDBRANCH   1   5
BRANCH   2  12
HETATM   12  C           1     -35.810   0.300 -14.744  0.00  0.00     0.270 C 
HETATM   13  C           1     -34.769   1.299 -14.257  0.00  0.00     0.050 C 
BRANCH  12  14
HETATM   14  N           1     -36.868   1.021 -15.524  0.00  0.00    -0.067 N 
HETATM   15  H           1     -36.673   2.049 -15.507  0.00  0.00     0.275 HD
HETATM   16  H           1     -37.803   0.836 -15.096  0.00  0.00     0.275 HD
HETATM   17  H           1     -36.865   0.683 -16.513  0.00  0.00     0.275 HD
ENDBRANCH  12  14
ENDBRANCH   2  12
TORSDOF 5
ENDMDL
MODEL 5
REMARK VINA RESULT:      -5.6     12.836     14.596
REMARK  5 active torsions:
REMARK  status: ('A' for Active; 'I' for Inactive)
REMARK    1  A    between atoms: C_2  and  C_4 
REMARK    2  A    between atoms: C_4  and  C_5 
REMARK    3  A    between atoms: C_4  and  N_8 
REMARK       I    between atoms: N_8  and  C_9 
REMARK    4  A    between atoms: C_9  and  C_10 
REMARK    5  A    between atoms: C_10  and  N_16 
ROOT
HETATM    1  N           1     -34.807  -1.524 -13.007  0.00  0.00    -0.344 N 
HETATM    2  C           1     -35.887  -0.841 -13.499  0.00  0.00     0.248 C 
HETATM    3  H           1     -33.895  -1.395 -13.424  0.00  0.00     0.163 HD
HETATM    4  O           1     -36.977  -0.995 -13.000  0.00  0.00    -0.271 OA
ENDROOT
BRANCH   1   5
HETATM    5  C           1     -34.971  -2.432 -11.889  0.00  0.00     0.189 C 
BRANCH   5   6
HETATM    6  C           1     -34.037  -3.622 -12.060  0.00  0.00     0.010 C 
HETATM    7  C           1     -34.531  -4.782 -11.207  0.00  0.00     0.012 C 
HETATM    8  C           1     -34.014  -4.041 -13.525  0.00  0.00     0.012 C 
ENDBRANCH   5   6
BRANCH   5   9
HETATM    9  C           1     -34.639  -1.712 -10.604  0.00  0.00     0.197 C 
HETATM   10  O           1     -35.544  -1.149  -9.952  0.00  0.00    -0.646 OA
HETATM   11  O           1     -33.459  -1.678 -10.194  0.00  0.00    -0.646 OA
ENDBRANCH   5   9
ENDBRANCH   1   5
BRANCH   2  12
HETATM   12  C           1     -35.716   0.103 -14.663  0.00  0.00     0.270 C 
HETATM   13  C           1     -34.778   1.236 -14.266  0.00  0.00     0.050 C 
BRANCH  12  14
HETATM   14  N           1     -37.050   0.672 -15.046  0.00  0.00    -0.067 N 
HETATM   15  H           1     -37.237   1.532 -14.481  0.00  0.00     0.275 HD
HETATM   16  H           1     -37.796  -0.036 -14.861  0.00  0.00     0.275 HD
HETATM   17  H           1     -37.047   0.916 -16.062  0.00  0.00     0.275 HD
ENDBRANCH  12  14
ENDBRANCH   2  12
TORSDOF 5
ENDMDL
MODEL 6
REMARK VINA RESULT:      -5.6      9.827     11.311
REMARK  5 active torsions:
REMARK  status: ('A' for Active; 'I' for Inactive)
REMARK    1  A    between atoms: C_2  and  C_4 
REMARK    2  A    between atoms: C_4  and  C_5 
REMARK    3  A    between atoms: C_4  and  N_8 
REMARK       I    between atoms: N_8  and  C_9 
REMARK    4  A    between atoms: C_9  and  C_10 
REMARK    5  A    between atoms: C_10  and  N_16 
ROOT
HETATM    1  N           1     -26.860  -6.201 -17.836  0.00  0.00    -0.344 N 
HETATM    2  C           1     -26.311  -6.436 -19.068  0.00  0.00     0.248 C 
HETATM    3  H           1     -26.286  -6.271 -17.005  0.00  0.00     0.163 HD
HETATM    4  O           1     -26.996  -6.352 -20.060  0.00  0.00    -0.271 OA
ENDROOT
BRANCH   1   5
HETATM    5  C           1     -28.262  -5.850 -17.721  0.00  0.00     0.189 C 
BRANCH   5   6
HETATM    6  C           1     -28.915  -6.714 -16.651  0.00  0.00     0.010 C 
HETATM    7  C           1     -29.655  -7.868 -17.313  0.00  0.00     0.012 C 
HETATM    8  C           1     -27.842  -7.264 -15.720  0.00  0.00     0.012 C 
ENDBRANCH   5   6
BRANCH   5   9
HETATM    9  C           1     -28.386  -4.394 -17.339  0.00  0.00     0.197 C 
HETATM   10  O           1     -29.304  -3.698 -17.823  0.00  0.00    -0.646 OA
HETATM   11  O           1     -27.570  -3.887 -16.540  0.00  0.00    -0.646 OA
ENDBRANCH   5   9
ENDBRANCH   1   5
BRANCH   2  12
HETATM   12  C           1     -24.853  -6.802 -19.187  0.00  0.00     0.270 C 
HETATM   13  C           1     -24.657  -7.735 -20.375  0.00  0.00     0.050 C 
BRANCH  12  14
HETATM   14  N           1     -24.406  -7.491 -17.932  0.00  0.00    -0.067 N 
HETATM   15  H           1     -23.425  -7.833 -18.054  0.00  0.00     0.275 HD
HETATM   16  H           1     -25.036  -8.301 -17.737  0.00  0.00     0.275 HD
HETATM   17  H           1     -24.443  -6.819 -17.133  0.00  0.00     0.275 HD
ENDBRANCH  12  14
ENDBRANCH   2  12
TORSDOF 5
ENDMDL
MODEL 7
REMARK VINA RESULT:      -4.8     16.995     18.550
REMARK  5 active torsions:
REMARK  status: ('A' for Active; 'I' for Inactive)
REMARK    1  A    between atoms: C_2  and  C_4 
REMARK    2  A    between atoms: C_4  and  C_5 
REMARK    3  A    between atoms: C_4  and  N_8 
REMARK       I    between atoms: N_8  and  C_9 
REMARK    4  A    between atoms: C_9  and  C_10 
REMARK    5  A    between atoms: C_10  and  N_16 
ROOT
HETATM    1  N           1     -12.087   5.872 -20.017  0.00  0.00    -0.344 N 
HETATM    2  C           1     -11.447   6.954 -20.560  0.00  0.00     0.248 C 
HETATM    3  H           1     -12.021   5.690 -19.024  0.00  0.00     0.163 HD
HETATM    4  O           1     -11.527   7.171 -21.746  0.00  0.00    -0.271 OA
ENDROOT
BRANCH   1   5
HETATM    5  C           1     -12.860   4.986 -20.866  0.00  0.00     0.189 C 
BRANCH   5   6
HETATM    6  C           1     -12.613   3.542 -20.450  0.00  0.00     0.010 C 
HETATM    7  C           1     -13.332   2.607 -21.414  0.00  0.00     0.012 C 
HETATM    8  C           1     -11.118   3.255 -20.482  0.00  0.00     0.012 C 
ENDBRANCH   5   6
BRANCH   5   9
HETATM    9  C           1     -14.329   5.308 -20.722  0.00  0.00     0.197 C 
HETATM   10  O           1     -15.000   5.624 -21.728  0.00  0.00    -0.646 OA
HETATM   11  O           1     -14.872   5.258 -19.598  0.00  0.00    -0.646 OA
ENDBRANCH   5   9
ENDBRANCH   1   5
BRANCH   2  12
HETATM   12  C           1     -10.642   7.875 -19.677  0.00  0.00     0.270 C 
HETATM   13  C           1     -11.465   9.115 -19.352  0.00  0.00     0.050 C 
BRANCH  12  14
HETATM   14  N           1      -9.387   8.281 -20.390  0.00  0.00    -0.067 N 
HETATM   15  H           1      -8.616   8.402 -19.694  0.00  0.00     0.275 HD
HETATM   16  H           1      -9.549   9.183 -20.893  0.00  0.00     0.275 HD
HETATM   17  H           1      -9.122   7.541 -21.079  0.00  0.00     0.275 HD
ENDBRANCH  12  14
ENDBRANCH   2  12
TORSDOF 5
ENDMDL
MODEL 8
REMARK VINA RESULT:      -4.8     17.461     19.075
REMARK  5 active torsions:
REMARK  status: ('A' for Active; 'I' for Inactive)
REMARK    1  A    between atoms: C_2  and  C_4 
REMARK    2  A    between atoms: C_4  and  C_5 
REMARK    3  A    between atoms: C_4  and  N_8 
REMARK       I    between atoms: N_8  and  C_9 
REMARK    4  A    between atoms: C_9  and  C_10 
REMARK    5  A    between atoms: C_10  and  N_16 
ROOT
HETATM    1  N           1     -11.707   5.888 -20.808  0.00  0.00    -0.344 N 
HETATM    2  C           1     -12.011   4.793 -20.044  0.00  0.00     0.248 C 
HETATM    3  H           1     -11.727   5.822 -21.817  0.00  0.00     0.163 HD
HETATM    4  O           1     -11.987   4.872 -18.838  0.00  0.00    -0.271 OA
ENDROOT
BRANCH   1   5
HETATM    5  C           1     -11.357   7.142 -20.171  0.00  0.00     0.189 C 
BRANCH   5   6
HETATM    6  C           1     -10.191   7.781 -20.914  0.00  0.00     0.010 C 
HETATM    7  C           1      -9.793   9.075 -20.216  0.00  0.00     0.012 C 
HETATM    8  C           1      -9.008   6.821 -20.920  0.00  0.00     0.012 C 
ENDBRANCH   5   6
BRANCH   5   9
HETATM    9  C           1     -12.546   8.072 -20.204  0.00  0.00     0.197 C 
HETATM   10  O           1     -13.058   8.470 -19.136  0.00  0.00    -0.646 OA
HETATM   11  O           1     -13.018   8.442 -21.300  0.00  0.00    -0.646 OA
ENDBRANCH   5   9
ENDBRANCH   1   5
BRANCH   2  12
HETATM   12  C           1     -12.374   3.488 -20.707  0.00  0.00     0.270 C 
HETATM   13  C           1     -11.160   2.568 -20.719  0.00  0.00     0.050 C 
BRANCH  12  14
HETATM   14  N           1     -12.816   3.749 -22.116  0.00  0.00    -0.067 N 
HETATM   15  H           1     -13.230   2.876 -22.518  0.00  0.00     0.275 HD
HETATM   16  H           1     -11.994   4.042 -22.690  0.00  0.00     0.275 HD
HETATM   17  H           1     -13.533   4.509 -22.122  0.00  0.00     0.275 HD
ENDBRANCH  12  14
ENDBRANCH   2  12
TORSDOF 5
ENDMDL
MODEL 9
REMARK VINA RESULT:      -4.7     17.386     18.751
REMARK  5 active torsions:
REMARK  status: ('A' for Active; 'I' for Inactive)
REMARK    1  A    between atoms: C_2  and  C_4 
REMARK    2  A    between atoms: C_4  and  C_5 
REMARK    3  A    between atoms: C_4  and  N_8 
REMARK       I    between atoms: N_8  and  C_9 
REMARK    4  A    between atoms: C_9  and  C_10 
REMARK    5  A    between atoms: C_10  and  N_16 
ROOT
HETATM    1  N           1     -12.249   5.843 -20.991  0.00  0.00    -0.344 N 
HETATM    2  C           1     -13.250   4.911 -20.922  0.00  0.00     0.248 C 
HETATM    3  H           1     -11.796   6.034 -21.875  0.00  0.00     0.163 HD
HETATM    4  O           1     -13.792   4.683 -19.867  0.00  0.00    -0.271 OA
ENDROOT
BRANCH   1   5
HETATM    5  C           1     -11.840   6.557 -19.797  0.00  0.00     0.189 C 
BRANCH   5   6
HETATM    6  C           1     -10.324   6.507 -19.671  0.00  0.00     0.010 C 
HETATM    7  C           1      -9.902   5.136 -19.159  0.00  0.00     0.012 C 
HETATM    8  C           1      -9.694   6.756 -21.036  0.00  0.00     0.012 C 
ENDBRANCH   5   6
BRANCH   5   9
HETATM    9  C           1     -12.291   7.995 -19.891  0.00  0.00     0.197 C 
HETATM   10  O           1     -12.073   8.781 -18.945  0.00  0.00    -0.646 OA
HETATM   11  O           1     -12.883   8.397 -20.916  0.00  0.00    -0.646 OA
ENDBRANCH   5   9
ENDBRANCH   1   5
BRANCH   2  12
HETATM   12  C           1     -13.675   4.168 -22.165  0.00  0.00     0.270 C 
HETATM   13  C           1     -15.079   4.606 -22.564  0.00  0.00     0.050 C 
BRANCH  12  14
HETATM   14  N           1     -13.672   2.693 -21.892  0.00  0.00    -0.067 N 
HETATM   15  H           1     -14.432   2.464 -21.211  0.00  0.00     0.275 HD
HETATM   16  H           1     -12.748   2.417 -21.490  0.00  0.00     0.275 HD
HETATM   17  H           1     -13.834   2.173 -22.783  0.00  0.00     0.275 HD
ENDBRANCH  12  14
ENDBRANCH   2  12
TORSDOF 5
ENDMDL
