MODEL 1
REMARK VINA RESULT:      -7.5      0.000      0.000
REMARK  7 active torsions:
REMARK  status: ('A' for Active; 'I' for Inactive)
REMARK    1  A    between atoms: C_2  and  C_13 
REMARK    2  A    between atoms: C_2  and  C_22 
REMARK    3  A    between atoms: C_4  and  C_22 
REMARK    4  A    between atoms: C_7  and  C_11 
REMARK    5  A    between atoms: C_7  and  N_18 
REMARK    6  A    between atoms: N_9  and  C_22 
REMARK       I    between atoms: N_9  and  C_11 
REMARK    7  A    between atoms: O_10  and  C_16 
ROOT
HETATM    1  C           1     -35.713  -1.118 -11.995  0.00  0.00     0.189 C 
ENDROOT
BRANCH   1   2
HETATM    2  C           1     -34.343  -1.422 -11.403  0.00  0.00     0.074 C 
BRANCH   2   3
HETATM    3  C           1     -34.167  -2.904 -11.282  0.00  0.00    -0.056 A 
HETATM    4  C           1     -32.960  -3.495 -11.653  0.00  0.00     0.010 A 
HETATM    5  C           1     -32.796  -4.876 -11.541  0.00  0.00     0.037 A 
HETATM    6  C           1     -33.840  -5.665 -11.059  0.00  0.00     0.065 A 
HETATM    7  C           1     -35.048  -5.074 -10.689  0.00  0.00     0.037 A 
HETATM    8  C           1     -35.212  -3.693 -10.801  0.00  0.00     0.010 A 
BRANCH   6   9
HETATM    9  O           1     -33.681  -7.007 -10.950  0.00  0.00    -0.361 OA
HETATM   10  H           1     -34.505  -7.379 -10.597  0.00  0.00     0.217 HD
ENDBRANCH   6   9
ENDBRANCH   2   3
ENDBRANCH   1   2
BRANCH   1  11
HETATM   11  C           1     -36.675  -0.770 -10.886  0.00  0.00     0.197 C 
HETATM   12  O           1     -36.254  -0.236  -9.837  0.00  0.00    -0.646 OA
HETATM   13  O           1     -37.894  -1.016 -11.016  0.00  0.00    -0.646 OA
ENDBRANCH   1  11
BRANCH   1  14
HETATM   14  N           1     -35.605   0.001 -12.911  0.00  0.00    -0.345 N 
HETATM   15  C           1     -35.432  -0.225 -14.250  0.00  0.00     0.243 C 
HETATM   16  O           1     -35.368  -1.357 -14.668  0.00  0.00    -0.272 OA
HETATM   17  H           1     -35.658   0.949 -12.560  0.00  0.00     0.163 HD
BRANCH  15  18
HETATM   18  C           1     -35.320   0.939 -15.203  0.00  0.00     0.332 C 
BRANCH  18  19
HETATM   19  N           1     -36.665   1.229 -15.801  0.00  0.00    -0.071 N 
HETATM   20  H           1     -36.694   2.220 -16.130  0.00  0.00     0.274 HD
HETATM   21  H           1     -36.832   0.588 -16.609  0.00  0.00     0.274 HD
HETATM   22  H           1     -37.406   1.080 -15.079  0.00  0.00     0.274 HD
ENDBRANCH  18  19
ENDBRANCH  15  18
ENDBRANCH   1  14
TORSDOF 7
ENDMDL
MODEL 2
REMARK VINA RESULT:      -6.7     13.019     15.635
REMARK  7 active torsions:
REMARK  status: ('A' for Active; 'I' for Inactive)
REMARK    1  A    between atoms: C_2  and  C_13 
REMARK    2  A    between atoms: C_2  and  C_22 
REMARK    3  A    between atoms: C_4  and  C_22 
REMARK    4  A    between atoms: C_7  and  C_11 
REMARK    5  A    between atoms: C_7  and  N_18 
REMARK    6  A    between atoms: N_9  and  C_22 
REMARK       I    between atoms: N_9  and  C_11 
REMARK    7  A    between atoms: O_10  and  C_16 
ROOT
HETATM    1  C           1     -21.230  -5.309  -6.739  0.00  0.00     0.189 C 
ENDROOT
BRANCH   1   2
HETATM    2  C           1     -21.643  -3.977  -7.349  0.00  0.00     0.074 C 
BRANCH   2   3
HETATM    3  C           1     -22.188  -4.204  -8.726  0.00  0.00    -0.056 A 
HETATM    4  C           1     -21.332  -4.175  -9.827  0.00  0.00     0.010 A 
HETATM    5  C           1     -21.839  -4.385 -11.109  0.00  0.00     0.037 A 
HETATM    6  C           1     -23.201  -4.625 -11.290  0.00  0.00     0.065 A 
HETATM    7  C           1     -24.057  -4.652 -10.188  0.00  0.00     0.037 A 
HETATM    8  C           1     -23.550  -4.442  -8.906  0.00  0.00     0.010 A 
BRANCH   6   9
HETATM    9  O           1     -23.693  -4.829 -12.536  0.00  0.00    -0.361 OA
HETATM   10  H           1     -23.327  -4.145 -13.120  0.00  0.00     0.217 HD
ENDBRANCH   6   9
ENDBRANCH   2   3
ENDBRANCH   1   2
BRANCH   1  11
HETATM   11  C           1     -19.789  -5.595  -7.081  0.00  0.00     0.197 C 
HETATM   12  O           1     -19.397  -6.776  -7.205  0.00  0.00    -0.646 OA
HETATM   13  O           1     -18.985  -4.651  -7.240  0.00  0.00    -0.646 OA
ENDBRANCH   1  11
BRANCH   1  14
HETATM   14  N           1     -21.381  -5.248  -5.298  0.00  0.00    -0.345 N 
HETATM   15  C           1     -21.750  -6.367  -4.600  0.00  0.00     0.243 C 
HETATM   16  O           1     -21.950  -7.404  -5.186  0.00  0.00    -0.272 OA
HETATM   17  H           1     -21.215  -4.378  -4.808  0.00  0.00     0.163 HD
BRANCH  15  18
HETATM   18  C           1     -21.908  -6.303  -3.102  0.00  0.00     0.332 C 
BRANCH  18  19
HETATM   19  N           1     -21.328  -7.541  -2.483  0.00  0.00    -0.071 N 
HETATM   20  H           1     -21.055  -7.342  -1.495  0.00  0.00     0.274 HD
HETATM   21  H           1     -22.041  -8.305  -2.501  0.00  0.00     0.274 HD
HETATM   22  H           1     -20.485  -7.838  -3.025  0.00  0.00     0.274 HD
ENDBRANCH  18  19
ENDBRANCH  15  18
ENDBRANCH   1  14
TORSDOF 7
ENDMDL
MODEL 3
REMARK VINA RESULT:      -6.2     14.056     16.452
REMARK  7 active torsions:
REMARK  status: ('A' for Active; 'I' for Inactive)
REMARK    1  A    between atoms: C_2  and  C_13 
REMARK    2  A    between atoms: C_2  and  C_22 
REMARK    3  A    between atoms: C_4  and  C_22 
REMARK    4  A    between atoms: C_7  and  C_11 
REMARK    5  A    between atoms: C_7  and  N_18 
REMARK    6  A    between atoms: N_9  and  C_22 
REMARK       I    between atoms: N_9  and  C_11 
REMARK    7  A    between atoms: O_10  and  C_16 
ROOT
HETATM    1  C           1     -21.046  -5.982  -5.542  0.00  0.00     0.189 C 
ENDROOT
BRANCH   1   2
HETATM    2  C           1     -20.214  -4.845  -6.121  0.00  0.00     0.074 C 
BRANCH   2   3
HETATM    3  C           1     -20.760  -4.458  -7.460  0.00  0.00    -0.056 A 
HETATM    4  C           1     -19.935  -4.492  -8.585  0.00  0.00     0.010 A 
HETATM    5  C           1     -20.443  -4.131  -9.832  0.00  0.00     0.037 A 
HETATM    6  C           1     -21.774  -3.736  -9.956  0.00  0.00     0.065 A 
HETATM    7  C           1     -22.599  -3.700  -8.831  0.00  0.00     0.037 A 
HETATM    8  C           1     -22.091  -4.061  -7.583  0.00  0.00     0.010 A 
BRANCH   6   9
HETATM    9  O           1     -22.267  -3.385 -11.169  0.00  0.00    -0.361 OA
HETATM   10  H           1     -22.038  -2.454 -11.328  0.00  0.00     0.217 HD
ENDBRANCH   6   9
ENDBRANCH   2   3
ENDBRANCH   1   2
BRANCH   1  11
HETATM   11  C           1     -20.525  -7.301  -6.058  0.00  0.00     0.197 C 
HETATM   12  O           1     -21.262  -8.310  -6.051  0.00  0.00    -0.646 OA
HETATM   13  O           1     -19.356  -7.384  -6.493  0.00  0.00    -0.646 OA
ENDBRANCH   1  11
BRANCH   1  14
HETATM   14  N           1     -20.953  -5.959  -4.095  0.00  0.00    -0.345 N 
HETATM   15  C           1     -22.072  -6.170  -3.334  0.00  0.00     0.243 C 
HETATM   16  O           1     -23.135  -6.374  -3.869  0.00  0.00    -0.272 OA
HETATM   17  H           1     -20.061  -5.788  -3.647  0.00  0.00     0.163 HD
BRANCH  15  18
HETATM   18  C           1     -21.976  -6.146  -1.828  0.00  0.00     0.332 C 
BRANCH  18  19
HETATM   19  N           1     -21.420  -7.451  -1.341  0.00  0.00    -0.071 N 
HETATM   20  H           1     -21.336  -7.427  -0.300  0.00  0.00     0.274 HD
HETATM   21  H           1     -22.061  -8.228  -1.621  0.00  0.00     0.274 HD
HETATM   22  H           1     -20.477  -7.608  -1.763  0.00  0.00     0.274 HD
ENDBRANCH  18  19
ENDBRANCH  15  18
ENDBRANCH   1  14
TORSDOF 7
ENDMDL
MODEL 4
REMARK VINA RESULT:      -5.9     16.395     17.974
REMARK  7 active torsions:
REMARK  status: ('A' for Active; 'I' for Inactive)
REMARK    1  A    between atoms: C_2  and  C_13 
REMARK    2  A    between atoms: C_2  and  C_22 
REMARK    3  A    between atoms: C_4  and  C_22 
REMARK    4  A    between atoms: C_7  and  C_11 
REMARK    5  A    between atoms: C_7  and  N_18 
REMARK    6  A    between atoms: N_9  and  C_22 
REMARK       I    between atoms: N_9  and  C_11 
REMARK    7  A    between atoms: O_10  and  C_16 
ROOT
HETATM    1  C           1     -21.203  -8.581  -4.878  0.00  0.00     0.189 C 
ENDROOT
BRANCH   1   2
HETATM    2  C           1     -20.332  -8.331  -3.653  0.00  0.00     0.074 C 
BRANCH   2   3
HETATM    3  C           1     -21.198  -8.236  -2.435  0.00  0.00    -0.056 A 
HETATM    4  C           1     -21.636  -9.397  -1.799  0.00  0.00     0.010 A 
HETATM    5  C           1     -22.443  -9.309  -0.665  0.00  0.00     0.037 A 
HETATM    6  C           1     -22.812  -8.060  -0.167  0.00  0.00     0.065 A 
HETATM    7  C           1     -22.374  -6.898  -0.804  0.00  0.00     0.037 A 
HETATM    8  C           1     -21.567  -6.986  -1.938  0.00  0.00     0.010 A 
BRANCH   6   9
HETATM    9  O           1     -23.596  -7.975   0.936  0.00  0.00    -0.361 OA
HETATM   10  H           1     -23.033  -8.113   1.716  0.00  0.00     0.217 HD
ENDBRANCH   6   9
ENDBRANCH   2   3
ENDBRANCH   1   2
BRANCH   1  11
HETATM   11  C           1     -21.350  -7.300  -5.661  0.00  0.00     0.197 C 
HETATM   12  O           1     -20.591  -7.066  -6.626  0.00  0.00    -0.646 OA
HETATM   13  O           1     -22.232  -6.472  -5.344  0.00  0.00    -0.646 OA
ENDBRANCH   1  11
BRANCH   1  14
HETATM   14  N           1     -20.581  -9.590  -5.714  0.00  0.00    -0.345 N 
HETATM   15  C           1     -20.998 -10.892  -5.639  0.00  0.00     0.243 C 
HETATM   16  O           1     -21.883 -11.200  -4.877  0.00  0.00    -0.272 OA
HETATM   17  H           1     -19.839  -9.332  -6.352  0.00  0.00     0.163 HD
BRANCH  15  18
HETATM   18  C           1     -20.352 -11.942  -6.508  0.00  0.00     0.332 C 
BRANCH  18  19
HETATM   19  N           1     -19.091 -11.391  -7.106  0.00  0.00    -0.071 N 
HETATM   20  H           1     -18.427 -11.132  -6.343  0.00  0.00     0.274 HD
HETATM   21  H           1     -18.652 -12.115  -7.719  0.00  0.00     0.274 HD
HETATM   22  H           1     -19.316 -10.544  -7.674  0.00  0.00     0.274 HD
ENDBRANCH  18  19
ENDBRANCH  15  18
ENDBRANCH   1  14
TORSDOF 7
ENDMDL
MODEL 5
REMARK VINA RESULT:      -5.9     15.353     17.116
REMARK  7 active torsions:
REMARK  status: ('A' for Active; 'I' for Inactive)
REMARK    1  A    between atoms: C_2  and  C_13 
REMARK    2  A    between atoms: C_2  and  C_22 
REMARK    3  A    between atoms: C_4  and  C_22 
REMARK    4  A    between atoms: C_7  and  C_11 
REMARK    5  A    between atoms: C_7  and  N_18 
REMARK    6  A    between atoms: N_9  and  C_22 
REMARK       I    between atoms: N_9  and  C_11 
REMARK    7  A    between atoms: O_10  and  C_16 
ROOT
HETATM    1  C           1     -21.437  -7.246  -4.084  0.00  0.00     0.189 C 
ENDROOT
BRANCH   1   2
HETATM    2  C           1     -22.409  -6.423  -4.919  0.00  0.00     0.074 C 
BRANCH   2   3
HETATM    3  C           1     -21.645  -5.603  -5.912  0.00  0.00    -0.056 A 
HETATM    4  C           1     -22.327  -4.880  -6.890  0.00  0.00     0.010 A 
HETATM    5  C           1     -21.616  -4.117  -7.816  0.00  0.00     0.037 A 
HETATM    6  C           1     -20.223  -4.076  -7.763  0.00  0.00     0.065 A 
HETATM    7  C           1     -19.541  -4.801  -6.785  0.00  0.00     0.037 A 
HETATM    8  C           1     -20.252  -5.564  -5.860  0.00  0.00     0.010 A 
BRANCH   6   9
HETATM    9  O           1     -19.532  -3.335  -8.663  0.00  0.00    -0.361 OA
HETATM   10  H           1     -18.838  -3.896  -9.045  0.00  0.00     0.217 HD
ENDBRANCH   6   9
ENDBRANCH   2   3
ENDBRANCH   1   2
BRANCH   1  11
HETATM   11  C           1     -21.594  -6.888  -2.627  0.00  0.00     0.197 C 
HETATM   12  O           1     -22.378  -5.974  -2.289  0.00  0.00    -0.646 OA
HETATM   13  O           1     -20.939  -7.503  -1.758  0.00  0.00    -0.646 OA
ENDBRANCH   1  11
BRANCH   1  14
HETATM   14  N           1     -21.719  -8.657  -4.267  0.00  0.00    -0.345 N 
HETATM   15  C           1     -20.906  -9.420  -5.062  0.00  0.00     0.243 C 
HETATM   16  O           1     -19.954  -8.918  -5.610  0.00  0.00    -0.272 OA
HETATM   17  H           1     -22.517  -9.078  -3.808  0.00  0.00     0.163 HD
BRANCH  15  18
HETATM   18  C           1     -21.199 -10.888  -5.253  0.00  0.00     0.332 C 
BRANCH  18  19
HETATM   19  N           1     -20.576 -11.361  -6.533  0.00  0.00    -0.071 N 
HETATM   20  H           1     -20.451 -10.551  -7.180  0.00  0.00     0.274 HD
HETATM   21  H           1     -19.645 -11.791  -6.327  0.00  0.00     0.274 HD
HETATM   22  H           1     -21.197 -12.072  -6.980  0.00  0.00     0.274 HD
ENDBRANCH  18  19
ENDBRANCH  15  18
ENDBRANCH   1  14
TORSDOF 7
ENDMDL
MODEL 6
REMARK VINA RESULT:      -5.8      8.644     10.827
REMARK  7 active torsions:
REMARK  status: ('A' for Active; 'I' for Inactive)
REMARK    1  A    between atoms: C_2  and  C_13 
REMARK    2  A    between atoms: C_2  and  C_22 
REMARK    3  A    between atoms: C_4  and  C_22 
REMARK    4  A    between atoms: C_7  and  C_11 
REMARK    5  A    between atoms: C_7  and  N_18 
REMARK    6  A    between atoms: N_9  and  C_22 
REMARK       I    between atoms: N_9  and  C_11 
REMARK    7  A    between atoms: O_10  and  C_16 
ROOT
HETATM    1  C           1     -27.773  -6.309 -18.112  0.00  0.00     0.189 C 
ENDROOT
BRANCH   1   2
HETATM    2  C           1     -28.264  -4.867 -18.111  0.00  0.00     0.074 C 
BRANCH   2   3
HETATM    3  C           1     -29.699  -4.828 -17.684  0.00  0.00    -0.056 A 
HETATM    4  C           1     -30.397  -3.620 -17.696  0.00  0.00     0.010 A 
HETATM    5  C           1     -31.732  -3.582 -17.298  0.00  0.00     0.037 A 
HETATM    6  C           1     -32.371  -4.752 -16.887  0.00  0.00     0.065 A 
HETATM    7  C           1     -31.673  -5.960 -16.873  0.00  0.00     0.037 A 
HETATM    8  C           1     -30.337  -5.998 -17.272  0.00  0.00     0.010 A 
BRANCH   6   9
HETATM    9  O           1     -33.669  -4.716 -16.500  0.00  0.00    -0.361 OA
HETATM   10  H           1     -34.013  -5.624 -16.515  0.00  0.00     0.217 HD
ENDBRANCH   6   9
ENDBRANCH   2   3
ENDBRANCH   1   2
BRANCH   1  11
HETATM   11  C           1     -27.691  -6.813 -19.531  0.00  0.00     0.197 C 
HETATM   12  O           1     -28.462  -7.718 -19.919  0.00  0.00    -0.646 OA
HETATM   13  O           1     -26.852  -6.326 -20.320  0.00  0.00    -0.646 OA
ENDBRANCH   1  11
BRANCH   1  14
HETATM   14  N           1     -26.460  -6.371 -17.500  0.00  0.00    -0.345 N 
HETATM   15  C           1     -26.320  -6.853 -16.226  0.00  0.00     0.243 C 
HETATM   16  O           1     -27.292  -7.225 -15.612  0.00  0.00    -0.272 OA
HETATM   17  H           1     -25.646  -6.059 -18.015  0.00  0.00     0.163 HD
BRANCH  15  18
HETATM   18  C           1     -24.954  -6.918 -15.590  0.00  0.00     0.332 C 
BRANCH  18  19
HETATM   19  N           1     -24.046  -7.759 -16.437  0.00  0.00    -0.071 N 
HETATM   20  H           1     -23.396  -7.140 -16.971  0.00  0.00     0.274 HD
HETATM   21  H           1     -23.492  -8.398 -15.823  0.00  0.00     0.274 HD
HETATM   22  H           1     -24.617  -8.324 -17.105  0.00  0.00     0.274 HD
ENDBRANCH  18  19
ENDBRANCH  15  18
ENDBRANCH   1  14
TORSDOF 7
ENDMDL
MODEL 7
REMARK VINA RESULT:      -5.7     16.035     17.695
REMARK  7 active torsions:
REMARK  status: ('A' for Active; 'I' for Inactive)
REMARK    1  A    between atoms: C_2  and  C_13 
REMARK    2  A    between atoms: C_2  and  C_22 
REMARK    3  A    between atoms: C_4  and  C_22 
REMARK    4  A    between atoms: C_7  and  C_11 
REMARK    5  A    between atoms: C_7  and  N_18 
REMARK    6  A    between atoms: N_9  and  C_22 
REMARK       I    between atoms: N_9  and  C_11 
REMARK    7  A    between atoms: O_10  and  C_16 
ROOT
HETATM    1  C           1     -20.075  -7.696  -4.933  0.00  0.00     0.189 C 
ENDROOT
BRANCH   1   2
HETATM    2  C           1     -21.436  -8.278  -4.576  0.00  0.00     0.074 C 
BRANCH   2   3
HETATM    3  C           1     -21.675  -8.127  -3.105  0.00  0.00    -0.056 A 
HETATM    4  C           1     -21.911  -6.863  -2.564  0.00  0.00     0.010 A 
HETATM    5  C           1     -22.132  -6.722  -1.194  0.00  0.00     0.037 A 
HETATM    6  C           1     -22.116  -7.844  -0.366  0.00  0.00     0.065 A 
HETATM    7  C           1     -21.879  -9.108  -0.907  0.00  0.00     0.037 A 
HETATM    8  C           1     -21.658  -9.249  -2.277  0.00  0.00     0.010 A 
BRANCH   6   9
HETATM    9  O           1     -22.331  -7.707   0.965  0.00  0.00    -0.361 OA
HETATM   10  H           1     -21.722  -7.028   1.299  0.00  0.00     0.217 HD
ENDBRANCH   6   9
ENDBRANCH   2   3
ENDBRANCH   1   2
BRANCH   1  11
HETATM   11  C           1     -19.059  -8.809  -5.022  0.00  0.00     0.197 C 
HETATM   12  O           1     -18.816  -9.347  -6.124  0.00  0.00    -0.646 OA
HETATM   13  O           1     -18.462  -9.193  -3.993  0.00  0.00    -0.646 OA
ENDBRANCH   1  11
BRANCH   1  14
HETATM   14  N           1     -20.161  -7.018  -6.212  0.00  0.00    -0.345 N 
HETATM   15  C           1     -20.310  -5.657  -6.256  0.00  0.00     0.243 C 
HETATM   16  O           1     -20.370  -5.023  -5.229  0.00  0.00    -0.272 OA
HETATM   17  H           1     -20.111  -7.549  -7.072  0.00  0.00     0.163 HD
BRANCH  15  18
HETATM   18  C           1     -20.400  -4.950  -7.585  0.00  0.00     0.332 C 
BRANCH  18  19
HETATM   19  N           1     -21.221  -3.704  -7.436  0.00  0.00    -0.071 N 
HETATM   20  H           1     -20.662  -2.879  -7.750  0.00  0.00     0.274 HD
HETATM   21  H           1     -22.084  -3.784  -8.020  0.00  0.00     0.274 HD
HETATM   22  H           1     -21.489  -3.581  -6.433  0.00  0.00     0.274 HD
ENDBRANCH  18  19
ENDBRANCH  15  18
ENDBRANCH   1  14
TORSDOF 7
ENDMDL
MODEL 8
REMARK VINA RESULT:      -5.6     17.547     19.176
REMARK  7 active torsions:
REMARK  status: ('A' for Active; 'I' for Inactive)
REMARK    1  A    between atoms: C_2  and  C_13 
REMARK    2  A    between atoms: C_2  and  C_22 
REMARK    3  A    between atoms: C_4  and  C_22 
REMARK    4  A    between atoms: C_7  and  C_11 
REMARK    5  A    between atoms: C_7  and  N_18 
REMARK    6  A    between atoms: N_9  and  C_22 
REMARK       I    between atoms: N_9  and  C_11 
REMARK    7  A    between atoms: O_10  and  C_16 
ROOT
HETATM    1  C           1     -21.501  -8.084  -1.692  0.00  0.00     0.189 C 
ENDROOT
BRANCH   1   2
HETATM    2  C           1     -21.684  -8.335  -0.201  0.00  0.00     0.074 C 
BRANCH   2   3
HETATM    3  C           1     -22.156  -9.739   0.016  0.00  0.00    -0.056 A 
HETATM    4  C           1     -21.274 -10.703   0.505  0.00  0.00     0.010 A 
HETATM    5  C           1     -21.714 -12.011   0.706  0.00  0.00     0.037 A 
HETATM    6  C           1     -23.034 -12.355   0.419  0.00  0.00     0.065 A 
HETATM    7  C           1     -23.916 -11.391  -0.070  0.00  0.00     0.037 A 
HETATM    8  C           1     -23.477 -10.083  -0.272  0.00  0.00     0.010 A 
BRANCH   6   9
HETATM    9  O           1     -23.461 -13.627   0.615  0.00  0.00    -0.361 OA
HETATM   10  H           1     -22.873 -14.044   1.266  0.00  0.00     0.217 HD
ENDBRANCH   6   9
ENDBRANCH   2   3
ENDBRANCH   1   2
BRANCH   1  11
HETATM   11  C           1     -22.015  -6.709  -2.039  0.00  0.00     0.197 C 
HETATM   12  O           1     -22.039  -6.333  -3.231  0.00  0.00    -0.646 OA
HETATM   13  O           1     -22.418  -5.946  -1.134  0.00  0.00    -0.646 OA
ENDBRANCH   1  11
BRANCH   1  14
HETATM   14  N           1     -20.092  -8.171  -2.026  0.00  0.00    -0.345 N 
HETATM   15  C           1     -19.619  -9.252  -2.721  0.00  0.00     0.243 C 
HETATM   16  O           1     -20.376 -10.132  -3.055  0.00  0.00    -0.272 OA
HETATM   17  H           1     -19.458  -7.433  -1.745  0.00  0.00     0.163 HD
BRANCH  15  18
HETATM   18  C           1     -18.154  -9.343  -3.069  0.00  0.00     0.332 C 
BRANCH  18  19
HETATM   19  N           1     -18.003  -9.641  -4.531  0.00  0.00    -0.071 N 
HETATM   20  H           1     -18.941  -9.615  -4.991  0.00  0.00     0.274 HD
HETATM   21  H           1     -17.380  -8.925  -4.969  0.00  0.00     0.274 HD
HETATM   22  H           1     -17.583 -10.590  -4.652  0.00  0.00     0.274 HD
ENDBRANCH  18  19
ENDBRANCH  15  18
ENDBRANCH   1  14
TORSDOF 7
ENDMDL
MODEL 9
REMARK VINA RESULT:      -5.5     10.511     12.457
REMARK  7 active torsions:
REMARK  status: ('A' for Active; 'I' for Inactive)
REMARK    1  A    between atoms: C_2  and  C_13 
REMARK    2  A    between atoms: C_2  and  C_22 
REMARK    3  A    between atoms: C_4  and  C_22 
REMARK    4  A    between atoms: C_7  and  C_11 
REMARK    5  A    between atoms: C_7  and  N_18 
REMARK    6  A    between atoms: N_9  and  C_22 
REMARK       I    between atoms: N_9  and  C_11 
REMARK    7  A    between atoms: O_10  and  C_16 
ROOT
HETATM    1  C           1     -26.824  -7.377 -19.796  0.00  0.00     0.189 C 
ENDROOT
BRANCH   1   2
HETATM    2  C           1     -27.524  -6.035 -19.964  0.00  0.00     0.074 C 
BRANCH   2   3
HETATM    3  C           1     -28.456  -5.810 -18.814  0.00  0.00    -0.056 A 
HETATM    4  C           1     -28.667  -6.823 -17.879  0.00  0.00     0.010 A 
HETATM    5  C           1     -29.536  -6.614 -16.809  0.00  0.00     0.037 A 
HETATM    6  C           1     -30.194  -5.392 -16.673  0.00  0.00     0.065 A 
HETATM    7  C           1     -29.984  -4.379 -17.609  0.00  0.00     0.037 A 
HETATM    8  C           1     -29.115  -4.588 -18.679  0.00  0.00     0.010 A 
BRANCH   6   9
HETATM    9  O           1     -31.038  -5.188 -15.632  0.00  0.00    -0.361 OA
HETATM   10  H           1     -31.080  -6.010 -15.115  0.00  0.00     0.217 HD
ENDBRANCH   6   9
ENDBRANCH   2   3
ENDBRANCH   1   2
BRANCH   1  11
HETATM   11  C           1     -27.376  -8.363 -20.795  0.00  0.00     0.197 C 
HETATM   12  O           1     -26.682  -8.720 -21.772  0.00  0.00    -0.646 OA
HETATM   13  O           1     -28.530  -8.822 -20.648  0.00  0.00    -0.646 OA
ENDBRANCH   1  11
BRANCH   1  14
HETATM   14  N           1     -25.400  -7.210 -20.019  0.00  0.00    -0.345 N 
HETATM   15  C           1     -24.559  -7.019 -18.955  0.00  0.00     0.243 C 
HETATM   16  O           1     -25.004  -6.990 -17.832  0.00  0.00    -0.272 OA
HETATM   17  H           1     -25.029  -7.234 -20.960  0.00  0.00     0.163 HD
BRANCH  15  18
HETATM   18  C           1     -23.079  -6.845 -19.186  0.00  0.00     0.332 C 
BRANCH  18  19
HETATM   19  N           1     -22.575  -7.949 -20.067  0.00  0.00    -0.071 N 
HETATM   20  H           1     -22.466  -8.822 -19.504  0.00  0.00     0.274 HD
HETATM   21  H           1     -23.259  -8.116 -20.840  0.00  0.00     0.274 HD
HETATM   22  H           1     -21.651  -7.678 -20.472  0.00  0.00     0.274 HD
ENDBRANCH  18  19
ENDBRANCH  15  18
ENDBRANCH   1  14
TORSDOF 7
ENDMDL
