MODEL 1
REMARK VINA RESULT:      -5.7      0.000      0.000
REMARK  9 active torsions:
REMARK  status: ('A' for Active; 'I' for Inactive)
REMARK    1  A    between atoms: N_1  and  C_8 
REMARK       I    between atoms: N_1  and  C_3 
REMARK    2  A    between atoms: C_2  and  C_13 
REMARK    3  A    between atoms: C_2  and  C_8 
REMARK    4  A    between atoms: C_3  and  C_7 
REMARK    5  A    between atoms: O_4  and  C_11 
REMARK    6  A    between atoms: C_7  and  C_11 
REMARK    7  A    between atoms: C_7  and  N_18 
REMARK    8  A    between atoms: C_8  and  C_20 
REMARK    9  A    between atoms: C_13  and  Se_14 
ROOT
HETATM    1  N           1     -26.524  -6.544 -18.286  0.00  0.00    -0.345 N 
HETATM    2  C           1     -25.381  -6.750 -19.011  0.00  0.00     0.251 C 
HETATM    3  H           1     -27.424  -6.789 -18.679  0.00  0.00     0.163 HD
HETATM    4  O           1     -24.307  -6.458 -18.542  0.00  0.00    -0.271 OA
ENDROOT
BRANCH   1   5
HETATM    5  C           1     -26.445  -5.975 -16.954  0.00  0.00     0.185 C 
BRANCH   5   6
HETATM    6  C           1     -27.651  -5.076 -16.715  0.00  0.00     0.036 C 
BRANCH   6   7
HETATM    7  C           1     -28.604  -5.178 -17.898  0.00  0.00     0.003 C 
BRANCH   7   8
HETATM    8 Se           1     -30.281  -5.981 -17.315  0.00  0.00     0.000 Se
HETATM    9  C           1     -30.024  -7.637 -18.310  0.00  0.00     0.000 C 
ENDBRANCH   7   8
ENDBRANCH   6   7
ENDBRANCH   5   6
BRANCH   5  10
HETATM   10  C           1     -26.435  -7.086 -15.933  0.00  0.00     0.196 C 
HETATM   11  O           1     -25.355  -7.624 -15.605  0.00  0.00    -0.646 OA
HETATM   12  O           1     -27.506  -7.469 -15.416  0.00  0.00    -0.646 OA
ENDBRANCH   5  10
ENDBRANCH   1   5
BRANCH   2  13
HETATM   13  C           1     -25.463  -7.342 -20.397  0.00  0.00     0.297 C 
BRANCH  13  14
HETATM   14  C           1     -26.887  -7.808 -20.668  0.00  0.00     0.206 C 
BRANCH  14  15
HETATM   15  O           1     -26.871  -8.840 -21.617  0.00  0.00    -0.398 OA
HETATM   16  H           1     -25.998  -8.875 -21.969  0.00  0.00     0.209 HD
ENDBRANCH  14  15
ENDBRANCH  13  14
BRANCH  13  17
HETATM   17  N           1     -24.528  -8.511 -20.495  0.00  0.00    -0.064 N 
HETATM   18  H           1     -24.542  -8.887 -21.470  0.00  0.00     0.275 HD
HETATM   19  H           1     -23.559  -8.203 -20.256  0.00  0.00     0.275 HD
HETATM   20  H           1     -24.833  -9.257 -19.830  0.00  0.00     0.275 HD
ENDBRANCH  13  17
ENDBRANCH   2  13
TORSDOF 9
ENDMDL
MODEL 2
REMARK VINA RESULT:      -5.5     11.899     13.290
REMARK  9 active torsions:
REMARK  status: ('A' for Active; 'I' for Inactive)
REMARK    1  A    between atoms: N_1  and  C_8 
REMARK       I    between atoms: N_1  and  C_3 
REMARK    2  A    between atoms: C_2  and  C_13 
REMARK    3  A    between atoms: C_2  and  C_8 
REMARK    4  A    between atoms: C_3  and  C_7 
REMARK    5  A    between atoms: O_4  and  C_11 
REMARK    6  A    between atoms: C_7  and  C_11 
REMARK    7  A    between atoms: C_7  and  N_18 
REMARK    8  A    between atoms: C_8  and  C_20 
REMARK    9  A    between atoms: C_13  and  Se_14 
ROOT
HETATM    1  N           1     -36.713  -0.338 -12.962  0.00  0.00    -0.345 N 
HETATM    2  C           1     -36.047   0.347 -13.943  0.00  0.00     0.251 C 
HETATM    3  H           1     -37.550  -0.860 -13.189  0.00  0.00     0.163 HD
HETATM    4  O           1     -35.048   0.970 -13.672  0.00  0.00    -0.271 OA
ENDROOT
BRANCH   1   5
HETATM    5  C           1     -36.221  -0.315 -11.598  0.00  0.00     0.185 C 
BRANCH   5   6
HETATM    6  C           1     -37.399  -0.329 -10.634  0.00  0.00     0.036 C 
BRANCH   6   7
HETATM    7  C           1     -36.898  -0.083  -9.217  0.00  0.00     0.003 C 
BRANCH   7   8
HETATM    8 Se           1     -37.804   1.472  -8.467  0.00  0.00     0.000 Se
HETATM    9  C           1     -37.228   1.129  -6.637  0.00  0.00     0.000 C 
ENDBRANCH   7   8
ENDBRANCH   6   7
ENDBRANCH   5   6
BRANCH   5  10
HETATM   10  C           1     -35.356  -1.528 -11.356  0.00  0.00     0.196 C 
HETATM   11  O           1     -34.142  -1.388 -11.092  0.00  0.00    -0.646 OA
HETATM   12  O           1     -35.855  -2.672 -11.419  0.00  0.00    -0.646 OA
ENDBRANCH   5  10
ENDBRANCH   1   5
BRANCH   2  13
HETATM   13  C           1     -36.559   0.322 -15.362  0.00  0.00     0.297 C 
BRANCH  13  14
HETATM   14  C           1     -35.823  -0.753 -16.150  0.00  0.00     0.206 C 
BRANCH  14  15
HETATM   15  O           1     -35.187  -1.632 -15.262  0.00  0.00    -0.398 OA
HETATM   16  H           1     -35.263  -1.256 -14.402  0.00  0.00     0.209 HD
ENDBRANCH  14  15
ENDBRANCH  13  14
BRANCH  13  17
HETATM   17  N           1     -36.322   1.659 -16.000  0.00  0.00    -0.064 N 
HETATM   18  H           1     -36.675   2.414 -15.369  0.00  0.00     0.275 HD
HETATM   19  H           1     -35.299   1.792 -16.161  0.00  0.00     0.275 HD
HETATM   20  H           1     -36.829   1.704 -16.913  0.00  0.00     0.275 HD
ENDBRANCH  13  17
ENDBRANCH   2  13
TORSDOF 9
ENDMDL
MODEL 3
REMARK VINA RESULT:      -5.4     11.277     12.923
REMARK  9 active torsions:
REMARK  status: ('A' for Active; 'I' for Inactive)
REMARK    1  A    between atoms: N_1  and  C_8 
REMARK       I    between atoms: N_1  and  C_3 
REMARK    2  A    between atoms: C_2  and  C_13 
REMARK    3  A    between atoms: C_2  and  C_8 
REMARK    4  A    between atoms: C_3  and  C_7 
REMARK    5  A    between atoms: O_4  and  C_11 
REMARK    6  A    between atoms: C_7  and  C_11 
REMARK    7  A    between atoms: C_7  and  N_18 
REMARK    8  A    between atoms: C_8  and  C_20 
REMARK    9  A    between atoms: C_13  and  Se_14 
ROOT
HETATM    1  N           1     -36.109  -0.228 -12.443  0.00  0.00    -0.345 N 
HETATM    2  C           1     -36.825  -0.207 -13.610  0.00  0.00     0.251 C 
HETATM    3  H           1     -35.206   0.225 -12.395  0.00  0.00     0.163 HD
HETATM    4  O           1     -37.903  -0.747 -13.667  0.00  0.00    -0.271 OA
ENDROOT
BRANCH   1   5
HETATM    5  C           1     -36.646  -0.900 -11.275  0.00  0.00     0.185 C 
BRANCH   5   6
HETATM    6  C           1     -35.608  -1.870 -10.728  0.00  0.00     0.036 C 
BRANCH   6   7
HETATM    7  C           1     -34.346  -1.798 -11.577  0.00  0.00     0.003 C 
BRANCH   7   8
HETATM    8 Se           1     -33.947  -3.562 -12.302  0.00  0.00     0.000 Se
HETATM    9  C           1     -33.960  -4.457 -10.571  0.00  0.00     0.000 C 
ENDBRANCH   7   8
ENDBRANCH   6   7
ENDBRANCH   5   6
BRANCH   5  10
HETATM   10  C           1     -36.986   0.123 -10.219  0.00  0.00     0.196 C 
HETATM   11  O           1     -37.984   0.863 -10.364  0.00  0.00    -0.646 OA
HETATM   12  O           1     -36.271   0.230  -9.201  0.00  0.00    -0.646 OA
ENDBRANCH   5  10
ENDBRANCH   1   5
BRANCH   2  13
HETATM   13  C           1     -36.267   0.493 -14.825  0.00  0.00     0.297 C 
BRANCH  13  14
HETATM   14  C           1     -35.643  -0.533 -15.761  0.00  0.00     0.206 C 
BRANCH  14  15
HETATM   15  O           1     -35.302  -1.684 -15.036  0.00  0.00    -0.398 OA
HETATM   16  H           1     -36.029  -1.875 -14.468  0.00  0.00     0.209 HD
ENDBRANCH  14  15
ENDBRANCH  13  14
BRANCH  13  17
HETATM   17  N           1     -35.220   1.478 -14.396  0.00  0.00    -0.064 N 
HETATM   18  H           1     -34.291   1.189 -14.779  0.00  0.00     0.275 HD
HETATM   19  H           1     -35.465   2.427 -14.759  0.00  0.00     0.275 HD
HETATM   20  H           1     -35.173   1.504 -13.353  0.00  0.00     0.275 HD
ENDBRANCH  13  17
ENDBRANCH   2  13
TORSDOF 9
ENDMDL
MODEL 4
REMARK VINA RESULT:      -5.3      1.698      2.054
REMARK  9 active torsions:
REMARK  status: ('A' for Active; 'I' for Inactive)
REMARK    1  A    between atoms: N_1  and  C_8 
REMARK       I    between atoms: N_1  and  C_3 
REMARK    2  A    between atoms: C_2  and  C_13 
REMARK    3  A    between atoms: C_2  and  C_8 
REMARK    4  A    between atoms: C_3  and  C_7 
REMARK    5  A    between atoms: O_4  and  C_11 
REMARK    6  A    between atoms: C_7  and  C_11 
REMARK    7  A    between atoms: C_7  and  N_18 
REMARK    8  A    between atoms: C_8  and  C_20 
REMARK    9  A    between atoms: C_13  and  Se_14 
ROOT
HETATM    1  N           1     -26.613  -6.625 -18.420  0.00  0.00    -0.345 N 
HETATM    2  C           1     -26.490  -6.471 -19.775  0.00  0.00     0.251 C 
HETATM    3  H           1     -25.964  -7.216 -17.917  0.00  0.00     0.163 HD
HETATM    4  O           1     -27.265  -5.765 -20.375  0.00  0.00    -0.271 OA
ENDROOT
BRANCH   1   5
HETATM    5  C           1     -27.674  -5.941 -17.705  0.00  0.00     0.185 C 
BRANCH   5   6
HETATM    6  C           1     -28.808  -6.917 -17.426  0.00  0.00     0.036 C 
BRANCH   6   7
HETATM    7  C           1     -30.080  -6.426 -18.104  0.00  0.00     0.003 C 
BRANCH   7   8
HETATM    8 Se           1     -31.118  -5.360 -16.845  0.00  0.00     0.000 Se
HETATM    9  C           1     -30.640  -3.649 -17.647  0.00  0.00     0.000 C 
ENDBRANCH   7   8
ENDBRANCH   6   7
ENDBRANCH   5   6
BRANCH   5  10
HETATM   10  C           1     -27.136  -5.406 -16.400  0.00  0.00     0.196 C 
HETATM   11  O           1     -25.942  -5.605 -16.087  0.00  0.00    -0.646 OA
HETATM   12  O           1     -27.885  -4.765 -15.633  0.00  0.00    -0.646 OA
ENDBRANCH   5  10
ENDBRANCH   1   5
BRANCH   2  13
HETATM   13  C           1     -25.386  -7.183 -20.519  0.00  0.00     0.297 C 
BRANCH  13  14
HETATM   14  C           1     -25.973  -8.343 -21.311  0.00  0.00     0.206 C 
BRANCH  14  15
HETATM   15  O           1     -27.294  -8.572 -20.899  0.00  0.00    -0.398 OA
HETATM   16  H           1     -27.283  -9.341 -20.356  0.00  0.00     0.209 HD
ENDBRANCH  14  15
ENDBRANCH  13  14
BRANCH  13  17
HETATM   17  N           1     -24.381  -7.707 -19.536  0.00  0.00    -0.064 N 
HETATM   18  H           1     -24.392  -7.113 -18.676  0.00  0.00     0.275 HD
HETATM   19  H           1     -24.624  -8.691 -19.281  0.00  0.00     0.275 HD
HETATM   20  H           1     -23.429  -7.681 -19.965  0.00  0.00     0.275 HD
ENDBRANCH  13  17
ENDBRANCH   2  13
TORSDOF 9
ENDMDL
MODEL 5
REMARK VINA RESULT:      -5.3     10.132     11.739
REMARK  9 active torsions:
REMARK  status: ('A' for Active; 'I' for Inactive)
REMARK    1  A    between atoms: N_1  and  C_8 
REMARK       I    between atoms: N_1  and  C_3 
REMARK    2  A    between atoms: C_2  and  C_13 
REMARK    3  A    between atoms: C_2  and  C_8 
REMARK    4  A    between atoms: C_3  and  C_7 
REMARK    5  A    between atoms: O_4  and  C_11 
REMARK    6  A    between atoms: C_7  and  C_11 
REMARK    7  A    between atoms: C_7  and  N_18 
REMARK    8  A    between atoms: C_8  and  C_20 
REMARK    9  A    between atoms: C_13  and  Se_14 
ROOT
HETATM    1  N           1     -34.836  -1.928 -12.508  0.00  0.00    -0.345 N 
HETATM    2  C           1     -33.918  -2.791 -11.972  0.00  0.00     0.251 C 
HETATM    3  H           1     -35.403  -2.218 -13.294  0.00  0.00     0.163 HD
HETATM    4  O           1     -33.240  -2.446 -11.033  0.00  0.00    -0.271 OA
ENDROOT
BRANCH   1   5
HETATM    5  C           1     -34.995  -0.600 -11.949  0.00  0.00     0.185 C 
BRANCH   5   6
HETATM    6  C           1     -35.195   0.404 -13.077  0.00  0.00     0.036 C 
BRANCH   6   7
HETATM    7  C           1     -36.401  -0.004 -13.913  0.00  0.00     0.003 C 
BRANCH   7   8
HETATM    8 Se           1     -36.202   0.687 -15.724  0.00  0.00     0.000 Se
HETATM    9  C           1     -35.796  -1.046 -16.517  0.00  0.00     0.000 C 
ENDBRANCH   7   8
ENDBRANCH   6   7
ENDBRANCH   5   6
BRANCH   5  10
HETATM   10  C           1     -36.197  -0.579 -11.037  0.00  0.00     0.196 C 
HETATM   11  O           1     -36.924  -1.591 -10.937  0.00  0.00    -0.646 OA
HETATM   12  O           1     -36.466   0.451 -10.383  0.00  0.00    -0.646 OA
ENDBRANCH   5  10
ENDBRANCH   1   5
BRANCH   2  13
HETATM   13  C           1     -33.752  -4.174 -12.553  0.00  0.00     0.297 C 
BRANCH  13  14
HETATM   14  C           1     -34.823  -5.096 -11.985  0.00  0.00     0.206 C 
BRANCH  14  15
HETATM   15  O           1     -35.687  -4.359 -11.162  0.00  0.00    -0.398 OA
HETATM   16  H           1     -36.281  -3.900 -11.730  0.00  0.00     0.209 HD
ENDBRANCH  14  15
ENDBRANCH  13  14
BRANCH  13  17
HETATM   17  N           1     -32.395  -4.705 -12.196  0.00  0.00    -0.064 N 
HETATM   18  H           1     -32.365  -5.734 -12.379  0.00  0.00     0.275 HD
HETATM   19  H           1     -31.671  -4.228 -12.778  0.00  0.00     0.275 HD
HETATM   20  H           1     -32.206  -4.526 -11.185  0.00  0.00     0.275 HD
ENDBRANCH  13  17
ENDBRANCH   2  13
TORSDOF 9
ENDMDL
MODEL 6
REMARK VINA RESULT:      -5.2     11.629     12.160
REMARK  9 active torsions:
REMARK  status: ('A' for Active; 'I' for Inactive)
REMARK    1  A    between atoms: N_1  and  C_8 
REMARK       I    between atoms: N_1  and  C_3 
REMARK    2  A    between atoms: C_2  and  C_13 
REMARK    3  A    between atoms: C_2  and  C_8 
REMARK    4  A    between atoms: C_3  and  C_7 
REMARK    5  A    between atoms: O_4  and  C_11 
REMARK    6  A    between atoms: C_7  and  C_11 
REMARK    7  A    between atoms: C_7  and  N_18 
REMARK    8  A    between atoms: C_8  and  C_20 
REMARK    9  A    between atoms: C_13  and  Se_14 
ROOT
HETATM    1  N           1     -34.832  -1.224 -13.370  0.00  0.00    -0.345 N 
HETATM    2  C           1     -35.843  -0.838 -14.208  0.00  0.00     0.251 C 
HETATM    3  H           1     -33.868  -1.063 -13.632  0.00  0.00     0.163 HD
HETATM    4  O           1     -36.994  -1.029 -13.895  0.00  0.00    -0.271 OA
ENDROOT
BRANCH   1   5
HETATM    5  C           1     -35.142  -1.863 -12.106  0.00  0.00     0.185 C 
BRANCH   5   6
HETATM    6  C           1     -33.849  -2.198 -11.375  0.00  0.00     0.036 C 
BRANCH   6   7
HETATM    7  C           1     -34.005  -3.528 -10.649  0.00  0.00     0.003 C 
BRANCH   7   8
HETATM    8 Se           1     -34.732  -4.857 -11.874  0.00  0.00     0.000 Se
HETATM    9  C           1     -34.366  -6.373 -10.705  0.00  0.00     0.000 C 
ENDBRANCH   7   8
ENDBRANCH   6   7
ENDBRANCH   5   6
BRANCH   5  10
HETATM   10  C           1     -35.971  -0.928 -11.260  0.00  0.00     0.196 C 
HETATM   11  O           1     -35.641   0.273 -11.148  0.00  0.00    -0.646 OA
HETATM   12  O           1     -36.987  -1.354 -10.670  0.00  0.00    -0.646 OA
ENDBRANCH   5  10
ENDBRANCH   1   5
BRANCH   2  13
HETATM   13  C           1     -35.520  -0.172 -15.524  0.00  0.00     0.297 C 
BRANCH  13  14
HETATM   14  C           1     -35.380   1.329 -15.313  0.00  0.00     0.206 C 
BRANCH  14  15
HETATM   15  O           1     -35.139   1.592 -13.957  0.00  0.00    -0.398 OA
HETATM   16  H           1     -34.204   1.607 -13.842  0.00  0.00     0.209 HD
ENDBRANCH  14  15
ENDBRANCH  13  14
BRANCH  13  17
HETATM   17  N           1     -36.626  -0.438 -16.502  0.00  0.00    -0.064 N 
HETATM   18  H           1     -37.044   0.469 -16.811  0.00  0.00     0.275 HD
HETATM   19  H           1     -36.243  -0.945 -17.331  0.00  0.00     0.275 HD
HETATM   20  H           1     -37.362  -1.023 -16.044  0.00  0.00     0.275 HD
ENDBRANCH  13  17
ENDBRANCH   2  13
TORSDOF 9
ENDMDL
MODEL 7
REMARK VINA RESULT:      -5.0     10.188     12.130
REMARK  9 active torsions:
REMARK  status: ('A' for Active; 'I' for Inactive)
REMARK    1  A    between atoms: N_1  and  C_8 
REMARK       I    between atoms: N_1  and  C_3 
REMARK    2  A    between atoms: C_2  and  C_13 
REMARK    3  A    between atoms: C_2  and  C_8 
REMARK    4  A    between atoms: C_3  and  C_7 
REMARK    5  A    between atoms: O_4  and  C_11 
REMARK    6  A    between atoms: C_7  and  C_11 
REMARK    7  A    between atoms: C_7  and  N_18 
REMARK    8  A    between atoms: C_8  and  C_20 
REMARK    9  A    between atoms: C_13  and  Se_14 
ROOT
HETATM    1  N           1     -22.209  -5.259  -8.586  0.00  0.00    -0.345 N 
HETATM    2  C           1     -23.092  -4.303  -9.013  0.00  0.00     0.251 C 
HETATM    3  H           1     -22.303  -6.213  -8.908  0.00  0.00     0.163 HD
HETATM    4  O           1     -22.981  -3.163  -8.629  0.00  0.00    -0.271 OA
ENDROOT
BRANCH   1   5
HETATM    5  C           1     -21.140  -4.903  -7.673  0.00  0.00     0.185 C 
BRANCH   5   6
HETATM    6  C           1     -20.855  -6.075  -6.745  0.00  0.00     0.036 C 
BRANCH   6   7
HETATM    7  C           1     -21.073  -5.645  -5.301  0.00  0.00     0.003 C 
BRANCH   7   8
HETATM    8 Se           1     -21.627  -7.183  -4.240  0.00  0.00     0.000 Se
HETATM    9  C           1     -21.734  -6.195  -2.563  0.00  0.00     0.000 C 
ENDBRANCH   7   8
ENDBRANCH   6   7
ENDBRANCH   5   6
BRANCH   5  10
HETATM   10  C           1     -19.897  -4.569  -8.461  0.00  0.00     0.196 C 
HETATM   11  O           1     -19.889  -4.706  -9.704  0.00  0.00    -0.646 OA
HETATM   12  O           1     -18.875  -4.158  -7.871  0.00  0.00    -0.646 OA
ENDBRANCH   5  10
ENDBRANCH   1   5
BRANCH   2  13
HETATM   13  C           1     -24.205  -4.673  -9.963  0.00  0.00     0.297 C 
BRANCH  13  14
HETATM   14  C           1     -23.660  -4.740 -11.383  0.00  0.00     0.206 C 
BRANCH  14  15
HETATM   15  O           1     -22.422  -4.084 -11.441  0.00  0.00    -0.398 OA
HETATM   16  H           1     -22.292  -3.668 -10.606  0.00  0.00     0.209 HD
ENDBRANCH  14  15
ENDBRANCH  13  14
BRANCH  13  17
HETATM   17  N           1     -25.287  -3.636  -9.891  0.00  0.00    -0.064 N 
HETATM   18  H           1     -26.004  -3.830 -10.627  0.00  0.00     0.275 HD
HETATM   19  H           1     -25.738  -3.668  -8.949  0.00  0.00     0.275 HD
HETATM   20  H           1     -24.873  -2.690 -10.049  0.00  0.00     0.275 HD
ENDBRANCH  13  17
ENDBRANCH   2  13
TORSDOF 9
ENDMDL
MODEL 8
REMARK VINA RESULT:      -4.8     11.030     12.185
REMARK  9 active torsions:
REMARK  status: ('A' for Active; 'I' for Inactive)
REMARK    1  A    between atoms: N_1  and  C_8 
REMARK       I    between atoms: N_1  and  C_3 
REMARK    2  A    between atoms: C_2  and  C_13 
REMARK    3  A    between atoms: C_2  and  C_8 
REMARK    4  A    between atoms: C_3  and  C_7 
REMARK    5  A    between atoms: O_4  and  C_11 
REMARK    6  A    between atoms: C_7  and  C_11 
REMARK    7  A    between atoms: C_7  and  N_18 
REMARK    8  A    between atoms: C_8  and  C_20 
REMARK    9  A    between atoms: C_13  and  Se_14 
ROOT
HETATM    1  N           1     -35.520  -3.279 -11.274  0.00  0.00    -0.345 N 
HETATM    2  C           1     -34.768  -4.369 -10.926  0.00  0.00     0.251 C 
HETATM    3  H           1     -36.340  -3.394 -11.856  0.00  0.00     0.163 HD
HETATM    4  O           1     -33.790  -4.231 -10.231  0.00  0.00    -0.271 OA
ENDROOT
BRANCH   1   5
HETATM    5  C           1     -35.141  -1.958 -10.809  0.00  0.00     0.185 C 
BRANCH   5   6
HETATM    6  C           1     -34.441  -1.207 -11.933  0.00  0.00     0.036 C 
BRANCH   6   7
HETATM    7  C           1     -35.246  -1.347 -13.218  0.00  0.00     0.003 C 
BRANCH   7   8
HETATM    8 Se           1     -35.698   0.421 -13.900  0.00  0.00     0.000 Se
HETATM    9  C           1     -37.499  -0.074 -14.458  0.00  0.00     0.000 C 
ENDBRANCH   7   8
ENDBRANCH   6   7
ENDBRANCH   5   6
BRANCH   5  10
HETATM   10  C           1     -36.377  -1.200 -10.390  0.00  0.00     0.196 C 
HETATM   11  O           1     -37.505  -1.582 -10.771  0.00  0.00    -0.646 OA
HETATM   12  O           1     -36.272  -0.190  -9.662  0.00  0.00    -0.646 OA
ENDBRANCH   5  10
ENDBRANCH   1   5
BRANCH   2  13
HETATM   13  C           1     -35.162  -5.743 -11.410  0.00  0.00     0.297 C 
BRANCH  13  14
HETATM   14  C           1     -34.381  -6.797 -10.637  0.00  0.00     0.206 C 
BRANCH  14  15
HETATM   15  O           1     -35.082  -7.138  -9.471  0.00  0.00    -0.398 OA
HETATM   16  H           1     -34.443  -7.421  -8.840  0.00  0.00     0.209 HD
ENDBRANCH  14  15
ENDBRANCH  13  14
BRANCH  13  17
HETATM   17  N           1     -34.851  -5.864 -12.872  0.00  0.00    -0.064 N 
HETATM   18  H           1     -34.202  -5.096 -13.155  0.00  0.00     0.275 HD
HETATM   19  H           1     -34.398  -6.787 -13.057  0.00  0.00     0.275 HD
HETATM   20  H           1     -35.736  -5.793 -13.423  0.00  0.00     0.275 HD
ENDBRANCH  13  17
ENDBRANCH   2  13
TORSDOF 9
ENDMDL
MODEL 9
REMARK VINA RESULT:      -4.7     18.874     20.182
REMARK  9 active torsions:
REMARK  status: ('A' for Active; 'I' for Inactive)
REMARK    1  A    between atoms: N_1  and  C_8 
REMARK       I    between atoms: N_1  and  C_3 
REMARK    2  A    between atoms: C_2  and  C_13 
REMARK    3  A    between atoms: C_2  and  C_8 
REMARK    4  A    between atoms: C_3  and  C_7 
REMARK    5  A    between atoms: O_4  and  C_11 
REMARK    6  A    between atoms: C_7  and  C_11 
REMARK    7  A    between atoms: C_7  and  N_18 
REMARK    8  A    between atoms: C_8  and  C_20 
REMARK    9  A    between atoms: C_13  and  Se_14 
ROOT
HETATM    1  N           1     -11.567   5.564 -21.522  0.00  0.00    -0.345 N 
HETATM    2  C           1     -12.141   4.442 -22.058  0.00  0.00     0.251 C 
HETATM    3  H           1     -11.985   6.472 -21.682  0.00  0.00     0.163 HD
HETATM    4  O           1     -11.643   3.359 -21.866  0.00  0.00    -0.271 OA
ENDROOT
BRANCH   1   5
HETATM    5  C           1     -10.361   5.451 -20.724  0.00  0.00     0.185 C 
BRANCH   5   6
HETATM    6  C           1      -9.449   6.636 -21.014  0.00  0.00     0.036 C 
BRANCH   6   7
HETATM    7  C           1     -10.292   7.844 -21.401  0.00  0.00     0.003 C 
BRANCH   7   8
HETATM    8 Se           1     -10.300   9.128 -19.935  0.00  0.00     0.000 Se
HETATM    9  C           1     -12.190   8.891 -19.520  0.00  0.00     0.000 C 
ENDBRANCH   7   8
ENDBRANCH   6   7
ENDBRANCH   5   6
BRANCH   5  10
HETATM   10  C           1     -10.726   5.443 -19.260  0.00  0.00     0.196 C 
HETATM   11  O           1     -11.885   5.134 -18.906  0.00  0.00    -0.646 OA
HETATM   12  O           1      -9.870   5.745 -18.402  0.00  0.00    -0.646 OA
ENDBRANCH   5  10
ENDBRANCH   1   5
BRANCH   2  13
HETATM   13  C           1     -13.396   4.560 -22.888  0.00  0.00     0.297 C 
BRANCH  13  14
HETATM   14  C           1     -14.303   5.626 -22.290  0.00  0.00     0.206 C 
BRANCH  14  15
HETATM   15  O           1     -14.297   5.517 -20.892  0.00  0.00    -0.398 OA
HETATM   16  H           1     -14.779   6.253 -20.557  0.00  0.00     0.209 HD
ENDBRANCH  14  15
ENDBRANCH  13  14
BRANCH  13  17
HETATM   17  N           1     -14.113   3.242 -22.895  0.00  0.00    -0.064 N 
HETATM   18  H           1     -13.619   2.580 -23.536  0.00  0.00     0.275 HD
HETATM   19  H           1     -14.124   2.846 -21.929  0.00  0.00     0.275 HD
HETATM   20  H           1     -15.094   3.381 -23.227  0.00  0.00     0.275 HD
ENDBRANCH  13  17
ENDBRANCH   2  13
TORSDOF 9
ENDMDL
