MODEL 1
REMARK VINA RESULT:      -5.9      0.000      0.000
REMARK  11 active torsions:
REMARK  status: ('A' for Active; 'I' for Inactive)
REMARK    1  A    between atoms: S_2  and  C_3 
REMARK    2  A    between atoms: C_3  and  C_4 
REMARK    3  A    between atoms: C_4  and  C_5 
REMARK    4  A    between atoms: C_5  and  C_6 
REMARK    5  A    between atoms: C_5  and  N_9 
REMARK       I    between atoms: N_9  and  C_10 
REMARK    6  A    between atoms: C_10  and  C_11 
REMARK    7  A    between atoms: C_11  and  C_12 
REMARK    8  A    between atoms: C_11  and  N_18 
REMARK    9  A    between atoms: C_12  and  O_13 
REMARK   10  A    between atoms: O_13  and  P_14 
REMARK   11  A    between atoms: P_14  and  O_15 
ROOT
HETATM    1  N           1     -35.528  -2.882 -11.671  0.00  0.00    -0.345 N 
HETATM    2  C           1     -35.331  -1.601 -11.233  0.00  0.00     0.251 C 
HETATM    3  O           1     -34.288  -1.296 -10.707  0.00  0.00    -0.271 OA
HETATM    4  H           1     -36.402  -3.138 -12.112  0.00  0.00     0.163 HD
ENDROOT
BRANCH   2   5
HETATM    5  C           1     -36.418  -0.569 -11.409  0.00  0.00     0.298 C 
BRANCH   5   6
HETATM    6  C           1     -36.256   0.114 -12.762  0.00  0.00     0.224 C 
BRANCH   6   7
HETATM    7  O           1     -36.364  -0.839 -13.784  0.00  0.00    -0.287 OA
BRANCH   7   8
HETATM    8  P           1     -35.651  -0.461 -15.183  0.00  0.00     0.406 P 
HETATM    9  O           1     -34.486   0.413 -14.922  0.00  0.00    -0.624 OA
HETATM   10  O           1     -36.617   0.247 -16.052  0.00  0.00    -0.624 OA
BRANCH   8  11
HETATM   11  O           1     -35.157  -1.812 -15.918  0.00  0.00    -0.300 OA
HETATM   12  H           1     -34.422  -2.111 -15.410  0.00  0.00     0.223 HD
ENDBRANCH   8  11
ENDBRANCH   7   8
ENDBRANCH   6   7
ENDBRANCH   5   6
BRANCH   5  13
HETATM   13  N           1     -36.316   0.455 -10.318  0.00  0.00    -0.064 N 
HETATM   14  H           1     -35.845   0.033  -9.486  0.00  0.00     0.275 HD
HETATM   15  H           1     -35.757   1.271 -10.658  0.00  0.00     0.275 HD
HETATM   16  H           1     -37.273   0.776 -10.051  0.00  0.00     0.275 HD
ENDBRANCH   5  13
ENDBRANCH   2   5
BRANCH   1  17
HETATM   17  C           1     -34.485  -3.875 -11.502  0.00  0.00     0.186 C 
BRANCH  17  18
HETATM   18  C           1     -35.116  -5.239 -11.258  0.00  0.00     0.046 C 
BRANCH  18  19
HETATM   19  C           1     -34.105  -6.153 -10.578  0.00  0.00     0.076 C 
BRANCH  19  20
HETATM   20  S           1     -34.982  -7.463  -9.679  0.00  0.00    -0.173 SA
HETATM   21  C           1     -33.767  -8.772 -10.001  0.00  0.00     0.089 C 
ENDBRANCH  19  20
ENDBRANCH  18  19
ENDBRANCH  17  18
BRANCH  17  22
HETATM   22  C           1     -33.637  -3.929 -12.750  0.00  0.00     0.196 C 
HETATM   23  O           1     -32.428  -4.238 -12.671  0.00  0.00    -0.646 OA
HETATM   24  O           1     -34.143  -3.666 -13.861  0.00  0.00    -0.646 OA
ENDBRANCH  17  22
ENDBRANCH   1  17
TORSDOF 11
ENDMDL
MODEL 2
REMARK VINA RESULT:      -5.9      5.427      6.499
REMARK  11 active torsions:
REMARK  status: ('A' for Active; 'I' for Inactive)
REMARK    1  A    between atoms: S_2  and  C_3 
REMARK    2  A    between atoms: C_3  and  C_4 
REMARK    3  A    between atoms: C_4  and  C_5 
REMARK    4  A    between atoms: C_5  and  C_6 
REMARK    5  A    between atoms: C_5  and  N_9 
REMARK       I    between atoms: N_9  and  C_10 
REMARK    6  A    between atoms: C_10  and  C_11 
REMARK    7  A    between atoms: C_11  and  C_12 
REMARK    8  A    between atoms: C_11  and  N_18 
REMARK    9  A    between atoms: C_12  and  O_13 
REMARK   10  A    between atoms: O_13  and  P_14 
REMARK   11  A    between atoms: P_14  and  O_15 
ROOT
HETATM    1  N           1     -31.922  -5.622 -16.701  0.00  0.00    -0.345 N 
HETATM    2  C           1     -32.521  -4.397 -16.824  0.00  0.00     0.251 C 
HETATM    3  O           1     -31.961  -3.508 -17.419  0.00  0.00    -0.271 OA
HETATM    4  H           1     -32.391  -6.367 -16.202  0.00  0.00     0.163 HD
ENDROOT
BRANCH   2   5
HETATM    5  C           1     -33.881  -4.160 -16.215  0.00  0.00     0.298 C 
BRANCH   5   6
HETATM    6  C           1     -34.379  -2.774 -16.608  0.00  0.00     0.224 C 
BRANCH   6   7
HETATM    7  O           1     -35.059  -2.197 -15.526  0.00  0.00    -0.287 OA
BRANCH   7   8
HETATM    8  P           1     -35.791  -0.788 -15.819  0.00  0.00     0.406 P 
HETATM    9  O           1     -34.852   0.322 -15.540  0.00  0.00    -0.624 OA
HETATM   10  O           1     -36.981  -0.660 -14.949  0.00  0.00    -0.624 OA
BRANCH   8  11
HETATM   11  O           1     -36.248  -0.730 -17.368  0.00  0.00    -0.300 OA
HETATM   12  H           1     -36.161   0.175 -17.614  0.00  0.00     0.223 HD
ENDBRANCH   8  11
ENDBRANCH   7   8
ENDBRANCH   6   7
ENDBRANCH   5   6
BRANCH   5  13
HETATM   13  N           1     -33.783  -4.249 -14.721  0.00  0.00    -0.064 N 
HETATM   14  H           1     -34.710  -4.527 -14.326  0.00  0.00     0.275 HD
HETATM   15  H           1     -33.066  -4.965 -14.463  0.00  0.00     0.275 HD
HETATM   16  H           1     -33.504  -3.320 -14.334  0.00  0.00     0.275 HD
ENDBRANCH   5  13
ENDBRANCH   2   5
BRANCH   1  17
HETATM   17  C           1     -30.615  -5.852 -17.285  0.00  0.00     0.186 C 
BRANCH  17  18
HETATM   18  C           1     -29.544  -5.677 -16.217  0.00  0.00     0.046 C 
BRANCH  18  19
HETATM   19  C           1     -28.419  -4.807 -16.763  0.00  0.00     0.076 C 
BRANCH  19  20
HETATM   20  S           1     -27.007  -5.855 -17.214  0.00  0.00    -0.173 SA
HETATM   21  C           1     -27.035  -6.881 -15.717  0.00  0.00     0.089 C 
ENDBRANCH  19  20
ENDBRANCH  18  19
ENDBRANCH  17  18
BRANCH  17  22
HETATM   22  C           1     -30.552  -7.255 -17.837  0.00  0.00     0.196 C 
HETATM   23  O           1     -29.800  -8.102 -17.307  0.00  0.00    -0.646 OA
HETATM   24  O           1     -31.253  -7.572 -18.822  0.00  0.00    -0.646 OA
ENDBRANCH  17  22
ENDBRANCH   1  17
TORSDOF 11
ENDMDL
MODEL 3
REMARK VINA RESULT:      -5.8      9.730     11.671
REMARK  11 active torsions:
REMARK  status: ('A' for Active; 'I' for Inactive)
REMARK    1  A    between atoms: S_2  and  C_3 
REMARK    2  A    between atoms: C_3  and  C_4 
REMARK    3  A    between atoms: C_4  and  C_5 
REMARK    4  A    between atoms: C_5  and  C_6 
REMARK    5  A    between atoms: C_5  and  N_9 
REMARK       I    between atoms: N_9  and  C_10 
REMARK    6  A    between atoms: C_10  and  C_11 
REMARK    7  A    between atoms: C_11  and  C_12 
REMARK    8  A    between atoms: C_11  and  N_18 
REMARK    9  A    between atoms: C_12  and  O_13 
REMARK   10  A    between atoms: O_13  and  P_14 
REMARK   11  A    between atoms: P_14  and  O_15 
ROOT
HETATM    1  N           1     -26.408  -6.592 -17.270  0.00  0.00    -0.345 N 
HETATM    2  C           1     -25.220  -6.504 -16.598  0.00  0.00     0.251 C 
HETATM    3  O           1     -25.175  -5.963 -15.519  0.00  0.00    -0.271 OA
HETATM    4  H           1     -26.447  -7.045 -18.174  0.00  0.00     0.163 HD
ENDROOT
BRANCH   2   5
HETATM    5  C           1     -23.966  -7.084 -17.205  0.00  0.00     0.298 C 
BRANCH   5   6
HETATM    6  C           1     -24.245  -7.505 -18.642  0.00  0.00     0.224 C 
BRANCH   6   7
HETATM    7  O           1     -24.583  -6.377 -19.404  0.00  0.00    -0.287 OA
BRANCH   7   8
HETATM    8  P           1     -25.420  -6.660 -20.755  0.00  0.00     0.406 P 
HETATM    9  O           1     -26.837  -6.917 -20.413  0.00  0.00    -0.624 OA
HETATM   10  O           1     -24.856  -7.842 -21.446  0.00  0.00    -0.624 OA
BRANCH   8  11
HETATM   11  O           1     -25.326  -5.374 -21.727  0.00  0.00    -0.300 OA
HETATM   12  H           1     -24.994  -4.681 -21.182  0.00  0.00     0.223 HD
ENDBRANCH   8  11
ENDBRANCH   7   8
ENDBRANCH   6   7
ENDBRANCH   5   6
BRANCH   5  13
HETATM   13  N           1     -23.533  -8.280 -16.410  0.00  0.00    -0.064 N 
HETATM   14  H           1     -23.996  -8.263 -15.473  0.00  0.00     0.275 HD
HETATM   15  H           1     -23.808  -9.152 -16.917  0.00  0.00     0.275 HD
HETATM   16  H           1     -22.497  -8.260 -16.286  0.00  0.00     0.275 HD
ENDBRANCH   5  13
ENDBRANCH   2   5
BRANCH   1  17
HETATM   17  C           1     -27.614  -6.035 -16.688  0.00  0.00     0.186 C 
BRANCH  17  18
HETATM   18  C           1     -28.410  -5.310 -17.766  0.00  0.00     0.046 C 
BRANCH  18  19
HETATM   19  C           1     -28.835  -3.942 -17.249  0.00  0.00     0.076 C 
BRANCH  19  20
HETATM   20  S           1     -30.544  -3.606 -17.760  0.00  0.00    -0.173 SA
HETATM   21  C           1     -31.329  -4.764 -16.603  0.00  0.00     0.089 C 
ENDBRANCH  19  20
ENDBRANCH  18  19
ENDBRANCH  17  18
BRANCH  17  22
HETATM   22  C           1     -28.451  -7.148 -16.107  0.00  0.00     0.196 C 
HETATM   23  O           1     -28.196  -7.591 -14.966  0.00  0.00    -0.646 OA
HETATM   24  O           1     -29.400  -7.626 -16.765  0.00  0.00    -0.646 OA
ENDBRANCH  17  22
ENDBRANCH   1  17
TORSDOF 11
ENDMDL
MODEL 4
REMARK VINA RESULT:      -5.7      9.218     11.126
REMARK  11 active torsions:
REMARK  status: ('A' for Active; 'I' for Inactive)
REMARK    1  A    between atoms: S_2  and  C_3 
REMARK    2  A    between atoms: C_3  and  C_4 
REMARK    3  A    between atoms: C_4  and  C_5 
REMARK    4  A    between atoms: C_5  and  C_6 
REMARK    5  A    between atoms: C_5  and  N_9 
REMARK       I    between atoms: N_9  and  C_10 
REMARK    6  A    between atoms: C_10  and  C_11 
REMARK    7  A    between atoms: C_11  and  C_12 
REMARK    8  A    between atoms: C_11  and  N_18 
REMARK    9  A    between atoms: C_12  and  O_13 
REMARK   10  A    between atoms: O_13  and  P_14 
REMARK   11  A    between atoms: P_14  and  O_15 
ROOT
HETATM    1  N           1     -27.972  -6.736 -17.312  0.00  0.00    -0.345 N 
HETATM    2  C           1     -27.048  -6.920 -16.319  0.00  0.00     0.251 C 
HETATM    3  O           1     -27.354  -7.508 -15.311  0.00  0.00    -0.271 OA
HETATM    4  H           1     -27.715  -6.243 -18.158  0.00  0.00     0.163 HD
ENDROOT
BRANCH   2   5
HETATM    5  C           1     -25.645  -6.388 -16.487  0.00  0.00     0.298 C 
BRANCH   5   6
HETATM    6  C           1     -25.027  -6.974 -17.750  0.00  0.00     0.224 C 
BRANCH   6   7
HETATM    7  O           1     -25.602  -6.370 -18.878  0.00  0.00    -0.287 OA
BRANCH   7   8
HETATM    8  P           1     -25.277  -7.065 -20.298  0.00  0.00     0.406 P 
HETATM    9  O           1     -23.996  -7.801 -20.203  0.00  0.00    -0.624 OA
HETATM   10  O           1     -25.172  -6.024 -21.344  0.00  0.00    -0.624 OA
BRANCH   8  11
HETATM   11  O           1     -26.462  -8.094 -20.679  0.00  0.00    -0.300 OA
HETATM   12  H           1     -26.588  -7.987 -21.607  0.00  0.00     0.223 HD
ENDBRANCH   8  11
ENDBRANCH   7   8
ENDBRANCH   6   7
ENDBRANCH   5   6
BRANCH   5  13
HETATM   13  N           1     -24.817  -6.778 -15.299  0.00  0.00    -0.064 N 
HETATM   14  H           1     -25.183  -6.298 -14.446  0.00  0.00     0.275 HD
HETATM   15  H           1     -24.869  -7.814 -15.165  0.00  0.00     0.275 HD
HETATM   16  H           1     -23.824  -6.497 -15.459  0.00  0.00     0.275 HD
ENDBRANCH   5  13
ENDBRANCH   2   5
BRANCH   1  17
HETATM   17  C           1     -29.319  -7.247 -17.152  0.00  0.00     0.186 C 
BRANCH  17  18
HETATM   18  C           1     -30.236  -6.124 -16.687  0.00  0.00     0.046 C 
BRANCH  18  19
HETATM   19  C           1     -29.616  -4.780 -17.046  0.00  0.00     0.076 C 
BRANCH  19  20
HETATM   20  S           1     -30.907  -3.661 -17.657  0.00  0.00    -0.173 SA
HETATM   21  C           1     -32.284  -4.443 -16.770  0.00  0.00     0.089 C 
ENDBRANCH  19  20
ENDBRANCH  18  19
ENDBRANCH  17  18
BRANCH  17  22
HETATM   22  C           1     -29.812  -7.785 -18.474  0.00  0.00     0.196 C 
HETATM   23  O           1     -31.035  -7.785 -18.731  0.00  0.00    -0.646 OA
HETATM   24  O           1     -28.996  -8.228 -19.311  0.00  0.00    -0.646 OA
ENDBRANCH  17  22
ENDBRANCH   1  17
TORSDOF 11
ENDMDL
MODEL 5
REMARK VINA RESULT:      -5.7      4.022      5.586
REMARK  11 active torsions:
REMARK  status: ('A' for Active; 'I' for Inactive)
REMARK    1  A    between atoms: S_2  and  C_3 
REMARK    2  A    between atoms: C_3  and  C_4 
REMARK    3  A    between atoms: C_4  and  C_5 
REMARK    4  A    between atoms: C_5  and  C_6 
REMARK    5  A    between atoms: C_5  and  N_9 
REMARK       I    between atoms: N_9  and  C_10 
REMARK    6  A    between atoms: C_10  and  C_11 
REMARK    7  A    between atoms: C_11  and  C_12 
REMARK    8  A    between atoms: C_11  and  N_18 
REMARK    9  A    between atoms: C_12  and  O_13 
REMARK   10  A    between atoms: O_13  and  P_14 
REMARK   11  A    between atoms: P_14  and  O_15 
ROOT
HETATM    1  N           1     -33.420  -3.947 -14.321  0.00  0.00    -0.345 N 
HETATM    2  C           1     -33.978  -4.513 -15.435  0.00  0.00     0.251 C 
HETATM    3  O           1     -35.048  -5.068 -15.360  0.00  0.00    -0.271 OA
HETATM    4  H           1     -32.524  -3.482 -14.384  0.00  0.00     0.163 HD
ENDROOT
BRANCH   2   5
HETATM    5  C           1     -33.255  -4.441 -16.759  0.00  0.00     0.298 C 
BRANCH   5   6
HETATM    6  C           1     -31.769  -4.698 -16.541  0.00  0.00     0.224 C 
BRANCH   6   7
HETATM    7  O           1     -31.021  -3.858 -17.378  0.00  0.00    -0.287 OA
BRANCH   7   8
HETATM    8  P           1     -29.434  -4.149 -17.439  0.00  0.00     0.406 P 
HETATM    9  O           1     -28.694  -2.878 -17.273  0.00  0.00    -0.624 OA
HETATM   10  O           1     -29.094  -4.752 -18.747  0.00  0.00    -0.624 OA
BRANCH   8  11
HETATM   11  O           1     -29.027  -5.169 -16.254  0.00  0.00    -0.300 OA
HETATM   12  H           1     -28.696  -5.933 -16.694  0.00  0.00     0.223 HD
ENDBRANCH   8  11
ENDBRANCH   7   8
ENDBRANCH   6   7
ENDBRANCH   5   6
BRANCH   5  13
HETATM   13  N           1     -33.443  -3.079 -17.358  0.00  0.00    -0.064 N 
HETATM   14  H           1     -34.464  -2.858 -17.408  0.00  0.00     0.275 HD
HETATM   15  H           1     -32.962  -2.368 -16.761  0.00  0.00     0.275 HD
HETATM   16  H           1     -33.035  -3.061 -18.318  0.00  0.00     0.275 HD
ENDBRANCH   5  13
ENDBRANCH   2   5
BRANCH   1  17
HETATM   17  C           1     -34.113  -4.015 -13.049  0.00  0.00     0.186 C 
BRANCH  17  18
HETATM   18  C           1     -33.098  -4.172 -11.925  0.00  0.00     0.046 C 
BRANCH  18  19
HETATM   19  C           1     -33.188  -5.580 -11.352  0.00  0.00     0.076 C 
BRANCH  19  20
HETATM   20  S           1     -34.714  -5.744 -10.384  0.00  0.00    -0.173 SA
HETATM   21  C           1     -34.630  -7.545 -10.183  0.00  0.00     0.089 C 
ENDBRANCH  19  20
ENDBRANCH  18  19
ENDBRANCH  17  18
BRANCH  17  22
HETATM   22  C           1     -34.904  -2.746 -12.840  0.00  0.00     0.196 C 
HETATM   23  O           1     -34.804  -1.806 -13.658  0.00  0.00    -0.646 OA
HETATM   24  O           1     -35.660  -2.636 -11.851  0.00  0.00    -0.646 OA
ENDBRANCH  17  22
ENDBRANCH   1  17
TORSDOF 11
ENDMDL
MODEL 6
REMARK VINA RESULT:      -5.6      7.450      8.893
REMARK  11 active torsions:
REMARK  status: ('A' for Active; 'I' for Inactive)
REMARK    1  A    between atoms: S_2  and  C_3 
REMARK    2  A    between atoms: C_3  and  C_4 
REMARK    3  A    between atoms: C_4  and  C_5 
REMARK    4  A    between atoms: C_5  and  C_6 
REMARK    5  A    between atoms: C_5  and  N_9 
REMARK       I    between atoms: N_9  and  C_10 
REMARK    6  A    between atoms: C_10  and  C_11 
REMARK    7  A    between atoms: C_11  and  C_12 
REMARK    8  A    between atoms: C_11  and  N_18 
REMARK    9  A    between atoms: C_12  and  O_13 
REMARK   10  A    between atoms: O_13  and  P_14 
REMARK   11  A    between atoms: P_14  and  O_15 
ROOT
HETATM    1  N           1     -28.504  -5.160 -17.061  0.00  0.00    -0.345 N 
HETATM    2  C           1     -29.843  -5.263 -17.327  0.00  0.00     0.251 C 
HETATM    3  O           1     -30.288  -6.281 -17.799  0.00  0.00    -0.271 OA
HETATM    4  H           1     -28.131  -4.306 -16.665  0.00  0.00     0.163 HD
ENDROOT
BRANCH   2   5
HETATM    5  C           1     -30.762  -4.104 -17.028  0.00  0.00     0.298 C 
BRANCH   5   6
HETATM    6  C           1     -32.191  -4.611 -16.886  0.00  0.00     0.224 C 
BRANCH   6   7
HETATM    7  O           1     -32.640  -4.390 -15.576  0.00  0.00    -0.287 OA
BRANCH   7   8
HETATM    8  P           1     -34.206  -4.034 -15.414  0.00  0.00     0.406 P 
HETATM    9  O           1     -34.589  -3.024 -16.426  0.00  0.00    -0.624 OA
HETATM   10  O           1     -34.452  -3.494 -14.059  0.00  0.00    -0.624 OA
BRANCH   8  11
HETATM   11  O           1     -35.088  -5.371 -15.628  0.00  0.00    -0.300 OA
HETATM   12  H           1     -34.896  -5.911 -14.881  0.00  0.00     0.223 HD
ENDBRANCH   8  11
ENDBRANCH   7   8
ENDBRANCH   6   7
ENDBRANCH   5   6
BRANCH   5  13
HETATM   13  N           1     -30.694  -3.110 -18.150  0.00  0.00    -0.064 N 
HETATM   14  H           1     -31.641  -2.696 -18.307  0.00  0.00     0.275 HD
HETATM   15  H           1     -30.020  -2.351 -17.902  0.00  0.00     0.275 HD
HETATM   16  H           1     -30.375  -3.590 -19.021  0.00  0.00     0.275 HD
ENDBRANCH   5  13
ENDBRANCH   2   5
BRANCH   1  17
HETATM   17  C           1     -27.620  -6.272 -17.348  0.00  0.00     0.186 C 
BRANCH  17  18
HETATM   18  C           1     -26.751  -5.933 -18.552  0.00  0.00     0.046 C 
BRANCH  18  19
HETATM   19  C           1     -27.223  -6.732 -19.759  0.00  0.00     0.076 C 
BRANCH  19  20
HETATM   20  S           1     -25.784  -7.388 -20.651  0.00  0.00    -0.173 SA
HETATM   21  C           1     -24.565  -7.022 -19.357  0.00  0.00     0.089 C 
ENDBRANCH  19  20
ENDBRANCH  18  19
ENDBRANCH  17  18
BRANCH  17  22
HETATM   22  C           1     -26.740  -6.536 -16.150  0.00  0.00     0.196 C 
HETATM   23  O           1     -27.031  -7.452 -15.351  0.00  0.00    -0.646 OA
HETATM   24  O           1     -25.721  -5.838 -15.958  0.00  0.00    -0.646 OA
ENDBRANCH  17  22
ENDBRANCH   1  17
TORSDOF 11
ENDMDL
MODEL 7
REMARK VINA RESULT:      -5.4     13.424     15.113
REMARK  11 active torsions:
REMARK  status: ('A' for Active; 'I' for Inactive)
REMARK    1  A    between atoms: S_2  and  C_3 
REMARK    2  A    between atoms: C_3  and  C_4 
REMARK    3  A    between atoms: C_4  and  C_5 
REMARK    4  A    between atoms: C_5  and  C_6 
REMARK    5  A    between atoms: C_5  and  N_9 
REMARK       I    between atoms: N_9  and  C_10 
REMARK    6  A    between atoms: C_10  and  C_11 
REMARK    7  A    between atoms: C_11  and  C_12 
REMARK    8  A    between atoms: C_11  and  N_18 
REMARK    9  A    between atoms: C_12  and  O_13 
REMARK   10  A    between atoms: O_13  and  P_14 
REMARK   11  A    between atoms: P_14  and  O_15 
ROOT
HETATM    1  N           1     -21.405  -5.694  -6.014  0.00  0.00    -0.345 N 
HETATM    2  C           1     -20.643  -4.704  -6.574  0.00  0.00     0.251 C 
HETATM    3  O           1     -19.510  -4.529  -6.198  0.00  0.00    -0.271 OA
HETATM    4  H           1     -22.356  -5.840  -6.329  0.00  0.00     0.163 HD
ENDROOT
BRANCH   2   5
HETATM    5  C           1     -21.221  -3.832  -7.662  0.00  0.00     0.298 C 
BRANCH   5   6
HETATM    6  C           1     -22.674  -4.221  -7.907  0.00  0.00     0.224 C 
BRANCH   6   7
HETATM    7  O           1     -22.764  -4.980  -9.083  0.00  0.00    -0.287 OA
BRANCH   7   8
HETATM    8  P           1     -23.679  -4.357 -10.259  0.00  0.00     0.406 P 
HETATM    9  O           1     -23.735  -5.307 -11.394  0.00  0.00    -0.624 OA
HETATM   10  O           1     -23.092  -3.077 -10.714  0.00  0.00    -0.624 OA
BRANCH   8  11
HETATM   11  O           1     -25.172  -4.097  -9.701  0.00  0.00    -0.300 OA
HETATM   12  H           1     -25.406  -3.242 -10.020  0.00  0.00     0.223 HD
ENDBRANCH   8  11
ENDBRANCH   7   8
ENDBRANCH   6   7
ENDBRANCH   5   6
BRANCH   5  13
HETATM   13  N           1     -20.435  -4.023  -8.925  0.00  0.00    -0.064 N 
HETATM   14  H           1     -20.632  -4.971  -9.320  0.00  0.00     0.275 HD
HETATM   15  H           1     -20.712  -3.292  -9.620  0.00  0.00     0.275 HD
HETATM   16  H           1     -19.415  -3.938  -8.717  0.00  0.00     0.275 HD
ENDBRANCH   5  13
ENDBRANCH   2   5
BRANCH   1  17
HETATM   17  C           1     -20.852  -6.532  -4.969  0.00  0.00     0.186 C 
BRANCH  17  18
HETATM   18  C           1     -21.874  -6.693  -3.852  0.00  0.00     0.046 C 
BRANCH  18  19
HETATM   19  C           1     -21.170  -7.145  -2.580  0.00  0.00     0.076 C 
BRANCH  19  20
HETATM   20  S           1     -22.246  -6.840  -1.151  0.00  0.00    -0.173 SA
HETATM   21  C           1     -21.650  -8.232  -0.151  0.00  0.00     0.089 C 
ENDBRANCH  19  20
ENDBRANCH  18  19
ENDBRANCH  17  18
BRANCH  17  22
HETATM   22  C           1     -20.512  -7.887  -5.540  0.00  0.00     0.196 C 
HETATM   23  O           1     -21.421  -8.713  -5.773  0.00  0.00    -0.646 OA
HETATM   24  O           1     -19.322  -8.183  -5.781  0.00  0.00    -0.646 OA
ENDBRANCH  17  22
ENDBRANCH   1  17
TORSDOF 11
ENDMDL
MODEL 8
REMARK VINA RESULT:      -5.2     15.081     17.352
REMARK  11 active torsions:
REMARK  status: ('A' for Active; 'I' for Inactive)
REMARK    1  A    between atoms: S_2  and  C_3 
REMARK    2  A    between atoms: C_3  and  C_4 
REMARK    3  A    between atoms: C_4  and  C_5 
REMARK    4  A    between atoms: C_5  and  C_6 
REMARK    5  A    between atoms: C_5  and  N_9 
REMARK       I    between atoms: N_9  and  C_10 
REMARK    6  A    between atoms: C_10  and  C_11 
REMARK    7  A    between atoms: C_11  and  C_12 
REMARK    8  A    between atoms: C_11  and  N_18 
REMARK    9  A    between atoms: C_12  and  O_13 
REMARK   10  A    between atoms: O_13  and  P_14 
REMARK   11  A    between atoms: P_14  and  O_15 
ROOT
HETATM    1  N           1     -21.071  -5.415  -5.162  0.00  0.00    -0.345 N 
HETATM    2  C           1     -21.510  -6.452  -4.384  0.00  0.00     0.251 C 
HETATM    3  O           1     -22.094  -7.381  -4.889  0.00  0.00    -0.271 OA
HETATM    4  H           1     -20.583  -4.636  -4.739  0.00  0.00     0.163 HD
ENDROOT
BRANCH   2   5
HETATM    5  C           1     -21.263  -6.434  -2.895  0.00  0.00     0.298 C 
BRANCH   5   6
HETATM    6  C           1     -21.059  -7.860  -2.397  0.00  0.00     0.224 C 
BRANCH   6   7
HETATM    7  O           1     -20.750  -7.838  -1.029  0.00  0.00    -0.287 OA
BRANCH   7   8
HETATM    8  P           1     -21.774  -8.625  -0.059  0.00  0.00     0.406 P 
HETATM    9  O           1     -22.155  -9.911  -0.686  0.00  0.00    -0.624 OA
HETATM   10  O           1     -22.984  -7.801   0.153  0.00  0.00    -0.624 OA
BRANCH   8  11
HETATM   11  O           1     -21.060  -8.909   1.361  0.00  0.00    -0.300 OA
HETATM   12  H           1     -20.662  -8.090   1.602  0.00  0.00     0.223 HD
ENDBRANCH   8  11
ENDBRANCH   7   8
ENDBRANCH   6   7
ENDBRANCH   5   6
BRANCH   5  13
HETATM   13  N           1     -22.446  -5.828  -2.200  0.00  0.00    -0.064 N 
HETATM   14  H           1     -22.860  -6.527  -1.541  0.00  0.00     0.275 HD
HETATM   15  H           1     -22.139  -4.984  -1.665  0.00  0.00     0.275 HD
HETATM   16  H           1     -23.162  -5.551  -2.908  0.00  0.00     0.275 HD
ENDBRANCH   5  13
ENDBRANCH   2   5
BRANCH   1  17
HETATM   17  C           1     -21.308  -5.431  -6.593  0.00  0.00     0.186 C 
BRANCH  17  18
HETATM   18  C           1     -21.834  -4.072  -7.035  0.00  0.00     0.046 C 
BRANCH  18  19
HETATM   19  C           1     -23.118  -4.259  -7.832  0.00  0.00     0.076 C 
BRANCH  19  20
HETATM   20  S           1     -22.810  -3.869  -9.577  0.00  0.00    -0.173 SA
HETATM   21  C           1     -24.528  -3.456  -9.995  0.00  0.00     0.089 C 
ENDBRANCH  19  20
ENDBRANCH  18  19
ENDBRANCH  17  18
BRANCH  17  22
HETATM   22  C           1     -20.015  -5.729  -7.312  0.00  0.00     0.196 C 
HETATM   23  O           1     -19.531  -4.889  -8.100  0.00  0.00    -0.646 OA
HETATM   24  O           1     -19.427  -6.815  -7.117  0.00  0.00    -0.646 OA
ENDBRANCH  17  22
ENDBRANCH   1  17
TORSDOF 11
ENDMDL
MODEL 9
REMARK VINA RESULT:      -5.0      8.964     11.268
REMARK  11 active torsions:
REMARK  status: ('A' for Active; 'I' for Inactive)
REMARK    1  A    between atoms: S_2  and  C_3 
REMARK    2  A    between atoms: C_3  and  C_4 
REMARK    3  A    between atoms: C_4  and  C_5 
REMARK    4  A    between atoms: C_5  and  C_6 
REMARK    5  A    between atoms: C_5  and  N_9 
REMARK       I    between atoms: N_9  and  C_10 
REMARK    6  A    between atoms: C_10  and  C_11 
REMARK    7  A    between atoms: C_11  and  C_12 
REMARK    8  A    between atoms: C_11  and  N_18 
REMARK    9  A    between atoms: C_12  and  O_13 
REMARK   10  A    between atoms: O_13  and  P_14 
REMARK   11  A    between atoms: P_14  and  O_15 
ROOT
HETATM    1  N           1     -27.825  -6.591 -18.379  0.00  0.00    -0.345 N 
HETATM    2  C           1     -27.076  -6.366 -19.501  0.00  0.00     0.251 C 
HETATM    3  O           1     -27.396  -5.498 -20.277  0.00  0.00    -0.271 OA
HETATM    4  H           1     -27.557  -7.319 -17.728  0.00  0.00     0.163 HD
ENDROOT
BRANCH   2   5
HETATM    5  C           1     -25.849  -7.203 -19.769  0.00  0.00     0.298 C 
BRANCH   5   6
HETATM    6  C           1     -24.835  -6.992 -18.651  0.00  0.00     0.224 C 
BRANCH   6   7
HETATM    7  O           1     -25.441  -6.296 -17.595  0.00  0.00    -0.287 OA
BRANCH   7   8
HETATM    8  P           1     -25.241  -6.928 -16.123  0.00  0.00     0.406 P 
HETATM    9  O           1     -24.242  -8.018 -16.187  0.00  0.00    -0.624 OA
HETATM   10  O           1     -26.531  -7.467 -15.638  0.00  0.00    -0.624 OA
BRANCH   8  11
HETATM   11  O           1     -24.722  -5.781 -15.110  0.00  0.00    -0.300 OA
HETATM   12  H           1     -24.717  -4.989 -15.620  0.00  0.00     0.223 HD
ENDBRANCH   8  11
ENDBRANCH   7   8
ENDBRANCH   6   7
ENDBRANCH   5   6
BRANCH   5  13
HETATM   13  N           1     -25.240  -6.794 -21.077  0.00  0.00    -0.064 N 
HETATM   14  H           1     -25.448  -7.519 -21.801  0.00  0.00     0.275 HD
HETATM   15  H           1     -25.645  -5.878 -21.376  0.00  0.00     0.275 HD
HETATM   16  H           1     -24.206  -6.699 -20.966  0.00  0.00     0.275 HD
ENDBRANCH   5  13
ENDBRANCH   2   5
BRANCH   1  17
HETATM   17  C           1     -29.004  -5.788 -18.120  0.00  0.00     0.186 C 
BRANCH  17  18
HETATM   18  C           1     -29.966  -6.568 -17.234  0.00  0.00     0.046 C 
BRANCH  18  19
HETATM   19  C           1     -31.397  -6.152 -17.547  0.00  0.00     0.076 C 
BRANCH  19  20
HETATM   20  S           1     -31.946  -4.914 -16.338  0.00  0.00    -0.173 SA
HETATM   21  C           1     -32.481  -3.675 -17.552  0.00  0.00     0.089 C 
ENDBRANCH  19  20
ENDBRANCH  18  19
ENDBRANCH  17  18
BRANCH  17  22
HETATM   22  C           1     -28.599  -4.512 -17.424  0.00  0.00     0.196 C 
HETATM   23  O           1     -27.826  -4.554 -16.442  0.00  0.00    -0.646 OA
HETATM   24  O           1     -29.035  -3.413 -17.829  0.00  0.00    -0.646 OA
ENDBRANCH  17  22
ENDBRANCH   1  17
TORSDOF 11
ENDMDL
