MODEL 1
REMARK VINA RESULT:      -5.8      0.000      0.000
REMARK  8 active torsions:
REMARK  status: ('A' for Active; 'I' for Inactive)
REMARK    1  A    between atoms: O_2  and  P_4 
REMARK    2  A    between atoms: C_3  and  C_7 
REMARK    3  A    between atoms: P_4  and  O_5 
REMARK    4  A    between atoms: O_5  and  C_6 
REMARK    5  A    between atoms: C_6  and  C_7 
REMARK    6  A    between atoms: C_7  and  N_10 
REMARK       I    between atoms: N_10  and  C_11 
REMARK    7  A    between atoms: C_11  and  C_12 
REMARK    8  A    between atoms: C_12  and  N_13 
ROOT
HETATM    1  C           1     -35.534  -1.187 -12.313  0.00  0.00     0.210 C 
ENDROOT
BRANCH   1   2
HETATM    2  C           1     -34.345  -2.006 -11.875  0.00  0.00     0.198 C 
HETATM    3  O           1     -34.025  -3.033 -12.512  0.00  0.00    -0.646 OA
HETATM    4  O           1     -33.680  -1.658 -10.876  0.00  0.00    -0.646 OA
ENDBRANCH   1   2
BRANCH   1   5
HETATM    5  C           1     -35.173  -0.392 -13.561  0.00  0.00     0.217 C 
BRANCH   5   6
HETATM    6  O           1     -35.835  -0.938 -14.671  0.00  0.00    -0.287 OA
BRANCH   6   7
HETATM    7  P           1     -36.913   0.023 -15.394  0.00  0.00     0.406 P 
HETATM    8  O           1     -36.233   1.237 -15.896  0.00  0.00    -0.624 OA
HETATM    9  O           1     -37.535  -0.699 -16.526  0.00  0.00    -0.624 OA
BRANCH   7  10
HETATM   10  O           1     -38.055   0.444 -14.332  0.00  0.00    -0.300 OA
HETATM   11  H           1     -37.687   0.246 -13.488  0.00  0.00     0.223 HD
ENDBRANCH   7  10
ENDBRANCH   6   7
ENDBRANCH   5   6
ENDBRANCH   1   5
BRANCH   1  12
HETATM   12  N           1     -35.908  -0.274 -11.250  0.00  0.00    -0.343 N 
HETATM   13  C           1     -37.223  -0.140 -10.895  0.00  0.00     0.243 C 
HETATM   14  O           1     -38.073  -0.782 -11.466  0.00  0.00    -0.272 OA
HETATM   15  H           1     -35.198   0.264 -10.772  0.00  0.00     0.163 HD
BRANCH  13  16
HETATM   16  C           1     -37.613   0.810  -9.789  0.00  0.00     0.332 C 
BRANCH  16  17
HETATM   17  N           1     -36.379   1.298  -9.089  0.00  0.00    -0.071 N 
HETATM   18  H           1     -35.717   0.501  -8.955  0.00  0.00     0.274 HD
HETATM   19  H           1     -35.921   2.038  -9.667  0.00  0.00     0.274 HD
HETATM   20  H           1     -36.640   1.694  -8.159  0.00  0.00     0.274 HD
ENDBRANCH  16  17
ENDBRANCH  13  16
ENDBRANCH   1  12
TORSDOF 8
ENDMDL
MODEL 2
REMARK VINA RESULT:      -5.5     13.741     15.747
REMARK  8 active torsions:
REMARK  status: ('A' for Active; 'I' for Inactive)
REMARK    1  A    between atoms: O_2  and  P_4 
REMARK    2  A    between atoms: C_3  and  C_7 
REMARK    3  A    between atoms: P_4  and  O_5 
REMARK    4  A    between atoms: O_5  and  C_6 
REMARK    5  A    between atoms: C_6  and  C_7 
REMARK    6  A    between atoms: C_7  and  N_10 
REMARK       I    between atoms: N_10  and  C_11 
REMARK    7  A    between atoms: C_11  and  C_12 
REMARK    8  A    between atoms: C_12  and  N_13 
ROOT
HETATM    1  C           1     -21.523  -4.808  -7.956  0.00  0.00     0.210 C 
ENDROOT
BRANCH   1   2
HETATM    2  C           1     -20.212  -4.532  -8.650  0.00  0.00     0.198 C 
HETATM    3  O           1     -20.122  -4.660  -9.890  0.00  0.00    -0.646 OA
HETATM    4  O           1     -19.216  -4.175  -7.985  0.00  0.00    -0.646 OA
ENDBRANCH   1   2
BRANCH   1   5
HETATM    5  C           1     -22.503  -3.681  -8.253  0.00  0.00     0.217 C 
BRANCH   5   6
HETATM    6  O           1     -23.655  -4.209  -8.854  0.00  0.00    -0.287 OA
BRANCH   6   7
HETATM    7  P           1     -23.787  -3.983 -10.448  0.00  0.00     0.406 P 
HETATM    8  O           1     -23.811  -5.296 -11.131  0.00  0.00    -0.624 OA
HETATM    9  O           1     -25.039  -3.251 -10.740  0.00  0.00    -0.624 OA
BRANCH   7  10
HETATM   10  O           1     -22.525  -3.124 -10.976  0.00  0.00    -0.300 OA
HETATM   11  H           1     -22.245  -2.620 -10.231  0.00  0.00     0.223 HD
ENDBRANCH   7  10
ENDBRANCH   6   7
ENDBRANCH   5   6
ENDBRANCH   1   5
BRANCH   1  12
HETATM   12  N           1     -21.302  -4.893  -6.525  0.00  0.00    -0.343 N 
HETATM   13  C           1     -21.180  -6.116  -5.923  0.00  0.00     0.243 C 
HETATM   14  O           1     -21.255  -7.125  -6.583  0.00  0.00    -0.272 OA
HETATM   15  H           1     -21.239  -4.049  -5.971  0.00  0.00     0.163 HD
BRANCH  13  16
HETATM   16  C           1     -20.951  -6.205  -4.434  0.00  0.00     0.332 C 
BRANCH  16  17
HETATM   17  N           1     -22.272  -6.216  -3.723  0.00  0.00    -0.071 N 
HETATM   18  H           1     -22.234  -6.893  -2.928  0.00  0.00     0.274 HD
HETATM   19  H           1     -22.478  -5.260  -3.357  0.00  0.00     0.274 HD
HETATM   20  H           1     -23.023  -6.503  -4.390  0.00  0.00     0.274 HD
ENDBRANCH  16  17
ENDBRANCH  13  16
ENDBRANCH   1  12
TORSDOF 8
ENDMDL
MODEL 3
REMARK VINA RESULT:      -5.2      2.717      5.142
REMARK  8 active torsions:
REMARK  status: ('A' for Active; 'I' for Inactive)
REMARK    1  A    between atoms: O_2  and  P_4 
REMARK    2  A    between atoms: C_3  and  C_7 
REMARK    3  A    between atoms: P_4  and  O_5 
REMARK    4  A    between atoms: O_5  and  C_6 
REMARK    5  A    between atoms: C_6  and  C_7 
REMARK    6  A    between atoms: C_7  and  N_10 
REMARK       I    between atoms: N_10  and  C_11 
REMARK    7  A    between atoms: C_11  and  C_12 
REMARK    8  A    between atoms: C_12  and  N_13 
ROOT
HETATM    1  C           1     -35.718  -1.377 -12.147  0.00  0.00     0.210 C 
ENDROOT
BRANCH   1   2
HETATM    2  C           1     -36.594  -0.868 -11.029  0.00  0.00     0.198 C 
HETATM    3  O           1     -36.084  -0.255 -10.065  0.00  0.00    -0.646 OA
HETATM    4  O           1     -37.828  -1.059 -11.066  0.00  0.00    -0.646 OA
ENDBRANCH   1   2
BRANCH   1   5
HETATM    5  C           1     -34.500  -2.079 -11.560  0.00  0.00     0.217 C 
BRANCH   5   6
HETATM    6  O           1     -34.906  -3.253 -10.910  0.00  0.00    -0.287 OA
BRANCH   6   7
HETATM    7  P           1     -34.313  -4.633 -11.506  0.00  0.00     0.406 P 
HETATM    8  O           1     -35.114  -5.047 -12.679  0.00  0.00    -0.624 OA
HETATM    9  O           1     -32.906  -4.429 -11.915  0.00  0.00    -0.624 OA
BRANCH   7  10
HETATM   10  O           1     -34.382  -5.781 -10.372  0.00  0.00    -0.300 OA
HETATM   11  H           1     -34.456  -6.590 -10.849  0.00  0.00     0.223 HD
ENDBRANCH   7  10
ENDBRANCH   6   7
ENDBRANCH   5   6
ENDBRANCH   1   5
BRANCH   1  12
HETATM   12  N           1     -35.284  -0.261 -12.965  0.00  0.00    -0.343 N 
HETATM   13  C           1     -35.845  -0.058 -14.197  0.00  0.00     0.243 C 
HETATM   14  O           1     -36.701  -0.808 -14.603  0.00  0.00    -0.272 OA
HETATM   15  H           1     -34.567   0.367 -12.627  0.00  0.00     0.163 HD
BRANCH  13  16
HETATM   16  C           1     -35.394   1.103 -15.050  0.00  0.00     0.332 C 
BRANCH  16  17
HETATM   17  N           1     -36.536   1.573 -15.902  0.00  0.00    -0.071 N 
HETATM   18  H           1     -37.426   1.146 -15.558  0.00  0.00     0.274 HD
HETATM   19  H           1     -36.606   2.614 -15.848  0.00  0.00     0.274 HD
HETATM   20  H           1     -36.373   1.285 -16.892  0.00  0.00     0.274 HD
ENDBRANCH  16  17
ENDBRANCH  13  16
ENDBRANCH   1  12
TORSDOF 8
ENDMDL
MODEL 4
REMARK VINA RESULT:      -4.9     13.860     16.257
REMARK  8 active torsions:
REMARK  status: ('A' for Active; 'I' for Inactive)
REMARK    1  A    between atoms: O_2  and  P_4 
REMARK    2  A    between atoms: C_3  and  C_7 
REMARK    3  A    between atoms: P_4  and  O_5 
REMARK    4  A    between atoms: O_5  and  C_6 
REMARK    5  A    between atoms: C_6  and  C_7 
REMARK    6  A    between atoms: C_7  and  N_10 
REMARK       I    between atoms: N_10  and  C_11 
REMARK    7  A    between atoms: C_11  and  C_12 
REMARK    8  A    between atoms: C_12  and  N_13 
ROOT
HETATM    1  C           1     -21.105  -3.908  -8.735  0.00  0.00     0.210 C 
ENDROOT
BRANCH   1   2
HETATM    2  C           1     -20.143  -4.924  -9.299  0.00  0.00     0.198 C 
HETATM    3  O           1     -19.828  -4.882 -10.508  0.00  0.00    -0.646 OA
HETATM    4  O           1     -19.661  -5.807  -8.558  0.00  0.00    -0.646 OA
ENDBRANCH   1   2
BRANCH   1   5
HETATM    5  C           1     -21.014  -3.910  -7.215  0.00  0.00     0.217 C 
BRANCH   5   6
HETATM    6  O           1     -22.086  -4.640  -6.683  0.00  0.00    -0.287 OA
BRANCH   6   7
HETATM    7  P           1     -21.694  -5.833  -5.666  0.00  0.00     0.406 P 
HETATM    8  O           1     -20.682  -5.347  -4.703  0.00  0.00    -0.624 OA
HETATM    9  O           1     -22.901  -6.274  -4.934  0.00  0.00    -0.624 OA
BRANCH   7  10
HETATM   10  O           1     -21.089  -7.075  -6.504  0.00  0.00    -0.300 OA
HETATM   11  H           1     -21.823  -7.433  -6.974  0.00  0.00     0.223 HD
ENDBRANCH   7  10
ENDBRANCH   6   7
ENDBRANCH   5   6
ENDBRANCH   1   5
BRANCH   1  12
HETATM   12  N           1     -22.457  -4.248  -9.139  0.00  0.00    -0.343 N 
HETATM   13  C           1     -22.998  -3.682 -10.262  0.00  0.00     0.243 C 
HETATM   14  O           1     -22.350  -2.901 -10.917  0.00  0.00    -0.272 OA
HETATM   15  H           1     -22.999  -4.902  -8.591  0.00  0.00     0.163 HD
BRANCH  13  16
HETATM   16  C           1     -24.404  -4.035 -10.682  0.00  0.00     0.332 C 
BRANCH  16  17
HETATM   17  N           1     -25.348  -3.771  -9.546  0.00  0.00    -0.071 N 
HETATM   18  H           1     -25.006  -4.261  -8.688  0.00  0.00     0.274 HD
HETATM   19  H           1     -25.394  -2.743  -9.365  0.00  0.00     0.274 HD
HETATM   20  H           1     -26.298  -4.125  -9.794  0.00  0.00     0.274 HD
ENDBRANCH  16  17
ENDBRANCH  13  16
ENDBRANCH   1  12
TORSDOF 8
ENDMDL
MODEL 5
REMARK VINA RESULT:      -4.8     26.207     27.382
REMARK  8 active torsions:
REMARK  status: ('A' for Active; 'I' for Inactive)
REMARK    1  A    between atoms: O_2  and  P_4 
REMARK    2  A    between atoms: C_3  and  C_7 
REMARK    3  A    between atoms: P_4  and  O_5 
REMARK    4  A    between atoms: O_5  and  C_6 
REMARK    5  A    between atoms: C_6  and  C_7 
REMARK    6  A    between atoms: C_7  and  N_10 
REMARK       I    between atoms: N_10  and  C_11 
REMARK    7  A    between atoms: C_11  and  C_12 
REMARK    8  A    between atoms: C_12  and  N_13 
ROOT
HETATM    1  C           1     -10.424   5.523 -20.729  0.00  0.00     0.210 C 
ENDROOT
BRANCH   1   2
HETATM    2  C           1     -10.708   5.383 -19.254  0.00  0.00     0.198 C 
HETATM    3  O           1      -9.818   5.654 -18.418  0.00  0.00    -0.646 OA
HETATM    4  O           1     -11.831   4.997 -18.867  0.00  0.00    -0.646 OA
ENDBRANCH   1   2
BRANCH   1   5
HETATM    5  C           1     -10.013   6.957 -21.035  0.00  0.00     0.217 C 
BRANCH   5   6
HETATM    6  O           1     -11.072   7.823 -20.729  0.00  0.00    -0.287 OA
BRANCH   6   7
HETATM    7  P           1     -10.696   9.113 -19.833  0.00  0.00     0.406 P 
HETATM    8  O           1      -9.560   9.830 -20.453  0.00  0.00    -0.624 OA
HETATM    9  O           1     -11.865  10.016 -19.753  0.00  0.00    -0.624 OA
BRANCH   7  10
HETATM   10  O           1     -10.285   8.633 -18.346  0.00  0.00    -0.300 OA
HETATM   11  H           1      -9.349   8.734 -18.308  0.00  0.00     0.223 HD
ENDBRANCH   7  10
ENDBRANCH   6   7
ENDBRANCH   5   6
ENDBRANCH   1   5
BRANCH   1  12
HETATM   12  N           1     -11.618   5.192 -21.483  0.00  0.00    -0.343 N 
HETATM   13  C           1     -11.735   3.962 -22.074  0.00  0.00     0.243 C 
HETATM   14  O           1     -10.844   3.153 -21.967  0.00  0.00    -0.272 OA
HETATM   15  H           1     -12.364   5.869 -21.573  0.00  0.00     0.163 HD
BRANCH  13  16
HETATM   16  C           1     -12.977   3.617 -22.859  0.00  0.00     0.332 C 
BRANCH  16  17
HETATM   17  N           1     -14.150   4.362 -22.293  0.00  0.00    -0.071 N 
HETATM   18  H           1     -15.005   3.764 -22.354  0.00  0.00     0.274 HD
HETATM   19  H           1     -13.962   4.599 -21.293  0.00  0.00     0.274 HD
HETATM   20  H           1     -14.300   5.240 -22.837  0.00  0.00     0.274 HD
ENDBRANCH  16  17
ENDBRANCH  13  16
ENDBRANCH   1  12
TORSDOF 8
ENDMDL
MODEL 6
REMARK VINA RESULT:      -4.8     25.238     26.219
REMARK  8 active torsions:
REMARK  status: ('A' for Active; 'I' for Inactive)
REMARK    1  A    between atoms: O_2  and  P_4 
REMARK    2  A    between atoms: C_3  and  C_7 
REMARK    3  A    between atoms: P_4  and  O_5 
REMARK    4  A    between atoms: O_5  and  C_6 
REMARK    5  A    between atoms: C_6  and  C_7 
REMARK    6  A    between atoms: C_7  and  N_10 
REMARK       I    between atoms: N_10  and  C_11 
REMARK    7  A    between atoms: C_11  and  C_12 
REMARK    8  A    between atoms: C_12  and  N_13 
ROOT
HETATM    1  C           1     -11.260   6.370 -20.117  0.00  0.00     0.210 C 
ENDROOT
BRANCH   1   2
HETATM    2  C           1      -9.892   6.089 -19.545  0.00  0.00     0.198 C 
HETATM    3  O           1      -8.875   6.234 -20.257  0.00  0.00    -0.646 OA
HETATM    4  O           1      -9.777   5.711 -18.360  0.00  0.00    -0.646 OA
ENDBRANCH   1   2
BRANCH   1   5
HETATM    5  C           1     -11.451   5.567 -21.397  0.00  0.00     0.217 C 
BRANCH   5   6
HETATM    6  O           1     -12.488   4.640 -21.218  0.00  0.00    -0.287 OA
BRANCH   6   7
HETATM    7  P           1     -13.988   5.215 -21.382  0.00  0.00     0.406 P 
HETATM    8  O           1     -13.946   6.498 -22.118  0.00  0.00    -0.624 OA
HETATM    9  O           1     -14.810   4.241 -22.134  0.00  0.00    -0.624 OA
BRANCH   7  10
HETATM   10  O           1     -14.636   5.452 -19.921  0.00  0.00    -0.300 OA
HETATM   11  H           1     -14.411   4.682 -19.427  0.00  0.00     0.223 HD
ENDBRANCH   7  10
ENDBRANCH   6   7
ENDBRANCH   5   6
ENDBRANCH   1   5
BRANCH   1  12
HETATM   12  N           1     -11.377   7.785 -20.413  0.00  0.00    -0.343 N 
HETATM   13  C           1     -12.382   8.521 -19.845  0.00  0.00     0.243 C 
HETATM   14  O           1     -13.171   7.993 -19.098  0.00  0.00    -0.272 OA
HETATM   15  H           1     -10.717   8.229 -21.038  0.00  0.00     0.163 HD
BRANCH  13  16
HETATM   16  C           1     -12.504   9.994 -20.152  0.00  0.00     0.332 C 
BRANCH  16  17
HETATM   17  N           1     -13.467  10.628 -19.191  0.00  0.00    -0.071 N 
HETATM   18  H           1     -14.444  10.495 -19.537  0.00  0.00     0.274 HD
HETATM   19  H           1     -13.366  10.180 -18.252  0.00  0.00     0.274 HD
HETATM   20  H           1     -13.260  11.649 -19.114  0.00  0.00     0.274 HD
ENDBRANCH  16  17
ENDBRANCH  13  16
ENDBRANCH   1  12
TORSDOF 8
ENDMDL
MODEL 7
REMARK VINA RESULT:      -4.5     16.509     18.318
REMARK  8 active torsions:
REMARK  status: ('A' for Active; 'I' for Inactive)
REMARK    1  A    between atoms: O_2  and  P_4 
REMARK    2  A    between atoms: C_3  and  C_7 
REMARK    3  A    between atoms: P_4  and  O_5 
REMARK    4  A    between atoms: O_5  and  C_6 
REMARK    5  A    between atoms: C_6  and  C_7 
REMARK    6  A    between atoms: C_7  and  N_10 
REMARK       I    between atoms: N_10  and  C_11 
REMARK    7  A    between atoms: C_11  and  C_12 
REMARK    8  A    between atoms: C_12  and  N_13 
ROOT
HETATM    1  C           1     -21.181  -6.038  -5.392  0.00  0.00     0.210 C 
ENDROOT
BRANCH   1   2
HETATM    2  C           1     -20.570  -7.319  -5.905  0.00  0.00     0.198 C 
HETATM    3  O           1     -21.186  -8.399  -5.779  0.00  0.00    -0.646 OA
HETATM    4  O           1     -19.448  -7.300  -6.455  0.00  0.00    -0.646 OA
ENDBRANCH   1   2
BRANCH   1   5
HETATM    5  C           1     -22.035  -6.336  -4.168  0.00  0.00     0.217 C 
BRANCH   5   6
HETATM    6  O           1     -21.229  -6.327  -3.021  0.00  0.00    -0.287 OA
BRANCH   6   7
HETATM    7  P           1     -21.365  -7.610  -2.049  0.00  0.00     0.406 P 
HETATM    8  O           1     -20.056  -7.891  -1.418  0.00  0.00    -0.624 OA
HETATM    9  O           1     -22.369  -7.330  -1.000  0.00  0.00    -0.624 OA
BRANCH   7  10
HETATM   10  O           1     -21.833  -8.892  -2.914  0.00  0.00    -0.300 OA
HETATM   11  H           1     -21.718  -9.629  -2.339  0.00  0.00     0.223 HD
ENDBRANCH   7  10
ENDBRANCH   6   7
ENDBRANCH   5   6
ENDBRANCH   1   5
BRANCH   1  12
HETATM   12  N           1     -22.009  -5.451  -6.428  0.00  0.00    -0.343 N 
HETATM   13  C           1     -21.532  -4.409  -7.176  0.00  0.00     0.243 C 
HETATM   14  O           1     -20.421  -3.978  -6.974  0.00  0.00    -0.272 OA
HETATM   15  H           1     -22.939  -5.810  -6.598  0.00  0.00     0.163 HD
BRANCH  13  16
HETATM   16  C           1     -22.393  -3.797  -8.254  0.00  0.00     0.332 C 
BRANCH  16  17
HETATM   17  N           1     -23.835  -4.105  -7.978  0.00  0.00    -0.071 N 
HETATM   18  H           1     -24.274  -3.301  -7.475  0.00  0.00     0.274 HD
HETATM   19  H           1     -24.335  -4.265  -8.882  0.00  0.00     0.274 HD
HETATM   20  H           1     -23.901  -4.963  -7.387  0.00  0.00     0.274 HD
ENDBRANCH  16  17
ENDBRANCH  13  16
ENDBRANCH   1  12
TORSDOF 8
ENDMDL
MODEL 8
REMARK VINA RESULT:      -4.4     17.938     19.621
REMARK  8 active torsions:
REMARK  status: ('A' for Active; 'I' for Inactive)
REMARK    1  A    between atoms: O_2  and  P_4 
REMARK    2  A    between atoms: C_3  and  C_7 
REMARK    3  A    between atoms: P_4  and  O_5 
REMARK    4  A    between atoms: O_5  and  C_6 
REMARK    5  A    between atoms: C_6  and  C_7 
REMARK    6  A    between atoms: C_7  and  N_10 
REMARK       I    between atoms: N_10  and  C_11 
REMARK    7  A    between atoms: C_11  and  C_12 
REMARK    8  A    between atoms: C_12  and  N_13 
ROOT
HETATM    1  C           1     -21.247  -7.833  -2.273  0.00  0.00     0.210 C 
ENDROOT
BRANCH   1   2
HETATM    2  C           1     -22.153  -6.781  -1.683  0.00  0.00     0.198 C 
HETATM    3  O           1     -22.730  -6.992  -0.595  0.00  0.00    -0.646 OA
HETATM    4  O           1     -22.325  -5.698  -2.282  0.00  0.00    -0.646 OA
ENDBRANCH   1   2
BRANCH   1   5
HETATM    5  C           1     -21.560  -8.002  -3.754  0.00  0.00     0.217 C 
BRANCH   5   6
HETATM    6  O           1     -20.570  -7.369  -4.517  0.00  0.00    -0.287 OA
BRANCH   6   7
HETATM    7  P           1     -21.085  -6.232  -5.542  0.00  0.00     0.406 P 
HETATM    8  O           1     -20.311  -4.988  -5.329  0.00  0.00    -0.624 OA
HETATM    9  O           1     -20.895  -6.699  -6.933  0.00  0.00    -0.624 OA
BRANCH   7  10
HETATM   10  O           1     -22.653  -5.943  -5.281  0.00  0.00    -0.300 OA
HETATM   11  H           1     -22.753  -5.976  -4.345  0.00  0.00     0.223 HD
ENDBRANCH   7  10
ENDBRANCH   6   7
ENDBRANCH   5   6
ENDBRANCH   1   5
BRANCH   1  12
HETATM   12  N           1     -21.461  -9.093  -1.587  0.00  0.00    -0.343 N 
HETATM   13  C           1     -20.435  -9.992  -1.472  0.00  0.00     0.243 C 
HETATM   14  O           1     -19.351  -9.736  -1.942  0.00  0.00    -0.272 OA
HETATM   15  H           1     -22.367  -9.308  -1.194  0.00  0.00     0.163 HD
BRANCH  13  16
HETATM   16  C           1     -20.656 -11.303  -0.758  0.00  0.00     0.332 C 
BRANCH  16  17
HETATM   17  N           1     -20.878 -11.047   0.703  0.00  0.00    -0.071 N 
HETATM   18  H           1     -21.709 -10.425   0.826  0.00  0.00     0.274 HD
HETATM   19  H           1     -21.048 -11.954   1.193  0.00  0.00     0.274 HD
HETATM   20  H           1     -20.034 -10.584   1.107  0.00  0.00     0.274 HD
ENDBRANCH  16  17
ENDBRANCH  13  16
ENDBRANCH   1  12
TORSDOF 8
ENDMDL
MODEL 9
REMARK VINA RESULT:      -4.3     25.550     26.775
REMARK  8 active torsions:
REMARK  status: ('A' for Active; 'I' for Inactive)
REMARK    1  A    between atoms: O_2  and  P_4 
REMARK    2  A    between atoms: C_3  and  C_7 
REMARK    3  A    between atoms: P_4  and  O_5 
REMARK    4  A    between atoms: O_5  and  C_6 
REMARK    5  A    between atoms: C_6  and  C_7 
REMARK    6  A    between atoms: C_7  and  N_10 
REMARK       I    between atoms: N_10  and  C_11 
REMARK    7  A    between atoms: C_11  and  C_12 
REMARK    8  A    between atoms: C_12  and  N_13 
ROOT
HETATM    1  C           1     -12.888   6.424 -21.031  0.00  0.00     0.210 C 
ENDROOT
BRANCH   1   2
HETATM    2  C           1     -14.176   6.085 -21.739  0.00  0.00     0.198 C 
HETATM    3  O           1     -14.461   6.644 -22.820  0.00  0.00    -0.646 OA
HETATM    4  O           1     -14.959   5.247 -21.244  0.00  0.00    -0.646 OA
ENDBRANCH   1   2
BRANCH   1   5
HETATM    5  C           1     -12.233   7.620 -21.710  0.00  0.00     0.217 C 
BRANCH   5   6
HETATM    6  O           1     -10.903   7.731 -21.282  0.00  0.00    -0.287 OA
BRANCH   6   7
HETATM    7  P           1     -10.640   8.732 -20.041  0.00  0.00     0.406 P 
HETATM    8  O           1     -11.866   9.514 -19.771  0.00  0.00    -0.624 OA
HETATM    9  O           1     -10.280   7.946 -18.841  0.00  0.00    -0.624 OA
BRANCH   7  10
HETATM   10  O           1      -9.429   9.737 -20.409  0.00  0.00    -0.300 OA
HETATM   11  H           1      -9.701  10.164 -21.204  0.00  0.00     0.223 HD
ENDBRANCH   7  10
ENDBRANCH   6   7
ENDBRANCH   5   6
ENDBRANCH   1   5
BRANCH   1  12
HETATM   12  N           1     -11.992   5.285 -21.089  0.00  0.00    -0.343 N 
HETATM   13  C           1     -11.656   4.620 -19.941  0.00  0.00     0.243 C 
HETATM   14  O           1     -12.106   4.981 -18.879  0.00  0.00    -0.272 OA
HETATM   15  H           1     -11.614   4.982 -21.977  0.00  0.00     0.163 HD
BRANCH  13  16
HETATM   16  C           1     -10.724   3.434 -20.000  0.00  0.00     0.332 C 
BRANCH  16  17
HETATM   17  N           1     -11.335   2.358 -20.848  0.00  0.00    -0.071 N 
HETATM   18  H           1     -10.579   1.756 -21.246  0.00  0.00     0.274 HD
HETATM   19  H           1     -11.973   1.774 -20.261  0.00  0.00     0.274 HD
HETATM   20  H           1     -11.878   2.794 -21.626  0.00  0.00     0.274 HD
ENDBRANCH  16  17
ENDBRANCH  13  16
ENDBRANCH   1  12
TORSDOF 8
ENDMDL
