MODEL 1
REMARK VINA RESULT:      -6.2      0.000      0.000
REMARK  10 active torsions:
REMARK  status: ('A' for Active; 'I' for Inactive)
REMARK       I    between atoms: N_6  and  C_23 
REMARK    1  A    between atoms: C_7  and  C_20 
REMARK    2  A    between atoms: C_7  and  C_22 
REMARK    3  A    between atoms: Se_10  and  C_20 
REMARK    4  A    between atoms: N_13  and  C_15 
REMARK    5  A    between atoms: C_14  and  C_15 
REMARK    6  A    between atoms: C_14  and  C_24 
REMARK    7  A    between atoms: C_15  and  C_16 
REMARK       I    between atoms: C_16  and  N_17 
REMARK    8  A    between atoms: N_17  and  C_22 
REMARK    9  A    between atoms: C_18  and  C_22 
REMARK   10  A    between atoms: C_23  and  C_24 
ROOT
HETATM    1  C           1     -33.372  -2.429 -11.393  0.00  0.00     0.275 C 
ENDROOT
BRANCH   1   2
HETATM    2  N           1     -33.780  -2.111  -9.985  0.00  0.00    -0.066 N 
HETATM    3  H           1     -34.375  -1.251  -9.980  0.00  0.00     0.275 HD
HETATM    4  H           1     -34.322  -2.913  -9.591  0.00  0.00     0.275 HD
HETATM    5  H           1     -32.927  -1.947  -9.404  0.00  0.00     0.275 HD
ENDBRANCH   1   2
BRANCH   1   6
HETATM    6  C           1     -33.058  -3.916 -11.505  0.00  0.00     0.052 C 
BRANCH   6   7
HETATM    7  C           1     -33.971  -4.699 -10.570  0.00  0.00     0.105 C 
BRANCH   7   8
HETATM    8  C           1     -34.490  -5.923 -11.283  0.00  0.00     0.215 C 
HETATM    9  N           1     -34.828  -5.852 -12.608  0.00  0.00    -0.370 N 
HETATM   10  H           1     -35.176  -6.673 -13.087  0.00  0.00     0.159 HD
HETATM   11  H           1     -34.728  -4.978 -13.109  0.00  0.00     0.159 HD
HETATM   12  O           1     -34.609  -6.967 -10.685  0.00  0.00    -0.274 OA
ENDBRANCH   7   8
ENDBRANCH   6   7
ENDBRANCH   1   6
BRANCH   1  13
HETATM   13  C           1     -34.499  -2.078 -12.334  0.00  0.00     0.249 C 
HETATM   14  O           1     -34.712  -2.766 -13.303  0.00  0.00    -0.271 OA
HETATM   15  N           1     -35.279  -0.981 -12.088  0.00  0.00    -0.345 N 
HETATM   16  H           1     -35.100  -0.404 -11.276  0.00  0.00     0.163 HD
BRANCH  15  17
HETATM   17  C           1     -36.361  -0.644 -12.992  0.00  0.00     0.185 C 
BRANCH  17  18
HETATM   18  C           1     -37.538  -0.100 -12.194  0.00  0.00     0.036 C 
BRANCH  18  19
HETATM   19  C           1     -37.453  -0.598 -10.758  0.00  0.00     0.003 C 
BRANCH  19  20
HETATM   20 Se           1     -37.412   0.925  -9.542  0.00  0.00     0.000 Se
HETATM   21  C           1     -37.638  -0.147  -7.930  0.00  0.00     0.000 C 
ENDBRANCH  19  20
ENDBRANCH  18  19
ENDBRANCH  17  18
BRANCH  17  22
HETATM   22  C           1     -35.890   0.402 -13.973  0.00  0.00     0.196 C 
HETATM   23  O           1     -34.950   1.167 -13.667  0.00  0.00    -0.646 OA
HETATM   24  O           1     -36.442   0.505 -15.090  0.00  0.00    -0.646 OA
ENDBRANCH  17  22
ENDBRANCH  15  17
ENDBRANCH   1  13
TORSDOF 10
ENDMDL
MODEL 2
REMARK VINA RESULT:      -6.0     10.038     11.823
REMARK  10 active torsions:
REMARK  status: ('A' for Active; 'I' for Inactive)
REMARK       I    between atoms: N_6  and  C_23 
REMARK    1  A    between atoms: C_7  and  C_20 
REMARK    2  A    between atoms: C_7  and  C_22 
REMARK    3  A    between atoms: Se_10  and  C_20 
REMARK    4  A    between atoms: N_13  and  C_15 
REMARK    5  A    between atoms: C_14  and  C_15 
REMARK    6  A    between atoms: C_14  and  C_24 
REMARK    7  A    between atoms: C_15  and  C_16 
REMARK       I    between atoms: C_16  and  N_17 
REMARK    8  A    between atoms: N_17  and  C_22 
REMARK    9  A    between atoms: C_18  and  C_22 
REMARK   10  A    between atoms: C_23  and  C_24 
ROOT
HETATM    1  C           1     -25.214  -6.630 -19.509  0.00  0.00     0.275 C 
ENDROOT
BRANCH   1   2
HETATM    2  N           1     -24.367  -7.862 -19.630  0.00  0.00    -0.066 N 
HETATM    3  H           1     -23.764  -7.956 -18.782  0.00  0.00     0.275 HD
HETATM    4  H           1     -24.985  -8.701 -19.713  0.00  0.00     0.275 HD
HETATM    5  H           1     -23.764  -7.788 -20.480  0.00  0.00     0.275 HD
ENDBRANCH   1   2
BRANCH   1   6
HETATM    6  C           1     -26.428  -6.758 -20.421  0.00  0.00     0.052 C 
BRANCH   6   7
HETATM    7  C           1     -26.435  -8.138 -21.066  0.00  0.00     0.105 C 
BRANCH   7   8
HETATM    8  C           1     -27.795  -8.767 -20.893  0.00  0.00     0.215 C 
HETATM    9  N           1     -28.630  -8.330 -19.899  0.00  0.00    -0.370 N 
HETATM   10  H           1     -29.542  -8.751 -19.782  0.00  0.00     0.159 HD
HETATM   11  H           1     -28.334  -7.585 -19.281  0.00  0.00     0.159 HD
HETATM   12  O           1     -28.149  -9.657 -21.630  0.00  0.00    -0.274 OA
ENDBRANCH   7   8
ENDBRANCH   6   7
ENDBRANCH   1   6
BRANCH   1  13
HETATM   13  C           1     -25.672  -6.474 -18.079  0.00  0.00     0.249 C 
HETATM   14  O           1     -24.894  -6.656 -17.173  0.00  0.00    -0.271 OA
HETATM   15  N           1     -26.968  -6.127 -17.809  0.00  0.00    -0.345 N 
HETATM   16  H           1     -27.619  -5.974 -18.568  0.00  0.00     0.163 HD
BRANCH  15  17
HETATM   17  C           1     -27.407  -5.978 -16.435  0.00  0.00     0.185 C 
BRANCH  17  18
HETATM   18  C           1     -28.351  -4.788 -16.331  0.00  0.00     0.036 C 
BRANCH  18  19
HETATM   19  C           1     -28.725  -4.310 -17.727  0.00  0.00     0.003 C 
BRANCH  19  20
HETATM   20 Se           1     -30.546  -3.616 -17.712  0.00  0.00     0.000 Se
HETATM   21  C           1     -31.235  -4.989 -16.513  0.00  0.00     0.000 C 
ENDBRANCH  19  20
ENDBRANCH  18  19
ENDBRANCH  17  18
BRANCH  17  22
HETATM   22  C           1     -28.124  -7.231 -15.998  0.00  0.00     0.196 C 
HETATM   23  O           1     -28.946  -7.781 -16.763  0.00  0.00    -0.646 OA
HETATM   24  O           1     -27.899  -7.719 -14.869  0.00  0.00    -0.646 OA
ENDBRANCH  17  22
ENDBRANCH  15  17
ENDBRANCH   1  13
TORSDOF 10
ENDMDL
MODEL 3
REMARK VINA RESULT:      -6.0     11.790     13.599
REMARK  10 active torsions:
REMARK  status: ('A' for Active; 'I' for Inactive)
REMARK       I    between atoms: N_6  and  C_23 
REMARK    1  A    between atoms: C_7  and  C_20 
REMARK    2  A    between atoms: C_7  and  C_22 
REMARK    3  A    between atoms: Se_10  and  C_20 
REMARK    4  A    between atoms: N_13  and  C_15 
REMARK    5  A    between atoms: C_14  and  C_15 
REMARK    6  A    between atoms: C_14  and  C_24 
REMARK    7  A    between atoms: C_15  and  C_16 
REMARK       I    between atoms: C_16  and  N_17 
REMARK    8  A    between atoms: N_17  and  C_22 
REMARK    9  A    between atoms: C_18  and  C_22 
REMARK   10  A    between atoms: C_23  and  C_24 
ROOT
HETATM    1  C           1     -25.291  -7.620 -20.262  0.00  0.00     0.275 C 
ENDROOT
BRANCH   1   2
HETATM    2  N           1     -26.716  -7.786 -20.700  0.00  0.00    -0.066 N 
HETATM    3  H           1     -27.227  -6.882 -20.580  0.00  0.00     0.275 HD
HETATM    4  H           1     -26.740  -8.068 -21.707  0.00  0.00     0.275 HD
HETATM    5  H           1     -27.175  -8.524 -20.121  0.00  0.00     0.275 HD
ENDBRANCH   1   2
BRANCH   1   6
HETATM    6  C           1     -24.532  -6.811 -21.306  0.00  0.00     0.052 C 
BRANCH   6   7
HETATM    7  C           1     -24.131  -7.721 -22.460  0.00  0.00     0.105 C 
BRANCH   7   8
HETATM    8  C           1     -22.924  -8.535 -22.063  0.00  0.00     0.215 C 
HETATM    9  N           1     -22.558  -9.624 -22.807  0.00  0.00    -0.370 N 
HETATM   10  H           1     -21.750 -10.171 -22.541  0.00  0.00     0.159 HD
HETATM   11  H           1     -23.098  -9.883 -23.625  0.00  0.00     0.159 HD
HETATM   12  O           1     -22.281  -8.227 -21.088  0.00  0.00    -0.274 OA
ENDBRANCH   7   8
ENDBRANCH   6   7
ENDBRANCH   1   6
BRANCH   1  13
HETATM   13  C           1     -25.254  -6.896 -18.938  0.00  0.00     0.249 C 
HETATM   14  O           1     -24.199  -6.525 -18.482  0.00  0.00    -0.271 OA
HETATM   15  N           1     -26.416  -6.662 -18.254  0.00  0.00    -0.345 N 
HETATM   16  H           1     -27.300  -6.974 -18.635  0.00  0.00     0.163 HD
BRANCH  15  17
HETATM   17  C           1     -26.380  -5.968 -16.981  0.00  0.00     0.185 C 
BRANCH  17  18
HETATM   18  C           1     -27.617  -5.089 -16.848  0.00  0.00     0.036 C 
BRANCH  18  19
HETATM   19  C           1     -28.522  -5.299 -18.054  0.00  0.00     0.003 C 
BRANCH  19  20
HETATM   20 Se           1     -30.217  -6.065 -17.469  0.00  0.00     0.000 Se
HETATM   21  C           1     -29.954  -7.763 -18.389  0.00  0.00     0.000 C 
ENDBRANCH  19  20
ENDBRANCH  18  19
ENDBRANCH  17  18
BRANCH  17  22
HETATM   22  C           1     -26.354  -6.975 -15.859  0.00  0.00     0.196 C 
HETATM   23  O           1     -25.260  -7.374 -15.402  0.00  0.00    -0.646 OA
HETATM   24  O           1     -27.425  -7.413 -15.386  0.00  0.00    -0.646 OA
ENDBRANCH  17  22
ENDBRANCH  15  17
ENDBRANCH   1  13
TORSDOF 10
ENDMDL
MODEL 4
REMARK VINA RESULT:      -5.7     10.065     11.771
REMARK  10 active torsions:
REMARK  status: ('A' for Active; 'I' for Inactive)
REMARK       I    between atoms: N_6  and  C_23 
REMARK    1  A    between atoms: C_7  and  C_20 
REMARK    2  A    between atoms: C_7  and  C_22 
REMARK    3  A    between atoms: Se_10  and  C_20 
REMARK    4  A    between atoms: N_13  and  C_15 
REMARK    5  A    between atoms: C_14  and  C_15 
REMARK    6  A    between atoms: C_14  and  C_24 
REMARK    7  A    between atoms: C_15  and  C_16 
REMARK       I    between atoms: C_16  and  N_17 
REMARK    8  A    between atoms: N_17  and  C_22 
REMARK    9  A    between atoms: C_18  and  C_22 
REMARK   10  A    between atoms: C_23  and  C_24 
ROOT
HETATM    1  C           1     -25.092  -6.775 -17.056  0.00  0.00     0.275 C 
ENDROOT
BRANCH   1   2
HETATM    2  N           1     -24.149  -7.880 -16.683  0.00  0.00    -0.066 N 
HETATM    3  H           1     -24.053  -8.543 -17.486  0.00  0.00     0.275 HD
HETATM    4  H           1     -23.212  -7.475 -16.453  0.00  0.00     0.275 HD
HETATM    5  H           1     -24.521  -8.391 -15.852  0.00  0.00     0.275 HD
ENDBRANCH   1   2
BRANCH   1   6
HETATM    6  C           1     -25.283  -6.760 -18.567  0.00  0.00     0.052 C 
BRANCH   6   7
HETATM    7  C           1     -23.981  -7.166 -19.248  0.00  0.00     0.105 C 
BRANCH   7   8
HETATM    8  C           1     -24.291  -7.944 -20.503  0.00  0.00     0.215 C 
HETATM    9  N           1     -23.323  -8.716 -21.087  0.00  0.00    -0.370 N 
HETATM   10  H           1     -23.530  -9.238 -21.928  0.00  0.00     0.159 HD
HETATM   11  H           1     -22.399  -8.765 -20.675  0.00  0.00     0.159 HD
HETATM   12  O           1     -25.393  -7.885 -20.994  0.00  0.00    -0.274 OA
ENDBRANCH   7   8
ENDBRANCH   6   7
ENDBRANCH   1   6
BRANCH   1  13
HETATM   13  C           1     -26.422  -7.001 -16.381  0.00  0.00     0.249 C 
HETATM   14  O           1     -26.461  -7.424 -15.250  0.00  0.00    -0.271 OA
HETATM   15  N           1     -27.584  -6.727 -17.050  0.00  0.00    -0.345 N 
HETATM   16  H           1     -27.551  -6.373 -17.997  0.00  0.00     0.163 HD
BRANCH  15  17
HETATM   17  C           1     -28.862  -6.945 -16.402  0.00  0.00     0.185 C 
BRANCH  17  18
HETATM   18  C           1     -29.389  -5.622 -15.861  0.00  0.00     0.036 C 
BRANCH  18  19
HETATM   19  C           1     -28.674  -4.470 -16.552  0.00  0.00     0.003 C 
BRANCH  19  20
HETATM   20 Se           1     -29.617  -4.012 -18.197  0.00  0.00     0.000 Se
HETATM   21  C           1     -31.349  -3.783 -17.334  0.00  0.00     0.000 C 
ENDBRANCH  19  20
ENDBRANCH  18  19
ENDBRANCH  17  18
BRANCH  17  22
HETATM   22  C           1     -29.844  -7.509 -17.400  0.00  0.00     0.196 C 
HETATM   23  O           1     -29.445  -8.276 -18.303  0.00  0.00    -0.646 OA
HETATM   24  O           1     -31.055  -7.207 -17.324  0.00  0.00    -0.646 OA
ENDBRANCH  17  22
ENDBRANCH  15  17
ENDBRANCH   1  13
TORSDOF 10
ENDMDL
MODEL 5
REMARK VINA RESULT:      -5.5     13.684     16.075
REMARK  10 active torsions:
REMARK  status: ('A' for Active; 'I' for Inactive)
REMARK       I    between atoms: N_6  and  C_23 
REMARK    1  A    between atoms: C_7  and  C_20 
REMARK    2  A    between atoms: C_7  and  C_22 
REMARK    3  A    between atoms: Se_10  and  C_20 
REMARK    4  A    between atoms: N_13  and  C_15 
REMARK    5  A    between atoms: C_14  and  C_15 
REMARK    6  A    between atoms: C_14  and  C_24 
REMARK    7  A    between atoms: C_15  and  C_16 
REMARK       I    between atoms: C_16  and  N_17 
REMARK    8  A    between atoms: N_17  and  C_22 
REMARK    9  A    between atoms: C_18  and  C_22 
REMARK   10  A    between atoms: C_23  and  C_24 
ROOT
HETATM    1  C           1     -21.142  -3.817  -7.796  0.00  0.00     0.275 C 
ENDROOT
BRANCH   1   2
HETATM    2  N           1     -20.235  -4.035  -8.972  0.00  0.00    -0.066 N 
HETATM    3  H           1     -20.762  -4.520  -9.733  0.00  0.00     0.275 HD
HETATM    4  H           1     -19.889  -3.112  -9.320  0.00  0.00     0.275 HD
HETATM    5  H           1     -19.423  -4.624  -8.681  0.00  0.00     0.275 HD
ENDBRANCH   1   2
BRANCH   1   6
HETATM    6  C           1     -22.563  -4.218  -8.171  0.00  0.00     0.052 C 
BRANCH   6   7
HETATM    7  C           1     -22.734  -4.127  -9.683  0.00  0.00     0.105 C 
BRANCH   7   8
HETATM    8  C           1     -24.148  -3.709 -10.004  0.00  0.00     0.215 C 
HETATM    9  N           1     -24.944  -3.180  -9.024  0.00  0.00    -0.370 N 
HETATM   10  H           1     -25.892  -2.899  -9.239  0.00  0.00     0.159 HD
HETATM   11  H           1     -24.584  -3.069  -8.084  0.00  0.00     0.159 HD
HETATM   12  O           1     -24.578  -3.841 -11.125  0.00  0.00    -0.274 OA
ENDBRANCH   7   8
ENDBRANCH   6   7
ENDBRANCH   1   6
BRANCH   1  13
HETATM   13  C           1     -20.670  -4.658  -6.635  0.00  0.00     0.249 C 
HETATM   14  O           1     -19.597  -4.436  -6.125  0.00  0.00    -0.271 OA
HETATM   15  N           1     -21.456  -5.673  -6.161  0.00  0.00    -0.345 N 
HETATM   16  H           1     -22.354  -5.859  -6.589  0.00  0.00     0.163 HD
BRANCH  15  17
HETATM   17  C           1     -21.002  -6.481  -5.046  0.00  0.00     0.185 C 
BRANCH  17  18
HETATM   18  C           1     -22.156  -6.703  -4.078  0.00  0.00     0.036 C 
BRANCH  18  19
HETATM   19  C           1     -21.725  -6.308  -2.673  0.00  0.00     0.003 C 
BRANCH  19  20
HETATM   20 Se           1     -21.117  -7.891  -1.710  0.00  0.00     0.000 Se
HETATM   21  C           1     -22.336  -7.647  -0.209  0.00  0.00     0.000 C 
ENDBRANCH  19  20
ENDBRANCH  18  19
ENDBRANCH  17  18
BRANCH  17  22
HETATM   22  C           1     -20.509  -7.812  -5.557  0.00  0.00     0.196 C 
HETATM   23  O           1     -19.318  -7.941  -5.917  0.00  0.00    -0.646 OA
HETATM   24  O           1     -21.291  -8.785  -5.623  0.00  0.00    -0.646 OA
ENDBRANCH  17  22
ENDBRANCH  15  17
ENDBRANCH   1  13
TORSDOF 10
ENDMDL
MODEL 6
REMARK VINA RESULT:      -5.5     14.374     16.473
REMARK  10 active torsions:
REMARK  status: ('A' for Active; 'I' for Inactive)
REMARK       I    between atoms: N_6  and  C_23 
REMARK    1  A    between atoms: C_7  and  C_20 
REMARK    2  A    between atoms: C_7  and  C_22 
REMARK    3  A    between atoms: Se_10  and  C_20 
REMARK    4  A    between atoms: N_13  and  C_15 
REMARK    5  A    between atoms: C_14  and  C_15 
REMARK    6  A    between atoms: C_14  and  C_24 
REMARK    7  A    between atoms: C_15  and  C_16 
REMARK       I    between atoms: C_16  and  N_17 
REMARK    8  A    between atoms: N_17  and  C_22 
REMARK    9  A    between atoms: C_18  and  C_22 
REMARK   10  A    between atoms: C_23  and  C_24 
ROOT
HETATM    1  C           1     -21.605  -4.747  -8.355  0.00  0.00     0.275 C 
ENDROOT
BRANCH   1   2
HETATM    2  N           1     -22.824  -3.924  -8.058  0.00  0.00    -0.066 N 
HETATM    3  H           1     -23.537  -4.518  -7.577  0.00  0.00     0.275 HD
HETATM    4  H           1     -22.561  -3.125  -7.437  0.00  0.00     0.275 HD
HETATM    5  H           1     -23.222  -3.556  -8.950  0.00  0.00     0.275 HD
ENDBRANCH   1   2
BRANCH   1   6
HETATM    6  C           1     -20.601  -3.902  -9.130  0.00  0.00     0.052 C 
BRANCH   6   7
HETATM    7  C           1     -20.415  -4.486 -10.525  0.00  0.00     0.105 C 
BRANCH   7   8
HETATM    8  C           1     -21.448  -3.902 -11.457  0.00  0.00     0.215 C 
HETATM    9  N           1     -22.357  -4.721 -12.072  0.00  0.00    -0.370 N 
HETATM   10  H           1     -23.050  -4.330 -12.697  0.00  0.00     0.159 HD
HETATM   11  H           1     -22.335  -5.719 -11.901  0.00  0.00     0.159 HD
HETATM   12  O           1     -21.474  -2.711 -11.661  0.00  0.00    -0.274 OA
ENDBRANCH   7   8
ENDBRANCH   6   7
ENDBRANCH   1   6
BRANCH   1  13
HETATM   13  C           1     -20.983  -5.209  -7.061  0.00  0.00     0.249 C 
HETATM   14  O           1     -19.937  -4.731  -6.689  0.00  0.00    -0.271 OA
HETATM   15  N           1     -21.602  -6.169  -6.308  0.00  0.00    -0.345 N 
HETATM   16  H           1     -22.477  -6.570  -6.620  0.00  0.00     0.163 HD
BRANCH  15  17
HETATM   17  C           1     -21.004  -6.614  -5.065  0.00  0.00     0.185 C 
BRANCH  17  18
HETATM   18  C           1     -22.053  -6.593  -3.961  0.00  0.00     0.036 C 
BRANCH  18  19
HETATM   19  C           1     -21.435  -6.047  -2.682  0.00  0.00     0.003 C 
BRANCH  19  20
HETATM   20 Se           1     -22.192  -6.978  -1.145  0.00  0.00     0.000 Se
HETATM   21  C           1     -20.858  -8.399  -1.141  0.00  0.00     0.000 C 
ENDBRANCH  19  20
ENDBRANCH  18  19
ENDBRANCH  17  18
BRANCH  17  22
HETATM   22  C           1     -20.476  -8.017  -5.233  0.00  0.00     0.196 C 
HETATM   23  O           1     -19.413  -8.215  -5.861  0.00  0.00    -0.646 OA
HETATM   24  O           1     -21.103  -8.983  -4.746  0.00  0.00    -0.646 OA
ENDBRANCH  17  22
ENDBRANCH  15  17
ENDBRANCH   1  13
TORSDOF 10
ENDMDL
MODEL 7
REMARK VINA RESULT:      -5.4     14.619     17.194
REMARK  10 active torsions:
REMARK  status: ('A' for Active; 'I' for Inactive)
REMARK       I    between atoms: N_6  and  C_23 
REMARK    1  A    between atoms: C_7  and  C_20 
REMARK    2  A    between atoms: C_7  and  C_22 
REMARK    3  A    between atoms: Se_10  and  C_20 
REMARK    4  A    between atoms: N_13  and  C_15 
REMARK    5  A    between atoms: C_14  and  C_15 
REMARK    6  A    between atoms: C_14  and  C_24 
REMARK    7  A    between atoms: C_15  and  C_16 
REMARK       I    between atoms: C_16  and  N_17 
REMARK    8  A    between atoms: N_17  and  C_22 
REMARK    9  A    between atoms: C_18  and  C_22 
REMARK   10  A    between atoms: C_23  and  C_24 
ROOT
HETATM    1  C           1     -20.453  -5.007  -6.525  0.00  0.00     0.275 C 
ENDROOT
BRANCH   1   2
HETATM    2  N           1     -19.937  -5.892  -7.622  0.00  0.00    -0.066 N 
HETATM    3  H           1     -20.738  -6.234  -8.200  0.00  0.00     0.275 HD
HETATM    4  H           1     -19.278  -5.349  -8.226  0.00  0.00     0.275 HD
HETATM    5  H           1     -19.435  -6.707  -7.204  0.00  0.00     0.275 HD
ENDBRANCH   1   2
BRANCH   1   6
HETATM    6  C           1     -21.240  -3.854  -7.134  0.00  0.00     0.052 C 
BRANCH   6   7
HETATM    7  C           1     -21.403  -4.084  -8.632  0.00  0.00     0.105 C 
BRANCH   7   8
HETATM    8  C           1     -22.858  -4.331  -8.947  0.00  0.00     0.215 C 
HETATM    9  N           1     -23.815  -4.076  -8.002  0.00  0.00    -0.370 N 
HETATM   10  H           1     -24.791  -4.240  -8.212  0.00  0.00     0.159 HD
HETATM   11  H           1     -23.546  -3.721  -7.092  0.00  0.00     0.159 HD
HETATM   12  O           1     -23.179  -4.753 -10.032  0.00  0.00    -0.274 OA
ENDBRANCH   7   8
ENDBRANCH   6   7
ENDBRANCH   1   6
BRANCH   1  13
HETATM   13  C           1     -21.352  -5.807  -5.616  0.00  0.00     0.249 C 
HETATM   14  O           1     -22.548  -5.642  -5.651  0.00  0.00    -0.271 OA
HETATM   15  N           1     -20.813  -6.720  -4.750  0.00  0.00    -0.345 N 
HETATM   16  H           1     -19.811  -6.858  -4.720  0.00  0.00     0.163 HD
BRANCH  15  17
HETATM   17  C           1     -21.678  -7.488  -3.875  0.00  0.00     0.185 C 
BRANCH  17  18
HETATM   18  C           1     -21.195  -8.931  -3.825  0.00  0.00     0.036 C 
BRANCH  18  19
HETATM   19  C           1     -19.875  -9.053  -4.573  0.00  0.00     0.003 C 
BRANCH  19  20
HETATM   20 Se           1     -18.456  -9.510  -3.317  0.00  0.00     0.000 Se
HETATM   21  C           1     -17.801 -11.024  -4.356  0.00  0.00     0.000 C 
ENDBRANCH  19  20
ENDBRANCH  18  19
ENDBRANCH  17  18
BRANCH  17  22
HETATM   22  C           1     -21.644  -6.897  -2.488  0.00  0.00     0.196 C 
HETATM   23  O           1     -22.319  -5.878  -2.226  0.00  0.00    -0.646 OA
HETATM   24  O           1     -20.938  -7.424  -1.601  0.00  0.00    -0.646 OA
ENDBRANCH  17  22
ENDBRANCH  15  17
ENDBRANCH   1  13
TORSDOF 10
ENDMDL
MODEL 8
REMARK VINA RESULT:      -5.4     10.094     12.198
REMARK  10 active torsions:
REMARK  status: ('A' for Active; 'I' for Inactive)
REMARK       I    between atoms: N_6  and  C_23 
REMARK    1  A    between atoms: C_7  and  C_20 
REMARK    2  A    between atoms: C_7  and  C_22 
REMARK    3  A    between atoms: Se_10  and  C_20 
REMARK    4  A    between atoms: N_13  and  C_15 
REMARK    5  A    between atoms: C_14  and  C_15 
REMARK    6  A    between atoms: C_14  and  C_24 
REMARK    7  A    between atoms: C_15  and  C_16 
REMARK       I    between atoms: C_16  and  N_17 
REMARK    8  A    between atoms: N_17  and  C_22 
REMARK    9  A    between atoms: C_18  and  C_22 
REMARK   10  A    between atoms: C_23  and  C_24 
ROOT
HETATM    1  C           1     -29.325  -6.555 -17.191  0.00  0.00     0.275 C 
ENDROOT
BRANCH   1   2
HETATM    2  N           1     -28.377  -7.280 -16.282  0.00  0.00    -0.066 N 
HETATM    3  H           1     -27.409  -6.913 -16.422  0.00  0.00     0.275 HD
HETATM    4  H           1     -28.666  -7.131 -15.288  0.00  0.00     0.275 HD
HETATM    5  H           1     -28.397  -8.302 -16.501  0.00  0.00     0.275 HD
ENDBRANCH   1   2
BRANCH   1   6
HETATM    6  C           1     -29.717  -5.227 -16.557  0.00  0.00     0.052 C 
BRANCH   6   7
HETATM    7  C           1     -31.184  -4.937 -16.850  0.00  0.00     0.105 C 
BRANCH   7   8
HETATM    8  C           1     -31.313  -3.565 -17.463  0.00  0.00     0.215 C 
HETATM    9  N           1     -30.190  -2.853 -17.791  0.00  0.00    -0.370 N 
HETATM   10  H           1     -30.276  -1.933 -18.202  0.00  0.00     0.159 HD
HETATM   11  H           1     -29.273  -3.248 -17.621  0.00  0.00     0.159 HD
HETATM   12  O           1     -32.407  -3.093 -17.665  0.00  0.00    -0.274 OA
ENDBRANCH   7   8
ENDBRANCH   6   7
ENDBRANCH   1   6
BRANCH   1  13
HETATM   13  C           1     -28.653  -6.302 -18.518  0.00  0.00     0.249 C 
HETATM   14  O           1     -28.777  -5.232 -19.064  0.00  0.00    -0.271 OA
HETATM   15  N           1     -27.903  -7.286 -19.105  0.00  0.00    -0.345 N 
HETATM   16  H           1     -27.800  -8.183 -18.648  0.00  0.00     0.163 HD
BRANCH  15  17
HETATM   17  C           1     -27.259  -7.043 -20.380  0.00  0.00     0.185 C 
BRANCH  17  18
HETATM   18  C           1     -25.860  -6.489 -20.144  0.00  0.00     0.036 C 
BRANCH  18  19
HETATM   19  C           1     -25.559  -6.486 -18.652  0.00  0.00     0.003 C 
BRANCH  19  20
HETATM   20 Se           1     -23.796  -7.258 -18.342  0.00  0.00     0.000 Se
HETATM   21  C           1     -24.171  -7.788 -16.505  0.00  0.00     0.000 C 
ENDBRANCH  19  20
ENDBRANCH  18  19
ENDBRANCH  17  18
BRANCH  17  22
HETATM   22  C           1     -27.165  -8.336 -21.151  0.00  0.00     0.196 C 
HETATM   23  O           1     -26.075  -8.686 -21.655  0.00  0.00    -0.646 OA
HETATM   24  O           1     -28.177  -9.058 -21.288  0.00  0.00    -0.646 OA
ENDBRANCH  17  22
ENDBRANCH  15  17
ENDBRANCH   1  13
TORSDOF 10
ENDMDL
MODEL 9
REMARK VINA RESULT:      -4.9     14.921     17.463
REMARK  10 active torsions:
REMARK  status: ('A' for Active; 'I' for Inactive)
REMARK       I    between atoms: N_6  and  C_23 
REMARK    1  A    between atoms: C_7  and  C_20 
REMARK    2  A    between atoms: C_7  and  C_22 
REMARK    3  A    between atoms: Se_10  and  C_20 
REMARK    4  A    between atoms: N_13  and  C_15 
REMARK    5  A    between atoms: C_14  and  C_15 
REMARK    6  A    between atoms: C_14  and  C_24 
REMARK    7  A    between atoms: C_15  and  C_16 
REMARK       I    between atoms: C_16  and  N_17 
REMARK    8  A    between atoms: N_17  and  C_22 
REMARK    9  A    between atoms: C_18  and  C_22 
REMARK   10  A    between atoms: C_23  and  C_24 
ROOT
HETATM    1  C           1     -20.824  -5.743  -5.830  0.00  0.00     0.275 C 
ENDROOT
BRANCH   1   2
HETATM    2  N           1     -19.988  -6.487  -6.829  0.00  0.00    -0.066 N 
HETATM    3  H           1     -18.976  -6.361  -6.600  0.00  0.00     0.275 HD
HETATM    4  H           1     -20.229  -7.505  -6.795  0.00  0.00     0.275 HD
HETATM    5  H           1     -20.177  -6.117  -7.787  0.00  0.00     0.275 HD
ENDBRANCH   1   2
BRANCH   1   6
HETATM    6  C           1     -21.983  -5.063  -6.547  0.00  0.00     0.052 C 
BRANCH   6   7
HETATM    7  C           1     -21.438  -4.129  -7.621  0.00  0.00     0.105 C 
BRANCH   7   8
HETATM    8  C           1     -22.522  -3.833  -8.628  0.00  0.00     0.215 C 
HETATM    9  N           1     -23.838  -3.976  -8.279  0.00  0.00    -0.370 N 
HETATM   10  H           1     -24.565  -3.778  -8.953  0.00  0.00     0.159 HD
HETATM   11  H           1     -24.083  -4.279  -7.344  0.00  0.00     0.159 HD
HETATM   12  O           1     -22.229  -3.472  -9.743  0.00  0.00    -0.274 OA
ENDBRANCH   7   8
ENDBRANCH   6   7
ENDBRANCH   1   6
BRANCH   1  13
HETATM   13  C           1     -21.363  -6.712  -4.806  0.00  0.00     0.249 C 
HETATM   14  O           1     -22.217  -7.508  -5.118  0.00  0.00    -0.271 OA
HETATM   15  N           1     -20.885  -6.688  -3.524  0.00  0.00    -0.345 N 
HETATM   16  H           1     -20.171  -6.020  -3.262  0.00  0.00     0.163 HD
BRANCH  15  17
HETATM   17  C           1     -21.404  -7.617  -2.540  0.00  0.00     0.185 C 
BRANCH  17  18
HETATM   18  C           1     -20.247  -8.356  -1.881  0.00  0.00     0.036 C 
BRANCH  18  19
HETATM   19  C           1     -20.451  -9.857  -2.031  0.00  0.00     0.003 C 
BRANCH  19  20
HETATM   20 Se           1     -20.471 -10.691  -0.269  0.00  0.00     0.000 Se
HETATM   21  C           1     -21.547 -12.219  -0.823  0.00  0.00     0.000 C 
ENDBRANCH  19  20
ENDBRANCH  18  19
ENDBRANCH  17  18
BRANCH  17  22
HETATM   22  C           1     -22.181  -6.860  -1.491  0.00  0.00     0.196 C 
HETATM   23  O           1     -22.423  -5.643  -1.650  0.00  0.00    -0.646 OA
HETATM   24  O           1     -22.580  -7.448  -0.462  0.00  0.00    -0.646 OA
ENDBRANCH  17  22
ENDBRANCH  15  17
ENDBRANCH   1  13
TORSDOF 10
ENDMDL
