MODEL 1
REMARK VINA RESULT:      -6.7      0.000      0.000
REMARK  9 active torsions:
REMARK  status: ('A' for Active; 'I' for Inactive)
REMARK    1  A    between atoms: C_2  and  C_8 
REMARK    2  A    between atoms: C_2  and  C_25 
REMARK    3  A    between atoms: C_8  and  C_19 
REMARK    4  A    between atoms: C_8  and  N_22 
REMARK    5  A    between atoms: C_10  and  C_11 
REMARK    6  A    between atoms: C_11  and  C_12 
REMARK    7  A    between atoms: C_12  and  C_14 
REMARK    8  A    between atoms: C_12  and  N_18 
REMARK       I    between atoms: N_18  and  C_19 
REMARK    9  A    between atoms: C_25  and  C_26 
ROOT
HETATM    1  N           1     -26.656  -5.965 -17.084  0.00  0.00    -0.344 N 
HETATM    2  C           1     -27.990  -6.258 -16.979  0.00  0.00     0.249 C 
HETATM    3  H           1     -26.337  -5.012 -16.969  0.00  0.00     0.163 HD
HETATM    4  O           1     -28.461  -6.551 -15.906  0.00  0.00    -0.271 OA
ENDROOT
BRANCH   1   5
HETATM    5  C           1     -25.701  -7.021 -17.361  0.00  0.00     0.191 C 
BRANCH   5   6
HETATM    6  C           1     -24.710  -6.544 -18.414  0.00  0.00     0.094 C 
BRANCH   6   7
HETATM    7  C           1     -24.948  -7.280 -19.695  0.00  0.00     0.028 A 
HETATM    8  C           1     -23.961  -7.844 -20.467  0.00  0.00     0.114 A 
HETATM    9  N           1     -24.617  -8.405 -21.527  0.00  0.00    -0.360 N 
HETATM   10  H           1     -24.176  -8.927 -22.325  0.00  0.00     0.166 HD
HETATM   11  C           1     -25.950  -8.163 -21.359  0.00  0.00     0.180 A 
HETATM   12  N           1     -26.181  -7.485 -20.259  0.00  0.00    -0.354 N 
ATOM     13  HN          1     -27.085  -7.178 -19.900  1.00  0.00     0.166 HD
ENDBRANCH   6   7
ENDBRANCH   5   6
BRANCH   5  14
HETATM   14  C           1     -24.961  -7.371 -16.094  0.00  0.00     0.197 C 
HETATM   15  O           1     -25.294  -6.845 -15.009  0.00  0.00    -0.646 OA
HETATM   16  O           1     -24.014  -8.187 -16.128  0.00  0.00    -0.646 OA
ENDBRANCH   5  14
ENDBRANCH   1   5
BRANCH   2  17
HETATM   17  C           1     -28.871  -6.216 -18.203  0.00  0.00     0.275 C 
BRANCH  17  18
HETATM   18  C           1     -29.220  -4.770 -18.529  0.00  0.00     0.053 C 
BRANCH  18  19
HETATM   19  C           1     -29.717  -4.071 -17.271  0.00  0.00     0.115 C 
BRANCH  19  20
HETATM   20  C           1     -31.222  -3.972 -17.310  0.00  0.00     0.172 C 
HETATM   21  O           1     -31.771  -2.973 -17.823  0.00  0.00    -0.648 OA
HETATM   22  O           1     -31.922  -4.889 -16.827  0.00  0.00    -0.648 OA
ENDBRANCH  19  20
ENDBRANCH  18  19
ENDBRANCH  17  18
BRANCH  17  23
HETATM   23  N           1     -30.130  -6.987 -17.939  0.00  0.00    -0.066 N 
HETATM   24  H           1     -30.149  -7.291 -16.939  0.00  0.00     0.275 HD
HETATM   25  H           1     -30.958  -6.380 -18.134  0.00  0.00     0.275 HD
HETATM   26  H           1     -30.161  -7.827 -18.560  0.00  0.00     0.275 HD
ENDBRANCH  17  23
ENDBRANCH   2  17
TORSDOF 9
ENDMDL
MODEL 2
REMARK VINA RESULT:      -6.7      2.447      6.232
REMARK  9 active torsions:
REMARK  status: ('A' for Active; 'I' for Inactive)
REMARK    1  A    between atoms: C_2  and  C_8 
REMARK    2  A    between atoms: C_2  and  C_25 
REMARK    3  A    between atoms: C_8  and  C_19 
REMARK    4  A    between atoms: C_8  and  N_22 
REMARK    5  A    between atoms: C_10  and  C_11 
REMARK    6  A    between atoms: C_11  and  C_12 
REMARK    7  A    between atoms: C_12  and  C_14 
REMARK    8  A    between atoms: C_12  and  N_18 
REMARK       I    between atoms: N_18  and  C_19 
REMARK    9  A    between atoms: C_25  and  C_26 
ROOT
HETATM    1  N           1     -27.084  -7.097 -16.899  0.00  0.00    -0.344 N 
HETATM    2  C           1     -25.770  -6.945 -16.546  0.00  0.00     0.249 C 
HETATM    3  H           1     -27.442  -8.013 -17.136  0.00  0.00     0.163 HD
HETATM    4  O           1     -25.442  -7.039 -15.386  0.00  0.00    -0.271 OA
ENDROOT
BRANCH   1   5
HETATM    5  C           1     -27.963  -5.944 -16.934  0.00  0.00     0.191 C 
BRANCH   5   6
HETATM    6  C           1     -29.197  -6.273 -17.765  0.00  0.00     0.094 C 
BRANCH   6   7
HETATM    7  C           1     -30.258  -5.248 -17.511  0.00  0.00     0.028 A 
HETATM    8  C           1     -30.191  -3.937 -17.917  0.00  0.00     0.114 A 
HETATM    9  N           1     -31.356  -3.370 -17.480  0.00  0.00    -0.360 N 
HETATM   10  H           1     -31.649  -2.371 -17.613  0.00  0.00     0.166 HD
HETATM   11  C           1     -32.070  -4.343 -16.840  0.00  0.00     0.180 A 
HETATM   12  N           1     -31.431  -5.490 -16.843  0.00  0.00    -0.354 N 
ATOM     13  HN          1     -31.742  -6.372 -16.436  1.00  0.00     0.166 HD
ENDBRANCH   6   7
ENDBRANCH   5   6
BRANCH   5  14
HETATM   14  C           1     -28.383  -5.591 -15.529  0.00  0.00     0.197 C 
HETATM   15  O           1     -29.035  -6.411 -14.846  0.00  0.00    -0.646 OA
HETATM   16  O           1     -28.080  -4.478 -15.047  0.00  0.00    -0.646 OA
ENDBRANCH   5  14
ENDBRANCH   1   5
BRANCH   2  17
HETATM   17  C           1     -24.732  -6.660 -17.602  0.00  0.00     0.275 C 
BRANCH  17  18
HETATM   18  C           1     -25.325  -6.917 -18.981  0.00  0.00     0.053 C 
BRANCH  18  19
HETATM   19  C           1     -24.261  -7.524 -19.887  0.00  0.00     0.115 C 
BRANCH  19  20
HETATM   20  C           1     -24.873  -7.871 -21.221  0.00  0.00     0.172 C 
HETATM   21  O           1     -26.005  -8.400 -21.272  0.00  0.00    -0.648 OA
HETATM   22  O           1     -24.248  -7.631 -22.277  0.00  0.00    -0.648 OA
ENDBRANCH  19  20
ENDBRANCH  18  19
ENDBRANCH  17  18
BRANCH  17  23
HETATM   23  N           1     -23.547  -7.556 -17.393  0.00  0.00    -0.066 N 
HETATM   24  H           1     -23.874  -8.541 -17.265  0.00  0.00     0.275 HD
HETATM   25  H           1     -22.918  -7.503 -18.226  0.00  0.00     0.275 HD
HETATM   26  H           1     -23.024  -7.249 -16.542  0.00  0.00     0.275 HD
ENDBRANCH  17  23
ENDBRANCH   2  17
TORSDOF 9
ENDMDL
MODEL 3
REMARK VINA RESULT:      -6.4     10.885     13.732
REMARK  9 active torsions:
REMARK  status: ('A' for Active; 'I' for Inactive)
REMARK    1  A    between atoms: C_2  and  C_8 
REMARK    2  A    between atoms: C_2  and  C_25 
REMARK    3  A    between atoms: C_8  and  C_19 
REMARK    4  A    between atoms: C_8  and  N_22 
REMARK    5  A    between atoms: C_10  and  C_11 
REMARK    6  A    between atoms: C_11  and  C_12 
REMARK    7  A    between atoms: C_12  and  C_14 
REMARK    8  A    between atoms: C_12  and  N_18 
REMARK       I    between atoms: N_18  and  C_19 
REMARK    9  A    between atoms: C_25  and  C_26 
ROOT
HETATM    1  N           1     -20.431  -6.031  -7.006  0.00  0.00    -0.344 N 
HETATM    2  C           1     -21.168  -6.772  -6.120  0.00  0.00     0.249 C 
HETATM    3  H           1     -19.434  -5.930  -6.873  0.00  0.00     0.163 HD
HETATM    4  O           1     -21.330  -7.955  -6.310  0.00  0.00    -0.271 OA
ENDROOT
BRANCH   1   5
HETATM    5  C           1     -21.082  -5.392  -8.133  0.00  0.00     0.191 C 
BRANCH   5   6
HETATM    6  C           1     -22.183  -4.469  -7.625  0.00  0.00     0.094 C 
BRANCH   6   7
HETATM    7  C           1     -23.193  -4.252  -8.708  0.00  0.00     0.028 A 
HETATM    8  C           1     -23.246  -4.968  -9.881  0.00  0.00     0.114 A 
HETATM    9  N           1     -24.308  -4.445 -10.566  0.00  0.00    -0.360 N 
HETATM   10  H           1     -24.648  -4.752 -11.511  0.00  0.00     0.166 HD
HETATM   11  C           1     -24.845  -3.453  -9.796  0.00  0.00     0.180 A 
HETATM   12  N           1     -24.192  -3.314  -8.667  0.00  0.00    -0.354 N 
ATOM     13  HN          1     -24.387  -2.650  -7.918  1.00  0.00     0.166 HD
ENDBRANCH   6   7
ENDBRANCH   5   6
BRANCH   5  14
HETATM   14  C           1     -20.068  -4.587  -8.907  0.00  0.00     0.197 C 
HETATM   15  O           1     -19.851  -4.845 -10.111  0.00  0.00    -0.646 OA
HETATM   16  O           1     -19.442  -3.662  -8.344  0.00  0.00    -0.646 OA
ENDBRANCH   5  14
ENDBRANCH   1   5
BRANCH   2  17
HETATM   17  C           1     -21.778  -6.113  -4.908  0.00  0.00     0.275 C 
BRANCH  17  18
HETATM   18  C           1     -21.259  -6.788  -3.646  0.00  0.00     0.053 C 
BRANCH  18  19
HETATM   19  C           1     -21.869  -6.115  -2.423  0.00  0.00     0.115 C 
BRANCH  19  20
HETATM   20  C           1     -21.951  -7.109  -1.290  0.00  0.00     0.172 C 
HETATM   21  O           1     -22.923  -7.082  -0.504  0.00  0.00    -0.648 OA
HETATM   22  O           1     -21.047  -7.958  -1.136  0.00  0.00    -0.648 OA
ENDBRANCH  19  20
ENDBRANCH  18  19
ENDBRANCH  17  18
BRANCH  17  23
HETATM   23  N           1     -23.271  -6.244  -4.967  0.00  0.00    -0.066 N 
HETATM   24  H           1     -23.584  -6.972  -4.284  0.00  0.00     0.275 HD
HETATM   25  H           1     -23.712  -5.328  -4.725  0.00  0.00     0.275 HD
HETATM   26  H           1     -23.558  -6.524  -5.932  0.00  0.00     0.275 HD
ENDBRANCH  17  23
ENDBRANCH   2  17
TORSDOF 9
ENDMDL
MODEL 4
REMARK VINA RESULT:      -6.2     10.921     13.636
REMARK  9 active torsions:
REMARK  status: ('A' for Active; 'I' for Inactive)
REMARK    1  A    between atoms: C_2  and  C_8 
REMARK    2  A    between atoms: C_2  and  C_25 
REMARK    3  A    between atoms: C_8  and  C_19 
REMARK    4  A    between atoms: C_8  and  N_22 
REMARK    5  A    between atoms: C_10  and  C_11 
REMARK    6  A    between atoms: C_11  and  C_12 
REMARK    7  A    between atoms: C_12  and  C_14 
REMARK    8  A    between atoms: C_12  and  N_18 
REMARK       I    between atoms: N_18  and  C_19 
REMARK    9  A    between atoms: C_25  and  C_26 
ROOT
HETATM    1  N           1     -22.050  -4.727  -6.355  0.00  0.00    -0.344 N 
HETATM    2  C           1     -21.318  -5.367  -5.391  0.00  0.00     0.249 C 
HETATM    3  H           1     -22.801  -4.102  -6.088  0.00  0.00     0.163 HD
HETATM    4  O           1     -20.321  -4.849  -4.946  0.00  0.00    -0.271 OA
ENDROOT
BRANCH   1   5
HETATM    5  C           1     -21.750  -4.944  -7.757  0.00  0.00     0.191 C 
BRANCH   5   6
HETATM    6  C           1     -22.278  -3.772  -8.574  0.00  0.00     0.094 C 
BRANCH   6   7
HETATM    7  C           1     -22.565  -4.227  -9.971  0.00  0.00     0.028 A 
HETATM    8  C           1     -21.704  -4.081 -11.033  0.00  0.00     0.114 A 
HETATM    9  N           1     -22.361  -4.628 -12.100  0.00  0.00    -0.360 N 
HETATM   10  H           1     -22.000  -4.693 -13.084  0.00  0.00     0.166 HD
HETATM   11  C           1     -23.571  -5.075 -11.651  0.00  0.00     0.180 A 
HETATM   12  N           1     -23.722  -4.847 -10.368  0.00  0.00    -0.354 N 
ATOM     13  HN          1     -24.529  -5.081  -9.789  1.00  0.00     0.166 HD
ENDBRANCH   6   7
ENDBRANCH   5   6
BRANCH   5  14
HETATM   14  C           1     -20.256  -5.052  -7.938  0.00  0.00     0.197 C 
HETATM   15  O           1     -19.703  -6.173  -7.916  0.00  0.00    -0.646 OA
HETATM   16  O           1     -19.571  -4.021  -8.109  0.00  0.00    -0.646 OA
ENDBRANCH   5  14
ENDBRANCH   1   5
BRANCH   2  17
HETATM   17  C           1     -21.755  -6.720  -4.885  0.00  0.00     0.275 C 
BRANCH  17  18
HETATM   18  C           1     -21.184  -6.951  -3.492  0.00  0.00     0.053 C 
BRANCH  18  19
HETATM   19  C           1     -22.127  -6.360  -2.452  0.00  0.00     0.115 C 
BRANCH  19  20
HETATM   20  C           1     -22.049  -7.172  -1.183  0.00  0.00     0.172 C 
HETATM   21  O           1     -22.997  -7.152  -0.368  0.00  0.00    -0.648 OA
HETATM   22  O           1     -21.036  -7.864  -0.944  0.00  0.00    -0.648 OA
ENDBRANCH  19  20
ENDBRANCH  18  19
ENDBRANCH  17  18
BRANCH  17  23
HETATM   23  N           1     -21.254  -7.786  -5.813  0.00  0.00    -0.066 N 
HETATM   24  H           1     -21.941  -8.574  -5.842  0.00  0.00     0.275 HD
HETATM   25  H           1     -21.141  -7.388  -6.773  0.00  0.00     0.275 HD
HETATM   26  H           1     -20.332  -8.139  -5.473  0.00  0.00     0.275 HD
ENDBRANCH  17  23
ENDBRANCH   2  17
TORSDOF 9
ENDMDL
MODEL 5
REMARK VINA RESULT:      -6.1      2.406      3.651
REMARK  9 active torsions:
REMARK  status: ('A' for Active; 'I' for Inactive)
REMARK    1  A    between atoms: C_2  and  C_8 
REMARK    2  A    between atoms: C_2  and  C_25 
REMARK    3  A    between atoms: C_8  and  C_19 
REMARK    4  A    between atoms: C_8  and  N_22 
REMARK    5  A    between atoms: C_10  and  C_11 
REMARK    6  A    between atoms: C_11  and  C_12 
REMARK    7  A    between atoms: C_12  and  C_14 
REMARK    8  A    between atoms: C_12  and  N_18 
REMARK       I    between atoms: N_18  and  C_19 
REMARK    9  A    between atoms: C_25  and  C_26 
ROOT
HETATM    1  N           1     -29.060  -5.207 -18.760  0.00  0.00    -0.344 N 
HETATM    2  C           1     -29.607  -4.397 -17.802  0.00  0.00     0.249 C 
HETATM    3  H           1     -29.201  -4.998 -19.740  0.00  0.00     0.163 HD
HETATM    4  O           1     -28.979  -3.454 -17.378  0.00  0.00    -0.271 OA
ENDROOT
BRANCH   1   5
HETATM    5  C           1     -28.279  -6.365 -18.371  0.00  0.00     0.191 C 
BRANCH   5   6
HETATM    6  C           1     -27.387  -6.001 -17.191  0.00  0.00     0.094 C 
BRANCH   6   7
HETATM    7  C           1     -26.008  -6.537 -17.423  0.00  0.00     0.028 A 
HETATM    8  C           1     -25.130  -6.892 -16.426  0.00  0.00     0.114 A 
HETATM    9  N           1     -24.009  -7.323 -17.079  0.00  0.00    -0.360 N 
HETATM   10  H           1     -23.126  -7.674 -16.631  0.00  0.00     0.166 HD
HETATM   11  C           1     -24.248  -7.215 -18.419  0.00  0.00     0.180 A 
HETATM   12  N           1     -25.449  -6.744 -18.658  0.00  0.00    -0.354 N 
ATOM     13  HN          1     -25.875  -6.568 -19.568  1.00  0.00     0.166 HD
ENDBRANCH   6   7
ENDBRANCH   5   6
BRANCH   5  14
HETATM   14  C           1     -29.208  -7.485 -17.973  0.00  0.00     0.197 C 
HETATM   15  O           1     -29.349  -7.781 -16.766  0.00  0.00    -0.646 OA
HETATM   16  O           1     -29.835  -8.119 -18.849  0.00  0.00    -0.646 OA
ENDBRANCH   5  14
ENDBRANCH   1   5
BRANCH   2  17
HETATM   17  C           1     -30.991  -4.680 -17.273  0.00  0.00     0.275 C 
BRANCH  17  18
HETATM   18  C           1     -31.807  -3.395 -17.267  0.00  0.00     0.053 C 
BRANCH  18  19
HETATM   19  C           1     -33.281  -3.728 -17.454  0.00  0.00     0.115 C 
BRANCH  19  20
HETATM   20  C           1     -34.032  -3.423 -16.180  0.00  0.00     0.172 C 
HETATM   21  O           1     -33.747  -4.030 -15.125  0.00  0.00    -0.648 OA
HETATM   22  O           1     -34.940  -2.564 -16.181  0.00  0.00    -0.648 OA
ENDBRANCH  19  20
ENDBRANCH  18  19
ENDBRANCH  17  18
BRANCH  17  23
HETATM   23  N           1     -30.891  -5.215 -15.875  0.00  0.00    -0.066 N 
HETATM   24  H           1     -30.800  -4.419 -15.203  0.00  0.00     0.275 HD
HETATM   25  H           1     -31.752  -5.764 -15.649  0.00  0.00     0.275 HD
HETATM   26  H           1     -30.054  -5.834 -15.797  0.00  0.00     0.275 HD
ENDBRANCH  17  23
ENDBRANCH   2  17
TORSDOF 9
ENDMDL
MODEL 6
REMARK VINA RESULT:      -6.1     10.638     13.307
REMARK  9 active torsions:
REMARK  status: ('A' for Active; 'I' for Inactive)
REMARK    1  A    between atoms: C_2  and  C_8 
REMARK    2  A    between atoms: C_2  and  C_25 
REMARK    3  A    between atoms: C_8  and  C_19 
REMARK    4  A    between atoms: C_8  and  N_22 
REMARK    5  A    between atoms: C_10  and  C_11 
REMARK    6  A    between atoms: C_11  and  C_12 
REMARK    7  A    between atoms: C_12  and  C_14 
REMARK    8  A    between atoms: C_12  and  N_18 
REMARK       I    between atoms: N_18  and  C_19 
REMARK    9  A    between atoms: C_25  and  C_26 
ROOT
HETATM    1  N           1     -20.392  -6.455  -6.599  0.00  0.00    -0.344 N 
HETATM    2  C           1     -20.746  -5.168  -6.904  0.00  0.00     0.249 C 
HETATM    3  H           1     -19.517  -6.833  -6.938  0.00  0.00     0.163 HD
HETATM    4  O           1     -20.422  -4.263  -6.171  0.00  0.00    -0.271 OA
ENDROOT
BRANCH   1   5
HETATM    5  C           1     -21.273  -7.277  -5.791  0.00  0.00     0.191 C 
BRANCH   5   6
HETATM    6  C           1     -20.439  -8.225  -4.938  0.00  0.00     0.094 C 
BRANCH   6   7
HETATM    7  C           1     -21.015  -9.604  -5.016  0.00  0.00     0.028 A 
HETATM    8  C           1     -21.788 -10.184  -4.038  0.00  0.00     0.114 A 
HETATM    9  N           1     -22.092 -11.428  -4.518  0.00  0.00    -0.360 N 
HETATM   10  H           1     -22.673 -12.156  -4.033  0.00  0.00     0.166 HD
HETATM   11  C           1     -21.503 -11.549  -5.744  0.00  0.00     0.180 A 
HETATM   12  N           1     -20.846 -10.462  -6.072  0.00  0.00    -0.354 N 
ATOM     13  HN          1     -20.321 -10.292  -6.930  1.00  0.00     0.166 HD
ENDBRANCH   6   7
ENDBRANCH   5   6
BRANCH   5  14
HETATM   14  C           1     -22.102  -6.391  -4.894  0.00  0.00     0.197 C 
HETATM   15  O           1     -23.248  -6.039  -5.249  0.00  0.00    -0.646 OA
HETATM   16  O           1     -21.642  -6.007  -3.797  0.00  0.00    -0.646 OA
ENDBRANCH   5  14
ENDBRANCH   1   5
BRANCH   2  17
HETATM   17  C           1     -21.541  -4.879  -8.153  0.00  0.00     0.275 C 
BRANCH  17  18
HETATM   18  C           1     -20.730  -3.980  -9.076  0.00  0.00     0.053 C 
BRANCH  18  19
HETATM   19  C           1     -20.751  -4.551 -10.488  0.00  0.00     0.115 C 
BRANCH  19  20
HETATM   20  C           1     -21.817  -3.855 -11.298  0.00  0.00     0.172 C 
HETATM   21  O           1     -21.690  -2.647 -11.592  0.00  0.00    -0.648 OA
HETATM   22  O           1     -22.829  -4.486 -11.673  0.00  0.00    -0.648 OA
ENDBRANCH  19  20
ENDBRANCH  18  19
ENDBRANCH  17  18
BRANCH  17  23
HETATM   23  N           1     -22.821  -4.190  -7.782  0.00  0.00    -0.066 N 
HETATM   24  H           1     -22.979  -4.279  -6.752  0.00  0.00     0.275 HD
HETATM   25  H           1     -22.759  -3.178  -8.038  0.00  0.00     0.275 HD
HETATM   26  H           1     -23.616  -4.631  -8.296  0.00  0.00     0.275 HD
ENDBRANCH  17  23
ENDBRANCH   2  17
TORSDOF 9
ENDMDL
MODEL 7
REMARK VINA RESULT:      -6.0      4.622      7.625
REMARK  9 active torsions:
REMARK  status: ('A' for Active; 'I' for Inactive)
REMARK    1  A    between atoms: C_2  and  C_8 
REMARK    2  A    between atoms: C_2  and  C_25 
REMARK    3  A    between atoms: C_8  and  C_19 
REMARK    4  A    between atoms: C_8  and  N_22 
REMARK    5  A    between atoms: C_10  and  C_11 
REMARK    6  A    between atoms: C_11  and  C_12 
REMARK    7  A    between atoms: C_12  and  C_14 
REMARK    8  A    between atoms: C_12  and  N_18 
REMARK       I    between atoms: N_18  and  C_19 
REMARK    9  A    between atoms: C_25  and  C_26 
ROOT
HETATM    1  N           1     -33.965  -4.494 -15.637  0.00  0.00    -0.344 N 
HETATM    2  C           1     -34.205  -3.862 -14.446  0.00  0.00     0.249 C 
HETATM    3  H           1     -34.697  -5.034 -16.080  0.00  0.00     0.163 HD
HETATM    4  O           1     -34.628  -2.730 -14.437  0.00  0.00    -0.271 OA
ENDROOT
BRANCH   1   5
HETATM    5  C           1     -32.662  -4.388 -16.264  0.00  0.00     0.191 C 
BRANCH   5   6
HETATM    6  C           1     -32.316  -5.709 -16.939  0.00  0.00     0.094 C 
BRANCH   6   7
HETATM    7  C           1     -30.849  -5.972 -16.800  0.00  0.00     0.028 A 
HETATM    8  C           1     -30.079  -6.617 -17.738  0.00  0.00     0.114 A 
HETATM    9  N           1     -28.818  -6.637 -17.208  0.00  0.00    -0.360 N 
HETATM   10  H           1     -27.964  -7.055 -17.654  0.00  0.00     0.166 HD
HETATM   11  C           1     -28.874  -6.015 -15.994  0.00  0.00     0.180 A 
HETATM   12  N           1     -30.089  -5.601 -15.720  0.00  0.00    -0.354 N 
ATOM     13  HN          1     -30.401  -5.109 -14.883  1.00  0.00     0.166 HD
ENDBRANCH   6   7
ENDBRANCH   5   6
BRANCH   5  14
HETATM   14  C           1     -32.689  -3.287 -17.295  0.00  0.00     0.197 C 
HETATM   15  O           1     -31.647  -2.986 -17.917  0.00  0.00    -0.646 OA
HETATM   16  O           1     -33.754  -2.674 -17.527  0.00  0.00    -0.646 OA
ENDBRANCH   5  14
ENDBRANCH   1   5
BRANCH   2  17
HETATM   17  C           1     -33.941  -4.579 -13.145  0.00  0.00     0.275 C 
BRANCH  17  18
HETATM   18  C           1     -34.716  -3.901 -12.024  0.00  0.00     0.053 C 
BRANCH  18  19
HETATM   19  C           1     -33.746  -3.433 -10.946  0.00  0.00     0.115 C 
BRANCH  19  20
HETATM   20  C           1     -33.996  -1.977 -10.640  0.00  0.00     0.172 C 
HETATM   21  O           1     -34.005  -1.579  -9.455  0.00  0.00    -0.648 OA
HETATM   22  O           1     -34.196  -1.168 -11.572  0.00  0.00    -0.648 OA
ENDBRANCH  19  20
ENDBRANCH  18  19
ENDBRANCH  17  18
BRANCH  17  23
HETATM   23  N           1     -32.474  -4.532 -12.837  0.00  0.00    -0.066 N 
HETATM   24  H           1     -31.932  -4.821 -13.683  0.00  0.00     0.275 HD
HETATM   25  H           1     -32.205  -3.559 -12.567  0.00  0.00     0.275 HD
HETATM   26  H           1     -32.263  -5.184 -12.048  0.00  0.00     0.275 HD
ENDBRANCH  17  23
ENDBRANCH   2  17
TORSDOF 9
ENDMDL
MODEL 8
REMARK VINA RESULT:      -6.0      2.719      6.426
REMARK  9 active torsions:
REMARK  status: ('A' for Active; 'I' for Inactive)
REMARK    1  A    between atoms: C_2  and  C_8 
REMARK    2  A    between atoms: C_2  and  C_25 
REMARK    3  A    between atoms: C_8  and  C_19 
REMARK    4  A    between atoms: C_8  and  N_22 
REMARK    5  A    between atoms: C_10  and  C_11 
REMARK    6  A    between atoms: C_11  and  C_12 
REMARK    7  A    between atoms: C_12  and  C_14 
REMARK    8  A    between atoms: C_12  and  N_18 
REMARK       I    between atoms: N_18  and  C_19 
REMARK    9  A    between atoms: C_25  and  C_26 
ROOT
HETATM    1  N           1     -28.517  -7.718 -17.109  0.00  0.00    -0.344 N 
HETATM    2  C           1     -27.803  -7.150 -16.087  0.00  0.00     0.249 C 
HETATM    3  H           1     -28.148  -8.523 -17.597  0.00  0.00     0.163 HD
HETATM    4  O           1     -27.965  -7.533 -14.952  0.00  0.00    -0.271 OA
ENDROOT
BRANCH   1   5
HETATM    5  C           1     -29.802  -7.164 -17.490  0.00  0.00     0.191 C 
BRANCH   5   6
HETATM    6  C           1     -29.616  -5.723 -17.948  0.00  0.00     0.094 C 
BRANCH   6   7
HETATM    7  C           1     -30.808  -4.913 -17.544  0.00  0.00     0.028 A 
HETATM    8  C           1     -30.975  -3.577 -17.822  0.00  0.00     0.114 A 
HETATM    9  N           1     -32.185  -3.250 -17.275  0.00  0.00    -0.360 N 
HETATM   10  H           1     -32.641  -2.304 -17.296  0.00  0.00     0.166 HD
HETATM   11  C           1     -32.693  -4.380 -16.699  0.00  0.00     0.180 A 
HETATM   12  N           1     -31.883  -5.401 -16.846  0.00  0.00    -0.354 N 
ATOM     13  HN          1     -32.023  -6.355 -16.512  1.00  0.00     0.166 HD
ENDBRANCH   6   7
ENDBRANCH   5   6
BRANCH   5  14
HETATM   14  C           1     -30.385  -7.980 -18.617  0.00  0.00     0.197 C 
HETATM   15  O           1     -29.651  -8.746 -19.279  0.00  0.00    -0.646 OA
HETATM   16  O           1     -31.601  -7.889 -18.892  0.00  0.00    -0.646 OA
ENDBRANCH   5  14
ENDBRANCH   1   5
BRANCH   2  17
HETATM   17  C           1     -26.816  -6.047 -16.378  0.00  0.00     0.275 C 
BRANCH  17  18
HETATM   18  C           1     -25.458  -6.414 -15.796  0.00  0.00     0.053 C 
BRANCH  18  19
HETATM   19  C           1     -24.836  -7.532 -16.622  0.00  0.00     0.115 C 
BRANCH  19  20
HETATM   20  C           1     -24.413  -6.991 -17.966  0.00  0.00     0.172 C 
HETATM   21  O           1     -25.276  -6.668 -18.810  0.00  0.00    -0.648 OA
HETATM   22  O           1     -23.198  -6.866 -18.236  0.00  0.00    -0.648 OA
ENDBRANCH  19  20
ENDBRANCH  18  19
ENDBRANCH  17  18
BRANCH  17  23
HETATM   23  N           1     -27.297  -4.770 -15.757  0.00  0.00    -0.066 N 
HETATM   24  H           1     -28.192  -4.476 -16.212  0.00  0.00     0.275 HD
HETATM   25  H           1     -27.460  -4.918 -14.735  0.00  0.00     0.275 HD
HETATM   26  H           1     -26.577  -4.025 -15.890  0.00  0.00     0.275 HD
ENDBRANCH  17  23
ENDBRANCH   2  17
TORSDOF 9
ENDMDL
MODEL 9
REMARK VINA RESULT:      -5.9     11.856     14.558
REMARK  9 active torsions:
REMARK  status: ('A' for Active; 'I' for Inactive)
REMARK    1  A    between atoms: C_2  and  C_8 
REMARK    2  A    between atoms: C_2  and  C_25 
REMARK    3  A    between atoms: C_8  and  C_19 
REMARK    4  A    between atoms: C_8  and  N_22 
REMARK    5  A    between atoms: C_10  and  C_11 
REMARK    6  A    between atoms: C_11  and  C_12 
REMARK    7  A    between atoms: C_12  and  C_14 
REMARK    8  A    between atoms: C_12  and  N_18 
REMARK       I    between atoms: N_18  and  C_19 
REMARK    9  A    between atoms: C_25  and  C_26 
ROOT
HETATM    1  N           1     -20.898  -7.600  -6.128  0.00  0.00    -0.344 N 
HETATM    2  C           1     -20.643  -6.407  -6.749  0.00  0.00     0.249 C 
HETATM    3  H           1     -21.497  -8.284  -6.573  0.00  0.00     0.163 HD
HETATM    4  O           1     -19.696  -6.304  -7.493  0.00  0.00    -0.271 OA
ENDROOT
BRANCH   1   5
HETATM    5  C           1     -20.311  -7.883  -4.832  0.00  0.00     0.191 C 
BRANCH   5   6
HETATM    6  C           1     -21.351  -8.549  -3.940  0.00  0.00     0.094 C 
BRANCH   6   7
HETATM    7  C           1     -21.737  -7.611  -2.838  0.00  0.00     0.028 A 
HETATM    8  C           1     -21.887  -6.253  -2.985  0.00  0.00     0.114 A 
HETATM    9  N           1     -22.240  -5.799  -1.745  0.00  0.00    -0.360 N 
HETATM   10  H           1     -22.438  -4.802  -1.481  0.00  0.00     0.166 HD
HETATM   11  C           1     -22.290  -6.881  -0.911  0.00  0.00     0.180 A 
HETATM   12  N           1     -21.991  -7.990  -1.545  0.00  0.00    -0.354 N 
ATOM     13  HN          1     -21.955  -8.933  -1.158  1.00  0.00     0.166 HD
ENDBRANCH   6   7
ENDBRANCH   5   6
BRANCH   5  14
HETATM   14  C           1     -19.132  -8.808  -5.008  0.00  0.00     0.197 C 
HETATM   15  O           1     -18.425  -9.115  -4.023  0.00  0.00    -0.646 OA
HETATM   16  O           1     -18.860  -9.267  -6.138  0.00  0.00    -0.646 OA
ENDBRANCH   5  14
ENDBRANCH   1   5
BRANCH   2  17
HETATM   17  C           1     -21.542  -5.220  -6.505  0.00  0.00     0.275 C 
BRANCH  17  18
HETATM   18  C           1     -22.501  -5.059  -7.676  0.00  0.00     0.053 C 
BRANCH  18  19
HETATM   19  C           1     -22.089  -3.850  -8.507  0.00  0.00     0.115 C 
BRANCH  19  20
HETATM   20  C           1     -23.113  -3.610  -9.589  0.00  0.00     0.172 C 
HETATM   21  O           1     -22.745  -3.297 -10.741  0.00  0.00    -0.648 OA
HETATM   22  O           1     -24.332  -3.721  -9.332  0.00  0.00    -0.648 OA
ENDBRANCH  19  20
ENDBRANCH  18  19
ENDBRANCH  17  18
BRANCH  17  23
HETATM   23  N           1     -20.707  -3.981  -6.368  0.00  0.00    -0.066 N 
HETATM   24  H           1     -20.228  -3.782  -7.276  0.00  0.00     0.275 HD
HETATM   25  H           1     -21.321  -3.174  -6.113  0.00  0.00     0.275 HD
HETATM   26  H           1     -19.992  -4.124  -5.620  0.00  0.00     0.275 HD
ENDBRANCH  17  23
ENDBRANCH   2  17
TORSDOF 9
ENDMDL
