MODEL 1
REMARK VINA RESULT:      -6.2      0.000      0.000
REMARK  9 active torsions:
REMARK  status: ('A' for Active; 'I' for Inactive)
REMARK    1  A    between atoms: N_6  and  C_10 
REMARK    2  A    between atoms: S_7  and  C_12 
REMARK    3  A    between atoms: C_8  and  C_9 
REMARK    4  A    between atoms: C_9  and  C_17 
REMARK    5  A    between atoms: C_9  and  N_14 
REMARK    6  A    between atoms: C_10  and  C_18 
REMARK    7  A    between atoms: C_10  and  C_11 
REMARK    8  A    between atoms: C_11  and  C_12 
REMARK    9  A    between atoms: O_13  and  C_17 
REMARK       I    between atoms: N_14  and  C_18 
ROOT
HETATM    1  H           1     -22.261  -5.797  -9.492  0.00  0.00     0.163 HD
HETATM    2  N           1     -22.203  -4.865  -9.100  0.00  0.00    -0.343 N 
HETATM    3  C           1     -21.720  -4.685  -7.832  0.00  0.00     0.249 C 
HETATM    4  O           1     -21.650  -3.573  -7.365  0.00  0.00    -0.271 OA
ENDROOT
BRANCH   3   5
HETATM    5  C           1     -21.274  -5.875  -7.018  0.00  0.00     0.275 C 
BRANCH   5   6
HETATM    6  N           1     -19.851  -6.205  -7.355  0.00  0.00    -0.066 N 
HETATM    7  H           1     -19.698  -7.234  -7.249  0.00  0.00     0.275 HD
HETATM    8  H           1     -19.651  -5.924  -8.342  0.00  0.00     0.275 HD
HETATM    9  H           1     -19.211  -5.689  -6.710  0.00  0.00     0.275 HD
ENDBRANCH   5   6
BRANCH   5  10
HETATM   10  C           1     -21.380  -5.545  -5.535  0.00  0.00     0.053 C 
BRANCH  10  11
HETATM   11  C           1     -22.216  -6.609  -4.836  0.00  0.00     0.076 C 
BRANCH  11  12
HETATM   12  S           1     -21.300  -7.257  -3.409  0.00  0.00    -0.173 SA
HETATM   13  C           1     -22.081  -6.189  -2.168  0.00  0.00     0.089 C 
ENDBRANCH  11  12
ENDBRANCH  10  11
ENDBRANCH   5  10
ENDBRANCH   3   5
BRANCH   2  14
HETATM   14  C           1     -22.631  -3.722  -9.883  0.00  0.00     0.214 C 
BRANCH  14  15
HETATM   15  C           1     -24.106  -3.844 -10.183  0.00  0.00     0.199 C 
HETATM   16  O           1     -24.714  -4.901  -9.911  0.00  0.00    -0.646 OA
HETATM   17  O           1     -24.718  -2.887 -10.704  0.00  0.00    -0.646 OA
ENDBRANCH  14  15
BRANCH  14  18
HETATM   18  C           1     -21.848  -3.679 -11.188  0.00  0.00     0.147 C 
HETATM   19  C           1     -20.475  -4.305 -10.977  0.00  0.00     0.042 C 
BRANCH  18  20
HETATM   20  O           1     -22.542  -4.395 -12.172  0.00  0.00    -0.393 OA
HETATM   21  H           1     -22.621  -3.828 -12.920  0.00  0.00     0.210 HD
ENDBRANCH  18  20
ENDBRANCH  14  18
ENDBRANCH   2  14
TORSDOF 9
ENDMDL
MODEL 2
REMARK VINA RESULT:      -5.9     12.474     14.011
REMARK  9 active torsions:
REMARK  status: ('A' for Active; 'I' for Inactive)
REMARK    1  A    between atoms: N_6  and  C_10 
REMARK    2  A    between atoms: S_7  and  C_12 
REMARK    3  A    between atoms: C_8  and  C_9 
REMARK    4  A    between atoms: C_9  and  C_17 
REMARK    5  A    between atoms: C_9  and  N_14 
REMARK    6  A    between atoms: C_10  and  C_18 
REMARK    7  A    between atoms: C_10  and  C_11 
REMARK    8  A    between atoms: C_11  and  C_12 
REMARK    9  A    between atoms: O_13  and  C_17 
REMARK       I    between atoms: N_14  and  C_18 
ROOT
HETATM    1  H           1     -36.043  -2.280 -13.132  0.00  0.00     0.163 HD
HETATM    2  N           1     -35.476  -1.790 -12.451  0.00  0.00    -0.343 N 
HETATM    3  C           1     -34.509  -2.464 -11.755  0.00  0.00     0.249 C 
HETATM    4  O           1     -33.832  -1.879 -10.943  0.00  0.00    -0.271 OA
ENDROOT
BRANCH   3   5
HETATM    5  C           1     -34.288  -3.935 -12.002  0.00  0.00     0.275 C 
BRANCH   5   6
HETATM    6  N           1     -33.164  -4.115 -12.978  0.00  0.00    -0.066 N 
HETATM    7  H           1     -33.552  -4.369 -13.914  0.00  0.00     0.275 HD
HETATM    8  H           1     -32.623  -3.224 -13.055  0.00  0.00     0.275 HD
HETATM    9  H           1     -32.531  -4.877 -12.644  0.00  0.00     0.275 HD
ENDBRANCH   5   6
BRANCH   5  10
HETATM   10  C           1     -33.935  -4.624 -10.690  0.00  0.00     0.053 C 
BRANCH  10  11
HETATM   11  C           1     -33.746  -6.115 -10.933  0.00  0.00     0.076 C 
BRANCH  11  12
HETATM   12  S           1     -34.886  -7.050  -9.873  0.00  0.00    -0.173 SA
HETATM   13  C           1     -33.957  -8.608  -9.907  0.00  0.00     0.089 C 
ENDBRANCH  11  12
ENDBRANCH  10  11
ENDBRANCH   5  10
ENDBRANCH   3   5
BRANCH   2  14
HETATM   14  C           1     -35.688  -0.376 -12.215  0.00  0.00     0.214 C 
BRANCH  14  15
HETATM   15  C           1     -36.785  -0.197 -11.193  0.00  0.00     0.199 C 
HETATM   16  O           1     -37.908  -0.710 -11.385  0.00  0.00    -0.646 OA
HETATM   17  O           1     -36.569   0.464 -10.154  0.00  0.00    -0.646 OA
ENDBRANCH  14  15
BRANCH  14  18
HETATM   18  C           1     -36.093   0.301 -13.518  0.00  0.00     0.147 C 
HETATM   19  C           1     -34.848   0.812 -14.231  0.00  0.00     0.042 C 
BRANCH  18  20
HETATM   20  O           1     -36.756  -0.622 -14.337  0.00  0.00    -0.393 OA
HETATM   21  H           1     -37.448  -0.155 -14.772  0.00  0.00     0.210 HD
ENDBRANCH  18  20
ENDBRANCH  14  18
ENDBRANCH   2  14
TORSDOF 9
ENDMDL
MODEL 3
REMARK VINA RESULT:      -5.6     10.314     12.760
REMARK  9 active torsions:
REMARK  status: ('A' for Active; 'I' for Inactive)
REMARK    1  A    between atoms: N_6  and  C_10 
REMARK    2  A    between atoms: S_7  and  C_12 
REMARK    3  A    between atoms: C_8  and  C_9 
REMARK    4  A    between atoms: C_9  and  C_17 
REMARK    5  A    between atoms: C_9  and  N_14 
REMARK    6  A    between atoms: C_10  and  C_18 
REMARK    7  A    between atoms: C_10  and  C_11 
REMARK    8  A    between atoms: C_11  and  C_12 
REMARK    9  A    between atoms: O_13  and  C_17 
REMARK       I    between atoms: N_14  and  C_18 
ROOT
HETATM    1  H           1     -27.372  -7.016 -18.622  0.00  0.00     0.163 HD
HETATM    2  N           1     -26.476  -6.661 -18.312  0.00  0.00    -0.343 N 
HETATM    3  C           1     -25.359  -6.863 -19.077  0.00  0.00     0.249 C 
HETATM    4  O           1     -24.289  -6.439 -18.707  0.00  0.00    -0.271 OA
ENDROOT
BRANCH   3   5
HETATM    5  C           1     -25.463  -7.614 -20.381  0.00  0.00     0.275 C 
BRANCH   5   6
HETATM    6  N           1     -26.905  -7.874 -20.695  0.00  0.00    -0.066 N 
HETATM    7  H           1     -27.504  -7.470 -19.939  0.00  0.00     0.275 HD
HETATM    8  H           1     -27.150  -7.429 -21.608  0.00  0.00     0.275 HD
HETATM    9  H           1     -27.068  -8.904 -20.755  0.00  0.00     0.275 HD
ENDBRANCH   5   6
BRANCH   5  10
HETATM   10  C           1     -24.843  -6.783 -21.498  0.00  0.00     0.053 C 
BRANCH  10  11
HETATM   11  C           1     -24.040  -7.689 -22.421  0.00  0.00     0.076 C 
BRANCH  11  12
HETATM   12  S           1     -22.736  -8.520 -21.469  0.00  0.00    -0.173 SA
HETATM   13  C           1     -21.842  -9.189 -22.899  0.00  0.00     0.089 C 
ENDBRANCH  11  12
ENDBRANCH  10  11
ENDBRANCH   5  10
ENDBRANCH   3   5
BRANCH   2  14
HETATM   14  C           1     -26.377  -5.939 -17.059  0.00  0.00     0.214 C 
BRANCH  14  15
HETATM   15  C           1     -26.493  -6.911 -15.909  0.00  0.00     0.199 C 
HETATM   16  O           1     -25.510  -7.118 -15.164  0.00  0.00    -0.646 OA
HETATM   17  O           1     -27.571  -7.507 -15.701  0.00  0.00    -0.646 OA
ENDBRANCH  14  15
BRANCH  14  18
HETATM   18  C           1     -27.500  -4.914 -16.974  0.00  0.00     0.147 C 
HETATM   19  C           1     -28.642  -5.336 -17.889  0.00  0.00     0.042 C 
BRANCH  18  20
HETATM   20  O           1     -27.962  -4.838 -15.653  0.00  0.00    -0.393 OA
HETATM   21  H           1     -27.452  -5.448 -15.148  0.00  0.00     0.210 HD
ENDBRANCH  18  20
ENDBRANCH  14  18
ENDBRANCH   2  14
TORSDOF 9
ENDMDL
MODEL 4
REMARK VINA RESULT:      -4.8      3.661      6.838
REMARK  9 active torsions:
REMARK  status: ('A' for Active; 'I' for Inactive)
REMARK    1  A    between atoms: N_6  and  C_10 
REMARK    2  A    between atoms: S_7  and  C_12 
REMARK    3  A    between atoms: C_8  and  C_9 
REMARK    4  A    between atoms: C_9  and  C_17 
REMARK    5  A    between atoms: C_9  and  N_14 
REMARK    6  A    between atoms: C_10  and  C_18 
REMARK    7  A    between atoms: C_10  and  C_11 
REMARK    8  A    between atoms: C_11  and  C_12 
REMARK    9  A    between atoms: O_13  and  C_17 
REMARK       I    between atoms: N_14  and  C_18 
ROOT
HETATM    1  H           1     -19.783  -6.675  -4.738  0.00  0.00     0.163 HD
HETATM    2  N           1     -20.794  -6.645  -4.756  0.00  0.00    -0.343 N 
HETATM    3  C           1     -21.438  -5.817  -5.636  0.00  0.00     0.249 C 
HETATM    4  O           1     -22.646  -5.782  -5.657  0.00  0.00    -0.271 OA
ENDROOT
BRANCH   3   5
HETATM    5  C           1     -20.641  -4.951  -6.579  0.00  0.00     0.275 C 
BRANCH   5   6
HETATM    6  N           1     -20.062  -5.801  -7.670  0.00  0.00    -0.066 N 
HETATM    7  H           1     -19.500  -5.202  -8.317  0.00  0.00     0.275 HD
HETATM    8  H           1     -19.446  -6.534  -7.251  0.00  0.00     0.275 HD
HETATM    9  H           1     -20.836  -6.259  -8.202  0.00  0.00     0.275 HD
ENDBRANCH   5   6
BRANCH   5  10
HETATM   10  C           1     -21.551  -3.893  -7.190  0.00  0.00     0.053 C 
BRANCH  10  11
HETATM   11  C           1     -21.810  -4.229  -8.653  0.00  0.00     0.076 C 
BRANCH  11  12
HETATM   12  S           1     -23.582  -4.053  -9.010  0.00  0.00    -0.173 SA
HETATM   13  C           1     -23.508  -4.699 -10.704  0.00  0.00     0.089 C 
ENDBRANCH  11  12
ENDBRANCH  10  11
ENDBRANCH   5  10
ENDBRANCH   3   5
BRANCH   2  14
HETATM   14  C           1     -21.560  -7.479  -3.851  0.00  0.00     0.214 C 
BRANCH  14  15
HETATM   15  C           1     -21.574  -6.848  -2.479  0.00  0.00     0.199 C 
HETATM   16  O           1     -22.286  -5.844  -2.260  0.00  0.00    -0.646 OA
HETATM   17  O           1     -20.874  -7.330  -1.562  0.00  0.00    -0.646 OA
ENDBRANCH  14  15
BRANCH  14  18
HETATM   18  C           1     -20.922  -8.859  -3.769  0.00  0.00     0.147 C 
HETATM   19  C           1     -21.251  -9.645  -5.032  0.00  0.00     0.042 C 
BRANCH  18  20
HETATM   20  O           1     -19.532  -8.724  -3.651  0.00  0.00    -0.393 OA
HETATM   21  H           1     -19.145  -9.455  -4.103  0.00  0.00     0.210 HD
ENDBRANCH  18  20
ENDBRANCH  14  18
ENDBRANCH   2  14
TORSDOF 9
ENDMDL
MODEL 5
REMARK VINA RESULT:      -4.8      2.265      3.360
REMARK  9 active torsions:
REMARK  status: ('A' for Active; 'I' for Inactive)
REMARK    1  A    between atoms: N_6  and  C_10 
REMARK    2  A    between atoms: S_7  and  C_12 
REMARK    3  A    between atoms: C_8  and  C_9 
REMARK    4  A    between atoms: C_9  and  C_17 
REMARK    5  A    between atoms: C_9  and  N_14 
REMARK    6  A    between atoms: C_10  and  C_18 
REMARK    7  A    between atoms: C_10  and  C_11 
REMARK    8  A    between atoms: C_11  and  C_12 
REMARK    9  A    between atoms: O_13  and  C_17 
REMARK       I    between atoms: N_14  and  C_18 
ROOT
HETATM    1  H           1     -22.156  -4.288  -6.285  0.00  0.00     0.163 HD
HETATM    2  N           1     -21.759  -5.042  -6.832  0.00  0.00    -0.343 N 
HETATM    3  C           1     -21.207  -6.125  -6.203  0.00  0.00     0.249 C 
HETATM    4  O           1     -20.733  -7.024  -6.856  0.00  0.00    -0.271 OA
ENDROOT
BRANCH   3   5
HETATM    5  C           1     -21.190  -6.196  -4.697  0.00  0.00     0.275 C 
BRANCH   5   6
HETATM    6  N           1     -22.597  -6.173  -4.180  0.00  0.00    -0.066 N 
HETATM    7  H           1     -22.646  -6.700  -3.278  0.00  0.00     0.275 HD
HETATM    8  H           1     -22.895  -5.184  -4.022  0.00  0.00     0.275 HD
HETATM    9  H           1     -23.232  -6.620  -4.879  0.00  0.00     0.275 HD
ENDBRANCH   5   6
BRANCH   5  10
HETATM   10  C           1     -20.509  -7.485  -4.256  0.00  0.00     0.053 C 
BRANCH  10  11
HETATM   11  C           1     -21.564  -8.500  -3.836  0.00  0.00     0.076 C 
BRANCH  11  12
HETATM   12  S           1     -21.027  -9.339  -2.318  0.00  0.00    -0.173 SA
HETATM   13  C           1     -21.179  -7.896  -1.228  0.00  0.00     0.089 C 
ENDBRANCH  11  12
ENDBRANCH  10  11
ENDBRANCH   5  10
ENDBRANCH   3   5
BRANCH   2  14
HETATM   14  C           1     -21.776  -4.973  -8.280  0.00  0.00     0.214 C 
BRANCH  14  15
HETATM   15  C           1     -20.470  -4.396  -8.770  0.00  0.00     0.199 C 
HETATM   16  O           1     -20.028  -4.717  -9.895  0.00  0.00    -0.646 OA
HETATM   17  O           1     -19.831  -3.597  -8.053  0.00  0.00    -0.646 OA
ENDBRANCH  14  15
BRANCH  14  18
HETATM   18  C           1     -22.927  -4.084  -8.732  0.00  0.00     0.147 C 
HETATM   19  C           1     -23.493  -4.615 -10.042  0.00  0.00     0.042 C 
BRANCH  18  20
HETATM   20  O           1     -23.930  -4.085  -7.754  0.00  0.00    -0.393 OA
HETATM   21  H           1     -24.397  -3.272  -7.838  0.00  0.00     0.210 HD
ENDBRANCH  18  20
ENDBRANCH  14  18
ENDBRANCH   2  14
TORSDOF 9
ENDMDL
MODEL 6
REMARK VINA RESULT:      -4.7      3.787      6.348
REMARK  9 active torsions:
REMARK  status: ('A' for Active; 'I' for Inactive)
REMARK    1  A    between atoms: N_6  and  C_10 
REMARK    2  A    between atoms: S_7  and  C_12 
REMARK    3  A    between atoms: C_8  and  C_9 
REMARK    4  A    between atoms: C_9  and  C_17 
REMARK    5  A    between atoms: C_9  and  N_14 
REMARK    6  A    between atoms: C_10  and  C_18 
REMARK    7  A    between atoms: C_10  and  C_11 
REMARK    8  A    between atoms: C_11  and  C_12 
REMARK    9  A    between atoms: O_13  and  C_17 
REMARK       I    between atoms: N_14  and  C_18 
ROOT
HETATM    1  H           1     -21.736  -6.474  -6.861  0.00  0.00     0.163 HD
HETATM    2  N           1     -21.065  -6.100  -6.200  0.00  0.00    -0.343 N 
HETATM    3  C           1     -20.495  -4.876  -6.425  0.00  0.00     0.249 C 
HETATM    4  O           1     -19.695  -4.430  -5.637  0.00  0.00    -0.271 OA
ENDROOT
BRANCH   3   5
HETATM    5  C           1     -20.865  -4.085  -7.655  0.00  0.00     0.275 C 
BRANCH   5   6
HETATM    6  N           1     -19.638  -3.845  -8.483  0.00  0.00    -0.066 N 
HETATM    7  H           1     -19.254  -2.897  -8.271  0.00  0.00     0.275 HD
HETATM    8  H           1     -18.919  -4.570  -8.259  0.00  0.00     0.275 HD
HETATM    9  H           1     -19.886  -3.902  -9.497  0.00  0.00     0.275 HD
ENDBRANCH   5   6
BRANCH   5  10
HETATM   10  C           1     -21.885  -4.865  -8.474  0.00  0.00     0.053 C 
BRANCH  10  11
HETATM   11  C           1     -23.005  -3.931  -8.913  0.00  0.00     0.076 C 
BRANCH  11  12
HETATM   12  S           1     -23.609  -4.439 -10.549  0.00  0.00    -0.173 SA
HETATM   13  C           1     -22.003  -4.359 -11.388  0.00  0.00     0.089 C 
ENDBRANCH  11  12
ENDBRANCH  10  11
ENDBRANCH   5  10
ENDBRANCH   3   5
BRANCH   2  14
HETATM   14  C           1     -20.711  -6.861  -5.019  0.00  0.00     0.214 C 
BRANCH  14  15
HETATM   15  C           1     -20.325  -8.264  -5.422  0.00  0.00     0.199 C 
HETATM   16  O           1     -21.202  -9.148  -5.524  0.00  0.00    -0.646 OA
HETATM   17  O           1     -19.128  -8.540  -5.654  0.00  0.00    -0.646 OA
ENDBRANCH  14  15
BRANCH  14  18
HETATM   18  C           1     -21.903  -6.914  -4.073  0.00  0.00     0.147 C 
HETATM   19  C           1     -21.544  -6.220  -2.765  0.00  0.00     0.042 C 
BRANCH  18  20
HETATM   20  O           1     -22.996  -6.264  -4.663  0.00  0.00    -0.393 OA
HETATM   21  H           1     -23.272  -6.797  -5.389  0.00  0.00     0.210 HD
ENDBRANCH  18  20
ENDBRANCH  14  18
ENDBRANCH   2  14
TORSDOF 9
ENDMDL
MODEL 7
REMARK VINA RESULT:      -4.6      4.946      8.254
REMARK  9 active torsions:
REMARK  status: ('A' for Active; 'I' for Inactive)
REMARK    1  A    between atoms: N_6  and  C_10 
REMARK    2  A    between atoms: S_7  and  C_12 
REMARK    3  A    between atoms: C_8  and  C_9 
REMARK    4  A    between atoms: C_9  and  C_17 
REMARK    5  A    between atoms: C_9  and  N_14 
REMARK    6  A    between atoms: C_10  and  C_18 
REMARK    7  A    between atoms: C_10  and  C_11 
REMARK    8  A    between atoms: C_11  and  C_12 
REMARK    9  A    between atoms: O_13  and  C_17 
REMARK       I    between atoms: N_14  and  C_18 
ROOT
HETATM    1  H           1     -22.444  -7.648  -2.980  0.00  0.00     0.163 HD
HETATM    2  N           1     -21.500  -8.004  -3.071  0.00  0.00    -0.343 N 
HETATM    3  C           1     -20.812  -7.826  -4.241  0.00  0.00     0.249 C 
HETATM    4  O           1     -19.686  -8.250  -4.349  0.00  0.00    -0.271 OA
ENDROOT
BRANCH   3   5
HETATM    5  C           1     -21.459  -7.102  -5.395  0.00  0.00     0.275 C 
BRANCH   5   6
HETATM    6  N           1     -22.618  -6.295  -4.891  0.00  0.00    -0.066 N 
HETATM    7  H           1     -22.271  -5.563  -4.231  0.00  0.00     0.275 HD
HETATM    8  H           1     -23.100  -5.836  -5.697  0.00  0.00     0.275 HD
HETATM    9  H           1     -23.290  -6.923  -4.395  0.00  0.00     0.275 HD
ENDBRANCH   5   6
BRANCH   5  10
HETATM   10  C           1     -20.442  -6.175  -6.049  0.00  0.00     0.053 C 
BRANCH  10  11
HETATM   11  C           1     -20.967  -5.719  -7.403  0.00  0.00     0.076 C 
BRANCH  11  12
HETATM   12  S           1     -21.205  -3.918  -7.384  0.00  0.00    -0.173 SA
HETATM   13  C           1     -22.571  -3.886  -8.578  0.00  0.00     0.089 C 
ENDBRANCH  11  12
ENDBRANCH  10  11
ENDBRANCH   5  10
ENDBRANCH   3   5
BRANCH   2  14
HETATM   14  C           1     -20.879  -8.699  -1.961  0.00  0.00     0.214 C 
BRANCH  14  15
HETATM   15  C           1     -21.342 -10.136  -1.946  0.00  0.00     0.199 C 
HETATM   16  O           1     -22.505 -10.421  -2.305  0.00  0.00    -0.646 OA
HETATM   17  O           1     -20.564 -11.040  -1.575  0.00  0.00    -0.646 OA
ENDBRANCH  14  15
BRANCH  14  18
HETATM   18  C           1     -21.272  -8.024  -0.654  0.00  0.00     0.147 C 
HETATM   19  C           1     -22.333  -6.966  -0.929  0.00  0.00     0.042 C 
BRANCH  18  20
HETATM   20  O           1     -21.786  -8.983   0.229  0.00  0.00    -0.393 OA
HETATM   21  H           1     -22.636  -9.227  -0.094  0.00  0.00     0.210 HD
ENDBRANCH  18  20
ENDBRANCH  14  18
ENDBRANCH   2  14
TORSDOF 9
ENDMDL
MODEL 8
REMARK VINA RESULT:      -4.6      5.736      8.421
REMARK  9 active torsions:
REMARK  status: ('A' for Active; 'I' for Inactive)
REMARK    1  A    between atoms: N_6  and  C_10 
REMARK    2  A    between atoms: S_7  and  C_12 
REMARK    3  A    between atoms: C_8  and  C_9 
REMARK    4  A    between atoms: C_9  and  C_17 
REMARK    5  A    between atoms: C_9  and  N_14 
REMARK    6  A    between atoms: C_10  and  C_18 
REMARK    7  A    between atoms: C_10  and  C_11 
REMARK    8  A    between atoms: C_11  and  C_12 
REMARK    9  A    between atoms: O_13  and  C_17 
REMARK       I    between atoms: N_14  and  C_18 
ROOT
HETATM    1  H           1     -22.310  -8.193  -3.091  0.00  0.00     0.163 HD
HETATM    2  N           1     -21.431  -8.454  -2.660  0.00  0.00    -0.343 N 
HETATM    3  C           1     -20.300  -8.558  -3.424  0.00  0.00     0.249 C 
HETATM    4  O           1     -19.252  -8.869  -2.909  0.00  0.00    -0.271 OA
ENDROOT
BRANCH   3   5
HETATM    5  C           1     -20.361  -8.283  -4.906  0.00  0.00     0.275 C 
BRANCH   5   6
HETATM    6  N           1     -20.825  -9.515  -5.623  0.00  0.00    -0.066 N 
HETATM    7  H           1     -19.996 -10.051  -5.967  0.00  0.00     0.275 HD
HETATM    8  H           1     -21.380 -10.112  -4.969  0.00  0.00     0.275 HD
HETATM    9  H           1     -21.424  -9.240  -6.435  0.00  0.00     0.275 HD
ENDBRANCH   5   6
BRANCH   5  10
HETATM   10  C           1     -21.336  -7.144  -5.172  0.00  0.00     0.053 C 
BRANCH  10  11
HETATM   11  C           1     -20.565  -5.905  -5.607  0.00  0.00     0.076 C 
BRANCH  11  12
HETATM   12  S           1     -20.914  -5.557  -7.354  0.00  0.00    -0.173 SA
HETATM   13  C           1     -21.201  -3.777  -7.149  0.00  0.00     0.089 C 
ENDBRANCH  11  12
ENDBRANCH  10  11
ENDBRANCH   5  10
ENDBRANCH   3   5
BRANCH   2  14
HETATM   14  C           1     -21.373  -8.717  -1.236  0.00  0.00     0.214 C 
BRANCH  14  15
HETATM   15  C           1     -22.145  -9.977  -0.926  0.00  0.00     0.199 C 
HETATM   16  O           1     -23.017 -10.387  -1.723  0.00  0.00    -0.646 OA
HETATM   17  O           1     -21.912 -10.610   0.126  0.00  0.00    -0.646 OA
ENDBRANCH  14  15
BRANCH  14  18
HETATM   18  C           1     -21.985  -7.546  -0.478  0.00  0.00     0.147 C 
HETATM   19  C           1     -22.325  -6.430  -1.457  0.00  0.00     0.042 C 
BRANCH  18  20
HETATM   20  O           1     -23.152  -7.971   0.171  0.00  0.00    -0.393 OA
HETATM   21  H           1     -22.916  -8.166   1.062  0.00  0.00     0.210 HD
ENDBRANCH  18  20
ENDBRANCH  14  18
ENDBRANCH   2  14
TORSDOF 9
ENDMDL
MODEL 9
REMARK VINA RESULT:      -4.3      5.090      7.027
REMARK  9 active torsions:
REMARK  status: ('A' for Active; 'I' for Inactive)
REMARK    1  A    between atoms: N_6  and  C_10 
REMARK    2  A    between atoms: S_7  and  C_12 
REMARK    3  A    between atoms: C_8  and  C_9 
REMARK    4  A    between atoms: C_9  and  C_17 
REMARK    5  A    between atoms: C_9  and  N_14 
REMARK    6  A    between atoms: C_10  and  C_18 
REMARK    7  A    between atoms: C_10  and  C_11 
REMARK    8  A    between atoms: C_11  and  C_12 
REMARK    9  A    between atoms: O_13  and  C_17 
REMARK       I    between atoms: N_14  and  C_18 
ROOT
HETATM    1  H           1     -19.457  -7.848  -3.649  0.00  0.00     0.163 HD
HETATM    2  N           1     -20.239  -8.203  -4.184  0.00  0.00    -0.343 N 
HETATM    3  C           1     -20.057  -9.249  -5.048  0.00  0.00     0.249 C 
HETATM    4  O           1     -20.991  -9.674  -5.686  0.00  0.00    -0.271 OA
ENDROOT
BRANCH   3   5
HETATM    5  C           1     -18.692  -9.873  -5.202  0.00  0.00     0.275 C 
BRANCH   5   6
HETATM    6  N           1     -17.991  -9.256  -6.375  0.00  0.00    -0.066 N 
HETATM    7  H           1     -17.064  -9.718  -6.509  0.00  0.00     0.275 HD
HETATM    8  H           1     -18.572  -9.383  -7.235  0.00  0.00     0.275 HD
HETATM    9  H           1     -17.850  -8.235  -6.199  0.00  0.00     0.275 HD
ENDBRANCH   5   6
BRANCH   5  10
HETATM   10  C           1     -17.877  -9.630  -3.939  0.00  0.00     0.053 C 
BRANCH  10  11
HETATM   11  C           1     -16.393  -9.761  -4.259  0.00  0.00     0.076 C 
BRANCH  11  12
HETATM   12  S           1     -15.773 -11.342  -3.617  0.00  0.00    -0.173 SA
HETATM   13  C           1     -16.113 -10.995  -1.869  0.00  0.00     0.089 C 
ENDBRANCH  11  12
ENDBRANCH  10  11
ENDBRANCH   5  10
ENDBRANCH   3   5
BRANCH   2  14
HETATM   14  C           1     -21.551  -7.605  -4.034  0.00  0.00     0.214 C 
BRANCH  14  15
HETATM   15  C           1     -21.612  -6.324  -4.833  0.00  0.00     0.199 C 
HETATM   16  O           1     -20.571  -5.662  -5.032  0.00  0.00    -0.646 OA
HETATM   17  O           1     -22.703  -5.928  -5.295  0.00  0.00    -0.646 OA
ENDBRANCH  14  15
BRANCH  14  18
HETATM   18  C           1     -21.805  -7.299  -2.564  0.00  0.00     0.147 C 
HETATM   19  C           1     -20.582  -7.693  -1.746  0.00  0.00     0.042 C 
BRANCH  18  20
HETATM   20  O           1     -22.051  -5.928  -2.408  0.00  0.00    -0.393 OA
HETATM   21  H           1     -21.215  -5.495  -2.435  0.00  0.00     0.210 HD
ENDBRANCH  18  20
ENDBRANCH  14  18
ENDBRANCH   2  14
TORSDOF 9
ENDMDL
