MODEL 1
REMARK VINA RESULT:      -7.4      0.000      0.000
REMARK  8 active torsions:
REMARK  status: ('A' for Active; 'I' for Inactive)
REMARK    1  A    between atoms: C_2  and  C_6 
REMARK    2  A    between atoms: C_4  and  C_5 
REMARK    3  A    between atoms: C_5  and  C_6 
REMARK    4  A    between atoms: C_6  and  N_10 
REMARK       I    between atoms: N_10  and  C_11 
REMARK    5  A    between atoms: C_11  and  C_18 
REMARK    6  A    between atoms: N_16  and  C_18 
REMARK    7  A    between atoms: C_18  and  C_24 
REMARK    8  A    between atoms: C_23  and  C_24 
ROOT
HETATM    1  N           1     -36.439   0.017 -11.698  0.00  0.00    -0.344 N 
HETATM    2  C           1     -36.548  -0.403 -12.997  0.00  0.00     0.249 C 
HETATM    3  O           1     -37.631  -0.691 -13.450  0.00  0.00    -0.271 OA
HETATM    4  H           1     -36.512   1.001 -11.476  0.00  0.00     0.163 HD
ENDROOT
BRANCH   1   5
HETATM    5  C           1     -36.219  -0.951 -10.641  0.00  0.00     0.189 C 
BRANCH   5   6
HETATM    6  C           1     -36.762  -0.407  -9.342  0.00  0.00     0.197 C 
HETATM    7  O           1     -37.996  -0.344  -9.156  0.00  0.00    -0.646 OA
HETATM    8  O           1     -35.976  -0.019  -8.451  0.00  0.00    -0.646 OA
ENDBRANCH   5   6
BRANCH   5   9
HETATM    9  C           1     -34.726  -1.215 -10.497  0.00  0.00     0.074 C 
BRANCH   9  10
HETATM   10  C           1     -34.436  -2.643 -10.841  0.00  0.00    -0.056 A 
HETATM   11  C           1     -33.151  -3.018 -11.233  0.00  0.00     0.007 A 
HETATM   12  C           1     -32.882  -4.350 -11.554  0.00  0.00     0.001 A 
HETATM   13  C           1     -33.897  -5.304 -11.482  0.00  0.00     0.000 A 
HETATM   14  C           1     -35.181  -4.927 -11.090  0.00  0.00     0.001 A 
HETATM   15  C           1     -35.451  -3.596 -10.770  0.00  0.00     0.007 A 
ENDBRANCH   9  10
ENDBRANCH   5   9
ENDBRANCH   1   5
BRANCH   2  16
HETATM   16  C           1     -35.317  -0.504 -13.864  0.00  0.00     0.284 C 
BRANCH  16  17
HETATM   17  N           1     -34.999  -1.949 -14.111  0.00  0.00    -0.066 N 
HETATM   18  H           1     -34.081  -2.024 -14.605  0.00  0.00     0.275 HD
HETATM   19  H           1     -34.943  -2.454 -13.198  0.00  0.00     0.275 HD
HETATM   20  H           1     -35.748  -2.375 -14.702  0.00  0.00     0.275 HD
ENDBRANCH  16  17
BRANCH  16  21
HETATM   21  C           1     -35.573   0.193 -15.193  0.00  0.00     0.155 C 
BRANCH  21  22
HETATM   22  C           1     -35.801  -0.839 -16.269  0.00  0.00     0.175 C 
HETATM   23  O           1     -34.830  -1.438 -16.777  0.00  0.00    -0.648 OA
HETATM   24  O           1     -36.964  -1.097 -16.651  0.00  0.00    -0.648 OA
ENDBRANCH  21  22
ENDBRANCH  16  21
ENDBRANCH   2  16
TORSDOF 8
ENDMDL
MODEL 2
REMARK VINA RESULT:      -7.2      2.522      4.802
REMARK  8 active torsions:
REMARK  status: ('A' for Active; 'I' for Inactive)
REMARK    1  A    between atoms: C_2  and  C_6 
REMARK    2  A    between atoms: C_4  and  C_5 
REMARK    3  A    between atoms: C_5  and  C_6 
REMARK    4  A    between atoms: C_6  and  N_10 
REMARK       I    between atoms: N_10  and  C_11 
REMARK    5  A    between atoms: C_11  and  C_18 
REMARK    6  A    between atoms: N_16  and  C_18 
REMARK    7  A    between atoms: C_18  and  C_24 
REMARK    8  A    between atoms: C_23  and  C_24 
ROOT
HETATM    1  N           1     -35.834  -1.199 -10.037  0.00  0.00    -0.344 N 
HETATM    2  C           1     -34.816  -1.893 -10.634  0.00  0.00     0.249 C 
HETATM    3  O           1     -33.668  -1.649 -10.347  0.00  0.00    -0.271 OA
HETATM    4  H           1     -36.242  -1.540  -9.176  0.00  0.00     0.163 HD
ENDROOT
BRANCH   1   5
HETATM    5  C           1     -36.325   0.026 -10.638  0.00  0.00     0.189 C 
BRANCH   5   6
HETATM    6  C           1     -36.954   0.891  -9.573  0.00  0.00     0.197 C 
HETATM    7  O           1     -38.073   1.410  -9.768  0.00  0.00    -0.646 OA
HETATM    8  O           1     -36.354   1.087  -8.494  0.00  0.00    -0.646 OA
ENDBRANCH   5   6
BRANCH   5   9
HETATM    9  C           1     -37.367  -0.312 -11.697  0.00  0.00     0.074 C 
BRANCH   9  10
HETATM   10  C           1     -36.834   0.042 -13.051  0.00  0.00    -0.056 A 
HETATM   11  C           1     -35.517   0.476 -13.190  0.00  0.00     0.007 A 
HETATM   12  C           1     -35.020   0.806 -14.452  0.00  0.00     0.001 A 
HETATM   13  C           1     -35.843   0.700 -15.574  0.00  0.00     0.000 A 
HETATM   14  C           1     -37.160   0.267 -15.434  0.00  0.00     0.001 A 
HETATM   15  C           1     -37.657  -0.063 -14.172  0.00  0.00     0.007 A 
ENDBRANCH   9  10
ENDBRANCH   5   9
ENDBRANCH   1   5
BRANCH   2  16
HETATM   16  C           1     -35.128  -2.965 -11.650  0.00  0.00     0.284 C 
BRANCH  16  17
HETATM   17  N           1     -33.999  -3.062 -12.634  0.00  0.00    -0.066 N 
HETATM   18  H           1     -33.231  -2.414 -12.348  0.00  0.00     0.275 HD
HETATM   19  H           1     -33.637  -4.042 -12.652  0.00  0.00     0.275 HD
HETATM   20  H           1     -34.341  -2.798 -13.585  0.00  0.00     0.275 HD
ENDBRANCH  16  17
BRANCH  16  21
HETATM   21  C           1     -35.300  -4.302 -10.942  0.00  0.00     0.155 C 
BRANCH  21  22
HETATM   22  C           1     -34.588  -5.381 -11.720  0.00  0.00     0.175 C 
HETATM   23  O           1     -33.490  -5.820 -11.318  0.00  0.00    -0.648 OA
HETATM   24  O           1     -35.098  -5.837 -12.766  0.00  0.00    -0.648 OA
ENDBRANCH  21  22
ENDBRANCH  16  21
ENDBRANCH   2  16
TORSDOF 8
ENDMDL
MODEL 3
REMARK VINA RESULT:      -6.7      8.968     11.131
REMARK  8 active torsions:
REMARK  status: ('A' for Active; 'I' for Inactive)
REMARK    1  A    between atoms: C_2  and  C_6 
REMARK    2  A    between atoms: C_4  and  C_5 
REMARK    3  A    between atoms: C_5  and  C_6 
REMARK    4  A    between atoms: C_6  and  N_10 
REMARK       I    between atoms: N_10  and  C_11 
REMARK    5  A    between atoms: C_11  and  C_18 
REMARK    6  A    between atoms: N_16  and  C_18 
REMARK    7  A    between atoms: C_18  and  C_24 
REMARK    8  A    between atoms: C_23  and  C_24 
ROOT
HETATM    1  N           1     -28.685  -7.351 -16.717  0.00  0.00    -0.344 N 
HETATM    2  C           1     -29.789  -7.118 -17.492  0.00  0.00     0.249 C 
HETATM    3  O           1     -30.087  -7.895 -18.368  0.00  0.00    -0.271 OA
HETATM    4  H           1     -28.770  -7.887 -15.863  0.00  0.00     0.163 HD
ENDROOT
BRANCH   1   5
HETATM    5  C           1     -27.393  -6.828 -17.120  0.00  0.00     0.189 C 
BRANCH   5   6
HETATM    6  C           1     -26.935  -5.796 -16.119  0.00  0.00     0.197 C 
HETATM    7  O           1     -27.766  -5.031 -15.583  0.00  0.00    -0.646 OA
HETATM    8  O           1     -25.724  -5.705 -15.825  0.00  0.00    -0.646 OA
ENDBRANCH   5   6
BRANCH   5   9
HETATM    9  C           1     -27.514  -6.183 -18.495  0.00  0.00     0.074 C 
BRANCH   9  10
HETATM   10  C           1     -26.550  -6.835 -19.437  0.00  0.00    -0.056 A 
HETATM   11  C           1     -25.178  -6.740 -19.207  0.00  0.00     0.007 A 
HETATM   12  C           1     -24.280  -7.347 -20.086  0.00  0.00     0.001 A 
HETATM   13  C           1     -24.755  -8.049 -21.194  0.00  0.00     0.000 A 
HETATM   14  C           1     -26.127  -8.143 -21.424  0.00  0.00     0.001 A 
HETATM   15  C           1     -27.026  -7.536 -20.545  0.00  0.00     0.007 A 
ENDBRANCH   9  10
ENDBRANCH   5   9
ENDBRANCH   1   5
BRANCH   2  16
HETATM   16  C           1     -30.635  -5.891 -17.253  0.00  0.00     0.284 C 
BRANCH  16  17
HETATM   17  N           1     -30.555  -5.507 -15.805  0.00  0.00    -0.066 N 
HETATM   18  H           1     -31.169  -4.679 -15.630  0.00  0.00     0.275 HD
HETATM   19  H           1     -30.875  -6.307 -15.214  0.00  0.00     0.275 HD
HETATM   20  H           1     -29.568  -5.265 -15.561  0.00  0.00     0.275 HD
ENDBRANCH  16  17
BRANCH  16  21
HETATM   21  C           1     -30.119  -4.743 -18.110  0.00  0.00     0.155 C 
BRANCH  21  22
HETATM   22  C           1     -30.699  -3.442 -17.615  0.00  0.00     0.175 C 
HETATM   23  O           1     -29.942  -2.529 -17.223  0.00  0.00    -0.648 OA
HETATM   24  O           1     -31.938  -3.276 -17.599  0.00  0.00    -0.648 OA
ENDBRANCH  21  22
ENDBRANCH  16  21
ENDBRANCH   2  16
TORSDOF 8
ENDMDL
MODEL 4
REMARK VINA RESULT:      -6.4     17.507     19.844
REMARK  8 active torsions:
REMARK  status: ('A' for Active; 'I' for Inactive)
REMARK    1  A    between atoms: C_2  and  C_6 
REMARK    2  A    between atoms: C_4  and  C_5 
REMARK    3  A    between atoms: C_5  and  C_6 
REMARK    4  A    between atoms: C_6  and  N_10 
REMARK       I    between atoms: N_10  and  C_11 
REMARK    5  A    between atoms: C_11  and  C_18 
REMARK    6  A    between atoms: N_16  and  C_18 
REMARK    7  A    between atoms: C_18  and  C_24 
REMARK    8  A    between atoms: C_23  and  C_24 
ROOT
HETATM    1  N           1     -19.664  -8.221  -4.604  0.00  0.00    -0.344 N 
HETATM    2  C           1     -19.307  -9.531  -4.778  0.00  0.00     0.249 C 
HETATM    3  O           1     -19.452 -10.059  -5.855  0.00  0.00    -0.271 OA
HETATM    4  H           1     -18.988  -7.486  -4.771  0.00  0.00     0.163 HD
ENDROOT
BRANCH   1   5
HETATM    5  C           1     -21.010  -7.887  -4.180  0.00  0.00     0.189 C 
BRANCH   5   6
HETATM    6  C           1     -21.677  -7.048  -5.243  0.00  0.00     0.197 C 
HETATM    7  O           1     -22.644  -6.315  -4.946  0.00  0.00    -0.646 OA
HETATM    8  O           1     -21.261  -7.086  -6.421  0.00  0.00    -0.646 OA
ENDBRANCH   5   6
BRANCH   5   9
HETATM    9  C           1     -20.952  -7.102  -2.876  0.00  0.00     0.074 C 
BRANCH   9  10
HETATM   10  C           1     -21.699  -7.846  -1.813  0.00  0.00    -0.056 A 
HETATM   11  C           1     -21.822  -9.233  -1.887  0.00  0.00     0.007 A 
HETATM   12  C           1     -22.519  -9.925  -0.895  0.00  0.00     0.001 A 
HETATM   13  C           1     -23.092  -9.229   0.169  0.00  0.00     0.000 A 
HETATM   14  C           1     -22.970  -7.843   0.242  0.00  0.00     0.001 A 
HETATM   15  C           1     -22.273  -7.150  -0.749  0.00  0.00     0.007 A 
ENDBRANCH   9  10
ENDBRANCH   5   9
ENDBRANCH   1   5
BRANCH   2  16
HETATM   16  C           1     -18.732 -10.317  -3.624  0.00  0.00     0.284 C 
BRANCH  16  17
HETATM   17  N           1     -17.943 -11.477  -4.155  0.00  0.00    -0.066 N 
HETATM   18  H           1     -17.624 -12.074  -3.359  0.00  0.00     0.275 HD
HETATM   19  H           1     -18.546 -12.043  -4.794  0.00  0.00     0.275 HD
HETATM   20  H           1     -17.112 -11.123  -4.680  0.00  0.00     0.275 HD
ENDBRANCH  16  17
BRANCH  16  21
HETATM   21  C           1     -17.819  -9.417  -2.802  0.00  0.00     0.155 C 
BRANCH  21  22
HETATM   22  C           1     -16.380  -9.794  -3.052  0.00  0.00     0.175 C 
HETATM   23  O           1     -15.741 -10.431  -2.188  0.00  0.00    -0.648 OA
HETATM   24  O           1     -15.826  -9.471  -4.125  0.00  0.00    -0.648 OA
ENDBRANCH  21  22
ENDBRANCH  16  21
ENDBRANCH   2  16
TORSDOF 8
ENDMDL
MODEL 5
REMARK VINA RESULT:      -6.4     16.842     18.688
REMARK  8 active torsions:
REMARK  status: ('A' for Active; 'I' for Inactive)
REMARK    1  A    between atoms: C_2  and  C_6 
REMARK    2  A    between atoms: C_4  and  C_5 
REMARK    3  A    between atoms: C_5  and  C_6 
REMARK    4  A    between atoms: C_6  and  N_10 
REMARK       I    between atoms: N_10  and  C_11 
REMARK    5  A    between atoms: C_11  and  C_18 
REMARK    6  A    between atoms: N_16  and  C_18 
REMARK    7  A    between atoms: C_18  and  C_24 
REMARK    8  A    between atoms: C_23  and  C_24 
ROOT
HETATM    1  N           1     -21.071  -7.624  -1.864  0.00  0.00    -0.344 N 
HETATM    2  C           1     -21.706  -6.797  -2.752  0.00  0.00     0.249 C 
HETATM    3  O           1     -22.131  -5.727  -2.384  0.00  0.00    -0.271 OA
HETATM    4  H           1     -20.069  -7.555  -1.736  0.00  0.00     0.163 HD
ENDROOT
BRANCH   1   5
HETATM    5  C           1     -21.835  -8.597  -1.108  0.00  0.00     0.189 C 
BRANCH   5   6
HETATM    6  C           1     -22.300  -7.974   0.186  0.00  0.00     0.197 C 
HETATM    7  O           1     -23.444  -7.476   0.265  0.00  0.00    -0.646 OA
HETATM    8  O           1     -21.542  -7.957   1.179  0.00  0.00    -0.646 OA
ENDBRANCH   5   6
BRANCH   5   9
HETATM    9  C           1     -20.958  -9.805  -0.803  0.00  0.00     0.074 C 
BRANCH   9  10
HETATM   10  C           1     -21.814 -10.936  -0.326  0.00  0.00    -0.056 A 
HETATM   11  C           1     -23.070 -11.147  -0.894  0.00  0.00     0.007 A 
HETATM   12  C           1     -23.869 -12.202  -0.448  0.00  0.00     0.001 A 
HETATM   13  C           1     -23.410 -13.044   0.565  0.00  0.00     0.000 A 
HETATM   14  C           1     -22.154 -12.831   1.133  0.00  0.00     0.001 A 
HETATM   15  C           1     -21.356 -11.777   0.688  0.00  0.00     0.007 A 
ENDBRANCH   9  10
ENDBRANCH   5   9
ENDBRANCH   1   5
BRANCH   2  16
HETATM   16  C           1     -21.873  -7.221  -4.191  0.00  0.00     0.284 C 
BRANCH  16  17
HETATM   17  N           1     -22.731  -6.221  -4.908  0.00  0.00    -0.066 N 
HETATM   18  H           1     -23.717  -6.566  -4.939  0.00  0.00     0.275 HD
HETATM   19  H           1     -22.699  -5.308  -4.400  0.00  0.00     0.275 HD
HETATM   20  H           1     -22.377  -6.092  -5.883  0.00  0.00     0.275 HD
ENDBRANCH  16  17
BRANCH  16  21
HETATM   21  C           1     -20.508  -7.291  -4.862  0.00  0.00     0.155 C 
BRANCH  21  22
HETATM   22  C           1     -20.398  -6.201  -5.898  0.00  0.00     0.175 C 
HETATM   23  O           1     -20.583  -6.464  -7.105  0.00  0.00    -0.648 OA
HETATM   24  O           1     -20.123  -5.032  -5.549  0.00  0.00    -0.648 OA
ENDBRANCH  21  22
ENDBRANCH  16  21
ENDBRANCH   2  16
TORSDOF 8
ENDMDL
MODEL 6
REMARK VINA RESULT:      -6.4      8.720     10.926
REMARK  8 active torsions:
REMARK  status: ('A' for Active; 'I' for Inactive)
REMARK    1  A    between atoms: C_2  and  C_6 
REMARK    2  A    between atoms: C_4  and  C_5 
REMARK    3  A    between atoms: C_5  and  C_6 
REMARK    4  A    between atoms: C_6  and  N_10 
REMARK       I    between atoms: N_10  and  C_11 
REMARK    5  A    between atoms: C_11  and  C_18 
REMARK    6  A    between atoms: N_16  and  C_18 
REMARK    7  A    between atoms: C_18  and  C_24 
REMARK    8  A    between atoms: C_23  and  C_24 
ROOT
HETATM    1  N           1     -28.195  -5.159 -16.251  0.00  0.00    -0.344 N 
HETATM    2  C           1     -29.372  -5.567 -15.682  0.00  0.00     0.249 C 
HETATM    3  O           1     -29.383  -5.982 -14.547  0.00  0.00    -0.271 OA
HETATM    4  H           1     -27.898  -4.196 -16.164  0.00  0.00     0.163 HD
ENDROOT
BRANCH   1   5
HETATM    5  C           1     -27.374  -6.109 -16.976  0.00  0.00     0.189 C 
BRANCH   5   6
HETATM    6  C           1     -26.200  -6.516 -16.119  0.00  0.00     0.197 C 
HETATM    7  O           1     -26.299  -7.491 -15.344  0.00  0.00    -0.646 OA
HETATM    8  O           1     -25.129  -5.876 -16.185  0.00  0.00    -0.646 OA
ENDBRANCH   5   6
BRANCH   5   9
HETATM    9  C           1     -26.867  -5.465 -18.260  0.00  0.00     0.074 C 
BRANCH   9  10
HETATM   10  C           1     -26.745  -6.508 -19.327  0.00  0.00    -0.056 A 
HETATM   11  C           1     -27.871  -7.220 -19.738  0.00  0.00     0.007 A 
HETATM   12  C           1     -27.757  -8.193 -20.733  0.00  0.00     0.001 A 
HETATM   13  C           1     -26.517  -8.451 -21.316  0.00  0.00     0.000 A 
HETATM   14  C           1     -25.391  -7.738 -20.904  0.00  0.00     0.001 A 
HETATM   15  C           1     -25.504  -6.766 -19.910  0.00  0.00     0.007 A 
ENDBRANCH   9  10
ENDBRANCH   5   9
ENDBRANCH   1   5
BRANCH   2  16
HETATM   16  C           1     -30.656  -5.496 -16.472  0.00  0.00     0.284 C 
BRANCH  16  17
HETATM   17  N           1     -31.688  -4.749 -15.680  0.00  0.00    -0.066 N 
HETATM   18  H           1     -31.557  -3.721 -15.819  0.00  0.00     0.275 HD
HETATM   19  H           1     -32.642  -5.024 -16.004  0.00  0.00     0.275 HD
HETATM   20  H           1     -31.583  -4.978 -14.666  0.00  0.00     0.275 HD
ENDBRANCH  16  17
BRANCH  16  21
HETATM   21  C           1     -30.404  -4.771 -17.787  0.00  0.00     0.155 C 
BRANCH  21  22
HETATM   22  C           1     -30.815  -3.326 -17.654  0.00  0.00     0.175 C 
HETATM   23  O           1     -31.989  -2.983 -17.908  0.00  0.00    -0.648 OA
HETATM   24  O           1     -29.980  -2.470 -17.288  0.00  0.00    -0.648 OA
ENDBRANCH  21  22
ENDBRANCH  16  21
ENDBRANCH   2  16
TORSDOF 8
ENDMDL
MODEL 7
REMARK VINA RESULT:      -6.4     10.091     13.010
REMARK  8 active torsions:
REMARK  status: ('A' for Active; 'I' for Inactive)
REMARK    1  A    between atoms: C_2  and  C_6 
REMARK    2  A    between atoms: C_4  and  C_5 
REMARK    3  A    between atoms: C_5  and  C_6 
REMARK    4  A    between atoms: C_6  and  N_10 
REMARK       I    between atoms: N_10  and  C_11 
REMARK    5  A    between atoms: C_11  and  C_18 
REMARK    6  A    between atoms: N_16  and  C_18 
REMARK    7  A    between atoms: C_18  and  C_24 
REMARK    8  A    between atoms: C_23  and  C_24 
ROOT
HETATM    1  N           1     -25.424  -6.335 -18.895  0.00  0.00    -0.344 N 
HETATM    2  C           1     -24.444  -7.074 -18.288  0.00  0.00     0.249 C 
HETATM    3  O           1     -23.421  -7.322 -18.880  0.00  0.00    -0.271 OA
HETATM    4  H           1     -25.426  -5.327 -18.805  0.00  0.00     0.163 HD
ENDROOT
BRANCH   1   5
HETATM    5  C           1     -26.459  -6.997 -19.666  0.00  0.00     0.189 C 
BRANCH   5   6
HETATM    6  C           1     -25.860  -7.553 -20.935  0.00  0.00     0.197 C 
HETATM    7  O           1     -26.268  -8.641 -21.395  0.00  0.00    -0.646 OA
HETATM    8  O           1     -24.955  -6.925 -21.526  0.00  0.00    -0.646 OA
ENDBRANCH   5   6
BRANCH   5   9
HETATM    9  C           1     -27.550  -5.994 -20.017  0.00  0.00     0.074 C 
BRANCH   9  10
HETATM   10  C           1     -28.597  -6.001 -18.947  0.00  0.00    -0.056 A 
HETATM   11  C           1     -29.021  -7.209 -18.395  0.00  0.00     0.007 A 
HETATM   12  C           1     -29.998  -7.215 -17.398  0.00  0.00     0.001 A 
HETATM   13  C           1     -30.548  -6.013 -16.953  0.00  0.00     0.000 A 
HETATM   14  C           1     -30.123  -4.806 -17.506  0.00  0.00     0.001 A 
HETATM   15  C           1     -29.147  -4.799 -18.503  0.00  0.00     0.007 A 
ENDBRANCH   9  10
ENDBRANCH   5   9
ENDBRANCH   1   5
BRANCH   2  16
HETATM   16  C           1     -24.642  -7.579 -16.879  0.00  0.00     0.284 C 
BRANCH  16  17
HETATM   17  N           1     -23.362  -8.181 -16.382  0.00  0.00    -0.066 N 
HETATM   18  H           1     -23.359  -9.207 -16.581  0.00  0.00     0.275 HD
HETATM   19  H           1     -22.554  -7.731 -16.868  0.00  0.00     0.275 HD
HETATM   20  H           1     -23.281  -8.027 -15.351  0.00  0.00     0.275 HD
ENDBRANCH  16  17
BRANCH  16  21
HETATM   21  C           1     -25.041  -6.419 -15.976  0.00  0.00     0.155 C 
BRANCH  21  22
HETATM   22  C           1     -26.519  -6.493 -15.682  0.00  0.00     0.175 C 
HETATM   23  O           1     -27.040  -7.584 -15.366  0.00  0.00    -0.648 OA
HETATM   24  O           1     -27.223  -5.462 -15.753  0.00  0.00    -0.648 OA
ENDBRANCH  21  22
ENDBRANCH  16  21
ENDBRANCH   2  16
TORSDOF 8
ENDMDL
MODEL 8
REMARK VINA RESULT:      -6.3      9.938     12.203
REMARK  8 active torsions:
REMARK  status: ('A' for Active; 'I' for Inactive)
REMARK    1  A    between atoms: C_2  and  C_6 
REMARK    2  A    between atoms: C_4  and  C_5 
REMARK    3  A    between atoms: C_5  and  C_6 
REMARK    4  A    between atoms: C_6  and  N_10 
REMARK       I    between atoms: N_10  and  C_11 
REMARK    5  A    between atoms: C_11  and  C_18 
REMARK    6  A    between atoms: N_16  and  C_18 
REMARK    7  A    between atoms: C_18  and  C_24 
REMARK    8  A    between atoms: C_23  and  C_24 
ROOT
HETATM    1  N           1     -25.622  -7.245 -18.197  0.00  0.00    -0.344 N 
HETATM    2  C           1     -25.050  -6.720 -19.325  0.00  0.00     0.249 C 
HETATM    3  O           1     -23.902  -6.343 -19.301  0.00  0.00    -0.271 OA
HETATM    4  H           1     -25.565  -8.239 -18.016  0.00  0.00     0.163 HD
ENDROOT
BRANCH   1   5
HETATM    5  C           1     -26.309  -6.374 -17.262  0.00  0.00     0.189 C 
BRANCH   5   6
HETATM    6  C           1     -25.621  -6.437 -15.920  0.00  0.00     0.197 C 
HETATM    7  O           1     -25.840  -7.396 -15.149  0.00  0.00    -0.646 OA
HETATM    8  O           1     -24.833  -5.529 -15.579  0.00  0.00    -0.646 OA
ENDBRANCH   5   6
BRANCH   5   9
HETATM    9  C           1     -27.755  -6.830 -17.114  0.00  0.00     0.074 C 
BRANCH   9  10
HETATM   10  C           1     -28.664  -5.644 -17.208  0.00  0.00    -0.056 A 
HETATM   11  C           1     -30.046  -5.826 -17.243  0.00  0.00     0.007 A 
HETATM   12  C           1     -30.893  -4.720 -17.331  0.00  0.00     0.001 A 
HETATM   13  C           1     -30.356  -3.433 -17.384  0.00  0.00     0.000 A 
HETATM   14  C           1     -28.974  -3.253 -17.350  0.00  0.00     0.001 A 
HETATM   15  C           1     -28.127  -4.358 -17.262  0.00  0.00     0.007 A 
ENDBRANCH   9  10
ENDBRANCH   5   9
ENDBRANCH   1   5
BRANCH   2  16
HETATM   16  C           1     -25.852  -6.615 -20.599  0.00  0.00     0.284 C 
BRANCH  16  17
HETATM   17  N           1     -25.131  -5.727 -21.570  0.00  0.00    -0.066 N 
HETATM   18  H           1     -24.716  -6.309 -22.332  0.00  0.00     0.275 HD
HETATM   19  H           1     -25.806  -5.044 -21.983  0.00  0.00     0.275 HD
HETATM   20  H           1     -24.371  -5.211 -21.072  0.00  0.00     0.275 HD
ENDBRANCH  16  17
BRANCH  16  21
HETATM   21  C           1     -26.021  -8.000 -21.209  0.00  0.00     0.155 C 
BRANCH  21  22
HETATM   22  C           1     -27.435  -8.479 -20.991  0.00  0.00     0.175 C 
HETATM   23  O           1     -28.173  -7.896 -20.168  0.00  0.00    -0.648 OA
HETATM   24  O           1     -27.869  -9.459 -21.634  0.00  0.00    -0.648 OA
ENDBRANCH  21  22
ENDBRANCH  16  21
ENDBRANCH   2  16
TORSDOF 8
ENDMDL
MODEL 9
REMARK VINA RESULT:      -6.2      9.525     11.685
REMARK  8 active torsions:
REMARK  status: ('A' for Active; 'I' for Inactive)
REMARK    1  A    between atoms: C_2  and  C_6 
REMARK    2  A    between atoms: C_4  and  C_5 
REMARK    3  A    between atoms: C_5  and  C_6 
REMARK    4  A    between atoms: C_6  and  N_10 
REMARK       I    between atoms: N_10  and  C_11 
REMARK    5  A    between atoms: C_11  and  C_18 
REMARK    6  A    between atoms: N_16  and  C_18 
REMARK    7  A    between atoms: C_18  and  C_24 
REMARK    8  A    between atoms: C_23  and  C_24 
ROOT
HETATM    1  N           1     -27.026  -5.437 -17.443  0.00  0.00    -0.344 N 
HETATM    2  C           1     -28.085  -5.113 -16.637  0.00  0.00     0.249 C 
HETATM    3  O           1     -27.908  -4.449 -15.643  0.00  0.00    -0.271 OA
HETATM    4  H           1     -26.765  -4.825 -18.205  0.00  0.00     0.163 HD
ENDROOT
BRANCH   1   5
HETATM    5  C           1     -26.279  -6.656 -17.202  0.00  0.00     0.189 C 
BRANCH   5   6
HETATM    6  C           1     -26.222  -6.925 -15.718  0.00  0.00     0.197 C 
HETATM    7  O           1     -25.299  -6.440 -15.029  0.00  0.00    -0.646 OA
HETATM    8  O           1     -27.099  -7.634 -15.178  0.00  0.00    -0.646 OA
ENDBRANCH   5   6
BRANCH   5   9
HETATM    9  C           1     -24.864  -6.500 -17.745  0.00  0.00     0.074 C 
BRANCH   9  10
HETATM   10  C           1     -24.809  -7.016 -19.149  0.00  0.00    -0.056 A 
HETATM   11  C           1     -23.645  -7.620 -19.624  0.00  0.00     0.007 A 
HETATM   12  C           1     -23.594  -8.101 -20.933  0.00  0.00     0.001 A 
HETATM   13  C           1     -24.707  -7.978 -21.765  0.00  0.00     0.000 A 
HETATM   14  C           1     -25.869  -7.374 -21.289  0.00  0.00     0.001 A 
HETATM   15  C           1     -25.921  -6.893 -19.981  0.00  0.00     0.007 A 
ENDBRANCH   9  10
ENDBRANCH   5   9
ENDBRANCH   1   5
BRANCH   2  16
HETATM   16  C           1     -29.475  -5.585 -16.992  0.00  0.00     0.284 C 
BRANCH  16  17
HETATM   17  N           1     -30.363  -5.463 -15.789  0.00  0.00    -0.066 N 
HETATM   18  H           1     -31.160  -6.134 -15.876  0.00  0.00     0.275 HD
HETATM   19  H           1     -29.815  -5.684 -14.928  0.00  0.00     0.275 HD
HETATM   20  H           1     -30.735  -4.488 -15.727  0.00  0.00     0.275 HD
ENDBRANCH  16  17
BRANCH  16  21
HETATM   21  C           1     -30.029  -4.727 -18.121  0.00  0.00     0.155 C 
BRANCH  21  22
HETATM   22  C           1     -30.771  -3.548 -17.542  0.00  0.00     0.175 C 
HETATM   23  O           1     -32.002  -3.621 -17.341  0.00  0.00    -0.648 OA
HETATM   24  O           1     -30.154  -2.497 -17.262  0.00  0.00    -0.648 OA
ENDBRANCH  21  22
ENDBRANCH  16  21
ENDBRANCH   2  16
TORSDOF 8
ENDMDL
