MODEL 1
REMARK VINA RESULT:      -8.2      0.000      0.000
REMARK  11 active torsions:
REMARK  status: ('A' for Active; 'I' for Inactive)
REMARK    1  A    between atoms: N_2  and  C_11 
REMARK    2  A    between atoms: C_4  and  C_30 
REMARK    3  A    between atoms: N_9  and  C_30 
REMARK       I    between atoms: N_9  and  C_10 
REMARK    4  A    between atoms: C_10  and  C_11 
REMARK    5  A    between atoms: C_11  and  C_12 
REMARK    6  A    between atoms: C_12  and  C_13 
REMARK    7  A    between atoms: C_16  and  O_17 
REMARK    8  A    between atoms: O_17  and  P_18 
REMARK    9  A    between atoms: P_18  and  O_19 
REMARK   10  A    between atoms: C_30  and  C_31 
REMARK   11  A    between atoms: C_31  and  C_32 
ROOT
HETATM    1  C           1     -32.834  -4.703 -16.918  0.00  0.00     0.278 C 
ENDROOT
BRANCH   1   2
HETATM    2  N           1     -31.816  -3.601 -16.913  0.00  0.00    -0.066 N 
HETATM    3  H           1     -32.303  -2.676 -16.923  0.00  0.00     0.275 HD
HETATM    4  H           1     -31.227  -3.676 -16.053  0.00  0.00     0.275 HD
HETATM    5  H           1     -31.209  -3.684 -17.760  0.00  0.00     0.275 HD
ENDBRANCH   1   2
BRANCH   1   6
HETATM    6  C           1     -33.664  -4.626 -15.660  0.00  0.00     0.249 C 
HETATM    7  O           1     -34.811  -5.005 -15.670  0.00  0.00    -0.271 OA
HETATM    8  N           1     -33.117  -4.128 -14.508  0.00  0.00    -0.344 N 
HETATM    9  H           1     -32.157  -3.811 -14.499  0.00  0.00     0.163 HD
BRANCH   8  10
HETATM   10  C           1     -33.915  -4.054 -13.300  0.00  0.00     0.191 C 
BRANCH  10  11
HETATM   11  C           1     -34.481  -2.663 -13.154  0.00  0.00     0.197 C 
HETATM   12  O           1     -35.014  -2.099 -14.135  0.00  0.00    -0.646 OA
HETATM   13  O           1     -34.417  -2.073 -12.054  0.00  0.00    -0.646 OA
ENDBRANCH  10  11
BRANCH  10  14
HETATM   14  C           1     -33.042  -4.375 -12.094  0.00  0.00     0.094 C 
BRANCH  14  15
HETATM   15  C           1     -33.703  -5.431 -11.263  0.00  0.00     0.028 A 
HETATM   16  N           1     -33.266  -6.726 -11.160  0.00  0.00    -0.354 N 
HETATM   17  C           1     -34.113  -7.313 -10.346  0.00  0.00     0.180 A 
ATOM     18  HN          1     -32.455  -7.144 -11.617  1.00  0.00     0.166 HD
HETATM   19  N           1     -35.080  -6.447  -9.922  0.00  0.00    -0.360 N 
HETATM   20  H           1     -35.872  -6.673  -9.269  0.00  0.00     0.166 HD
HETATM   21  C           1     -34.830  -5.236 -10.502  0.00  0.00     0.114 A 
ENDBRANCH  14  15
ENDBRANCH  10  14
ENDBRANCH   8  10
ENDBRANCH   1   6
BRANCH   1  22
HETATM   22  C           1     -32.124  -6.048 -16.976  0.00  0.00     0.081 C 
BRANCH  22  23
HETATM   23  C           1     -30.645  -5.838 -16.873  0.00  0.00    -0.056 A 
HETATM   24  C           1     -30.066  -5.560 -15.635  0.00  0.00     0.010 A 
HETATM   25  C           1     -28.688  -5.365 -15.539  0.00  0.00     0.038 A 
HETATM   26  C           1     -27.890  -5.445 -16.680  0.00  0.00     0.081 A 
HETATM   27  C           1     -28.470  -5.723 -17.917  0.00  0.00     0.038 A 
HETATM   28  C           1     -29.847  -5.919 -18.014  0.00  0.00     0.010 A 
BRANCH  26  29
HETATM   29  O           1     -26.552  -5.256 -16.586  0.00  0.00    -0.247 OA
BRANCH  29  30
HETATM   30  P           1     -25.654  -6.464 -16.002  0.00  0.00     0.411 P 
HETATM   31  O           1     -26.537  -7.569 -15.567  0.00  0.00    -0.624 OA
HETATM   32  O           1     -24.735  -6.950 -17.056  0.00  0.00    -0.624 OA
BRANCH  30  33
HETATM   33  O           1     -24.794  -5.936 -14.740  0.00  0.00    -0.300 OA
HETATM   34  H           1     -24.282  -6.677 -14.466  0.00  0.00     0.223 HD
ENDBRANCH  30  33
ENDBRANCH  29  30
ENDBRANCH  26  29
ENDBRANCH  22  23
ENDBRANCH   1  22
TORSDOF 11
ENDMDL
MODEL 2
REMARK VINA RESULT:      -8.2     12.910     15.361
REMARK  11 active torsions:
REMARK  status: ('A' for Active; 'I' for Inactive)
REMARK    1  A    between atoms: N_2  and  C_11 
REMARK    2  A    between atoms: C_4  and  C_30 
REMARK    3  A    between atoms: N_9  and  C_30 
REMARK       I    between atoms: N_9  and  C_10 
REMARK    4  A    between atoms: C_10  and  C_11 
REMARK    5  A    between atoms: C_11  and  C_12 
REMARK    6  A    between atoms: C_12  and  C_13 
REMARK    7  A    between atoms: C_16  and  O_17 
REMARK    8  A    between atoms: O_17  and  P_18 
REMARK    9  A    between atoms: P_18  and  O_19 
REMARK   10  A    between atoms: C_30  and  C_31 
REMARK   11  A    between atoms: C_31  and  C_32 
ROOT
HETATM    1  C           1     -21.472  -6.513  -4.915  0.00  0.00     0.278 C 
ENDROOT
BRANCH   1   2
HETATM    2  N           1     -21.935  -6.035  -3.571  0.00  0.00    -0.066 N 
HETATM    3  H           1     -21.628  -6.710  -2.835  0.00  0.00     0.275 HD
HETATM    4  H           1     -21.522  -5.095  -3.375  0.00  0.00     0.275 HD
HETATM    5  H           1     -22.978  -5.965  -3.567  0.00  0.00     0.275 HD
ENDBRANCH   1   2
BRANCH   1   6
HETATM    6  C           1     -20.803  -7.857  -4.768  0.00  0.00     0.249 C 
HETATM    7  O           1     -20.545  -8.514  -5.748  0.00  0.00    -0.271 OA
HETATM    8  N           1     -20.486  -8.332  -3.523  0.00  0.00    -0.344 N 
HETATM    9  H           1     -20.702  -7.782  -2.702  0.00  0.00     0.163 HD
BRANCH   8  10
HETATM   10  C           1     -19.844  -9.623  -3.382  0.00  0.00     0.191 C 
BRANCH  10  11
HETATM   11  C           1     -20.640 -10.480  -2.428  0.00  0.00     0.197 C 
HETATM   12  O           1     -21.786 -10.126  -2.077  0.00  0.00    -0.646 OA
HETATM   13  O           1     -20.153 -11.545  -1.988  0.00  0.00    -0.646 OA
ENDBRANCH  10  11
BRANCH  10  14
HETATM   14  C           1     -18.435  -9.433  -2.837  0.00  0.00     0.094 C 
BRANCH  14  15
HETATM   15  C           1     -17.439  -9.653  -3.933  0.00  0.00     0.028 A 
HETATM   16  N           1     -17.761  -9.805  -5.257  0.00  0.00    -0.354 N 
HETATM   17  C           1     -16.614  -9.973  -5.875  0.00  0.00     0.180 A 
ATOM     18  HN          1     -18.692  -9.790  -5.674  1.00  0.00     0.166 HD
HETATM   19  N           1     -15.566  -9.936  -5.001  0.00  0.00    -0.360 N 
HETATM   20  H           1     -14.550 -10.046  -5.245  0.00  0.00     0.166 HD
HETATM   21  C           1     -16.080  -9.732  -3.751  0.00  0.00     0.114 A 
ENDBRANCH  14  15
ENDBRANCH  10  14
ENDBRANCH   8  10
ENDBRANCH   1   6
BRANCH   1  22
HETATM   22  C           1     -20.481  -5.513  -5.495  0.00  0.00     0.081 C 
BRANCH  22  23
HETATM   23  C           1     -20.984  -5.019  -6.816  0.00  0.00    -0.056 A 
HETATM   24  C           1     -20.166  -5.091  -7.943  0.00  0.00     0.010 A 
HETATM   25  C           1     -20.634  -4.630  -9.174  0.00  0.00     0.038 A 
HETATM   26  C           1     -21.919  -4.097  -9.278  0.00  0.00     0.081 A 
HETATM   27  C           1     -22.736  -4.026  -8.150  0.00  0.00     0.038 A 
HETATM   28  C           1     -22.269  -4.486  -6.919  0.00  0.00     0.010 A 
BRANCH  26  29
HETATM   29  O           1     -22.373  -3.651 -10.473  0.00  0.00    -0.247 OA
BRANCH  29  30
HETATM   30  P           1     -23.719  -4.315 -11.069  0.00  0.00     0.411 P 
HETATM   31  O           1     -24.029  -5.554 -10.322  0.00  0.00    -0.624 OA
HETATM   32  O           1     -24.841  -3.360 -10.934  0.00  0.00    -0.624 OA
BRANCH  30  33
HETATM   33  O           1     -23.499  -4.670 -12.629  0.00  0.00    -0.300 OA
HETATM   34  H           1     -24.350  -4.921 -12.945  0.00  0.00     0.223 HD
ENDBRANCH  30  33
ENDBRANCH  29  30
ENDBRANCH  26  29
ENDBRANCH  22  23
ENDBRANCH   1  22
TORSDOF 11
ENDMDL
MODEL 3
REMARK VINA RESULT:      -8.0     12.231     14.454
REMARK  11 active torsions:
REMARK  status: ('A' for Active; 'I' for Inactive)
REMARK    1  A    between atoms: N_2  and  C_11 
REMARK    2  A    between atoms: C_4  and  C_30 
REMARK    3  A    between atoms: N_9  and  C_30 
REMARK       I    between atoms: N_9  and  C_10 
REMARK    4  A    between atoms: C_10  and  C_11 
REMARK    5  A    between atoms: C_11  and  C_12 
REMARK    6  A    between atoms: C_12  and  C_13 
REMARK    7  A    between atoms: C_16  and  O_17 
REMARK    8  A    between atoms: O_17  and  P_18 
REMARK    9  A    between atoms: P_18  and  O_19 
REMARK   10  A    between atoms: C_30  and  C_31 
REMARK   11  A    between atoms: C_31  and  C_32 
ROOT
HETATM    1  C           1     -21.514  -6.537  -4.932  0.00  0.00     0.278 C 
ENDROOT
BRANCH   1   2
HETATM    2  N           1     -21.888  -6.037  -3.568  0.00  0.00    -0.066 N 
HETATM    3  H           1     -21.049  -6.059  -2.946  0.00  0.00     0.275 HD
HETATM    4  H           1     -22.241  -5.056  -3.642  0.00  0.00     0.275 HD
HETATM    5  H           1     -22.636  -6.648  -3.166  0.00  0.00     0.275 HD
ENDBRANCH   1   2
BRANCH   1   6
HETATM    6  C           1     -20.945  -7.930  -4.818  0.00  0.00     0.249 C 
HETATM    7  O           1     -20.214  -8.356  -5.680  0.00  0.00    -0.271 OA
HETATM    8  N           1     -21.256  -8.710  -3.736  0.00  0.00    -0.344 N 
HETATM    9  H           1     -21.868  -8.354  -3.014  0.00  0.00     0.163 HD
BRANCH   8  10
HETATM   10  C           1     -20.709 -10.049  -3.627  0.00  0.00     0.191 C 
BRANCH  10  11
HETATM   11  C           1     -21.750 -11.054  -4.057  0.00  0.00     0.197 C 
HETATM   12  O           1     -22.930 -10.942  -3.658  0.00  0.00    -0.646 OA
HETATM   13  O           1     -21.433 -11.999  -4.810  0.00  0.00    -0.646 OA
ENDBRANCH  10  11
BRANCH  10  14
HETATM   14  C           1     -20.311 -10.318  -2.183  0.00  0.00     0.094 C 
BRANCH  14  15
HETATM   15  C           1     -21.162  -9.496  -1.266  0.00  0.00     0.028 A 
HETATM   16  N           1     -22.412  -9.857  -0.832  0.00  0.00    -0.354 N 
HETATM   17  C           1     -22.806  -8.873  -0.057  0.00  0.00     0.180 A 
ATOM     18  HN          1     -22.925 -10.708  -1.063  1.00  0.00     0.166 HD
HETATM   19  N           1     -21.860  -7.892   0.026  0.00  0.00    -0.360 N 
HETATM   20  H           1     -21.935  -7.002   0.580  0.00  0.00     0.166 HD
HETATM   21  C           1     -20.799  -8.278  -0.745  0.00  0.00     0.114 A 
ENDBRANCH  14  15
ENDBRANCH  10  14
ENDBRANCH   8  10
ENDBRANCH   1   6
BRANCH   1  22
HETATM   22  C           1     -20.472  -5.611  -5.543  0.00  0.00     0.081 C 
BRANCH  22  23
HETATM   23  C           1     -20.972  -5.092  -6.855  0.00  0.00    -0.056 A 
HETATM   24  C           1     -22.230  -4.494  -6.934  0.00  0.00     0.010 A 
HETATM   25  C           1     -22.696  -4.011  -8.156  0.00  0.00     0.038 A 
HETATM   26  C           1     -21.906  -4.125  -9.300  0.00  0.00     0.081 A 
HETATM   27  C           1     -20.648  -4.723  -9.220  0.00  0.00     0.038 A 
HETATM   28  C           1     -20.181  -5.206  -7.998  0.00  0.00     0.010 A 
BRANCH  26  29
HETATM   29  O           1     -22.358  -3.655 -10.487  0.00  0.00    -0.247 OA
BRANCH  29  30
HETATM   30  P           1     -23.709  -4.301 -11.093  0.00  0.00     0.411 P 
HETATM   31  O           1     -24.046  -5.531 -10.342  0.00  0.00    -0.624 OA
HETATM   32  O           1     -24.817  -3.328 -10.974  0.00  0.00    -0.624 OA
BRANCH  30  33
HETATM   33  O           1     -23.478  -4.669 -12.649  0.00  0.00    -0.300 OA
HETATM   34  H           1     -22.996  -5.478 -12.640  0.00  0.00     0.223 HD
ENDBRANCH  30  33
ENDBRANCH  29  30
ENDBRANCH  26  29
ENDBRANCH  22  23
ENDBRANCH   1  22
TORSDOF 11
ENDMDL
MODEL 4
REMARK VINA RESULT:      -7.7     12.335     14.287
REMARK  11 active torsions:
REMARK  status: ('A' for Active; 'I' for Inactive)
REMARK    1  A    between atoms: N_2  and  C_11 
REMARK    2  A    between atoms: C_4  and  C_30 
REMARK    3  A    between atoms: N_9  and  C_30 
REMARK       I    between atoms: N_9  and  C_10 
REMARK    4  A    between atoms: C_10  and  C_11 
REMARK    5  A    between atoms: C_11  and  C_12 
REMARK    6  A    between atoms: C_12  and  C_13 
REMARK    7  A    between atoms: C_16  and  O_17 
REMARK    8  A    between atoms: O_17  and  P_18 
REMARK    9  A    between atoms: P_18  and  O_19 
REMARK   10  A    between atoms: C_30  and  C_31 
REMARK   11  A    between atoms: C_31  and  C_32 
ROOT
HETATM    1  C           1     -20.129  -6.409  -5.445  0.00  0.00     0.278 C 
ENDROOT
BRANCH   1   2
HETATM    2  N           1     -20.328  -7.010  -6.804  0.00  0.00    -0.066 N 
HETATM    3  H           1     -20.485  -6.249  -7.503  0.00  0.00     0.275 HD
HETATM    4  H           1     -19.478  -7.557  -7.070  0.00  0.00     0.275 HD
HETATM    5  H           1     -21.159  -7.645  -6.786  0.00  0.00     0.275 HD
ENDBRANCH   1   2
BRANCH   1   6
HETATM    6  C           1     -21.104  -7.028  -4.473  0.00  0.00     0.249 C 
HETATM    7  O           1     -22.217  -7.322  -4.840  0.00  0.00    -0.271 OA
HETATM    8  N           1     -20.726  -7.258  -3.177  0.00  0.00    -0.344 N 
HETATM    9  H           1     -19.795  -7.011  -2.870  0.00  0.00     0.163 HD
BRANCH   8  10
HETATM   10  C           1     -21.664  -7.852  -2.244  0.00  0.00     0.191 C 
BRANCH  10  11
HETATM   11  C           1     -22.288  -6.770  -1.399  0.00  0.00     0.197 C 
HETATM   12  O           1     -22.908  -7.071  -0.355  0.00  0.00    -0.646 OA
HETATM   13  O           1     -22.186  -5.572  -1.741  0.00  0.00    -0.646 OA
ENDBRANCH  10  11
BRANCH  10  14
HETATM   14  C           1     -20.929  -8.837  -1.345  0.00  0.00     0.094 C 
BRANCH  14  15
HETATM   15  C           1     -21.544 -10.195  -1.481  0.00  0.00     0.028 A 
HETATM   16  N           1     -21.415 -11.204  -0.561  0.00  0.00    -0.354 N 
HETATM   17  C           1     -22.096 -12.212  -1.055  0.00  0.00     0.180 A 
ATOM     18  HN          1     -20.900 -11.176   0.319  1.00  0.00     0.166 HD
HETATM   19  N           1     -22.659 -11.893  -2.258  0.00  0.00    -0.360 N 
HETATM   20  H           1     -23.250 -12.526  -2.854  0.00  0.00     0.166 HD
HETATM   21  C           1     -22.313 -10.602  -2.544  0.00  0.00     0.114 A 
ENDBRANCH  14  15
ENDBRANCH  10  14
ENDBRANCH   8  10
ENDBRANCH   1   6
BRANCH   1  22
HETATM   22  C           1     -20.367  -4.907  -5.515  0.00  0.00     0.081 C 
BRANCH  22  23
HETATM   23  C           1     -20.904  -4.548  -6.866  0.00  0.00    -0.056 A 
HETATM   24  C           1     -20.034  -4.411  -7.948  0.00  0.00     0.010 A 
HETATM   25  C           1     -20.534  -4.076  -9.206  0.00  0.00     0.038 A 
HETATM   26  C           1     -21.903  -3.878  -9.383  0.00  0.00     0.081 A 
HETATM   27  C           1     -22.773  -4.015  -8.301  0.00  0.00     0.038 A 
HETATM   28  C           1     -22.273  -4.350  -7.042  0.00  0.00     0.010 A 
BRANCH  26  29
HETATM   29  O           1     -22.389  -3.553 -10.605  0.00  0.00    -0.247 OA
BRANCH  29  30
HETATM   30  P           1     -23.734  -4.293 -11.107  0.00  0.00     0.411 P 
HETATM   31  O           1     -23.966  -5.503 -10.288  0.00  0.00    -0.624 OA
HETATM   32  O           1     -24.884  -3.372 -10.968  0.00  0.00    -0.624 OA
BRANCH  30  33
HETATM   33  O           1     -23.569  -4.718 -12.657  0.00  0.00    -0.300 OA
HETATM   34  H           1     -22.836  -5.309 -12.671  0.00  0.00     0.223 HD
ENDBRANCH  30  33
ENDBRANCH  29  30
ENDBRANCH  26  29
ENDBRANCH  22  23
ENDBRANCH   1  22
TORSDOF 11
ENDMDL
MODEL 5
REMARK VINA RESULT:      -7.6      2.517      3.293
REMARK  11 active torsions:
REMARK  status: ('A' for Active; 'I' for Inactive)
REMARK    1  A    between atoms: N_2  and  C_11 
REMARK    2  A    between atoms: C_4  and  C_30 
REMARK    3  A    between atoms: N_9  and  C_30 
REMARK       I    between atoms: N_9  and  C_10 
REMARK    4  A    between atoms: C_10  and  C_11 
REMARK    5  A    between atoms: C_11  and  C_12 
REMARK    6  A    between atoms: C_12  and  C_13 
REMARK    7  A    between atoms: C_16  and  O_17 
REMARK    8  A    between atoms: O_17  and  P_18 
REMARK    9  A    between atoms: P_18  and  O_19 
REMARK   10  A    between atoms: C_30  and  C_31 
REMARK   11  A    between atoms: C_31  and  C_32 
ROOT
HETATM    1  C           1     -32.782  -3.912 -17.330  0.00  0.00     0.278 C 
ENDROOT
BRANCH   1   2
HETATM    2  N           1     -31.627  -2.956 -17.394  0.00  0.00    -0.066 N 
HETATM    3  H           1     -31.535  -2.586 -18.366  0.00  0.00     0.275 HD
HETATM    4  H           1     -31.795  -2.164 -16.734  0.00  0.00     0.275 HD
HETATM    5  H           1     -30.748  -3.454 -17.125  0.00  0.00     0.275 HD
ENDBRANCH   1   2
BRANCH   1   6
HETATM    6  C           1     -33.826  -3.377 -16.381  0.00  0.00     0.249 C 
HETATM    7  O           1     -34.099  -3.988 -15.376  0.00  0.00    -0.271 OA
HETATM    8  N           1     -34.463  -2.197 -16.660  0.00  0.00    -0.344 N 
HETATM    9  H           1     -34.234  -1.684 -17.501  0.00  0.00     0.163 HD
BRANCH   8  10
HETATM   10  C           1     -35.466  -1.683 -15.748  0.00  0.00     0.191 C 
BRANCH  10  11
HETATM   11  C           1     -36.648  -1.172 -16.536  0.00  0.00     0.197 C 
HETATM   12  O           1     -36.499  -0.816 -17.726  0.00  0.00    -0.646 OA
HETATM   13  O           1     -37.775  -1.105 -16.000  0.00  0.00    -0.646 OA
ENDBRANCH  10  11
BRANCH  10  14
HETATM   14  C           1     -34.873  -0.544 -14.930  0.00  0.00     0.094 C 
BRANCH  14  15
HETATM   15  C           1     -34.996  -0.858 -13.471  0.00  0.00     0.028 A 
HETATM   16  N           1     -34.698  -2.073 -12.909  0.00  0.00    -0.354 N 
HETATM   17  C           1     -34.938  -1.930 -11.626  0.00  0.00     0.180 A 
ATOM     18  HN          1     -34.361  -2.910 -13.386  1.00  0.00     0.166 HD
HETATM   19  N           1     -35.381  -0.670 -11.339  0.00  0.00    -0.360 N 
HETATM   20  H           1     -35.642  -0.305 -10.389  0.00  0.00     0.166 HD
HETATM   21  C           1     -35.422   0.029 -12.513  0.00  0.00     0.114 A 
ENDBRANCH  14  15
ENDBRANCH  10  14
ENDBRANCH   8  10
ENDBRANCH   1   6
BRANCH   1  22
HETATM   22  C           1     -32.292  -5.266 -16.835  0.00  0.00     0.081 C 
BRANCH  22  23
HETATM   23  C           1     -30.795  -5.272 -16.795  0.00  0.00    -0.056 A 
HETATM   24  C           1     -30.131  -5.199 -15.570  0.00  0.00     0.010 A 
HETATM   25  C           1     -28.736  -5.204 -15.533  0.00  0.00     0.038 A 
HETATM   26  C           1     -28.006  -5.282 -16.719  0.00  0.00     0.081 A 
HETATM   27  C           1     -28.671  -5.356 -17.943  0.00  0.00     0.038 A 
HETATM   28  C           1     -30.065  -5.350 -17.981  0.00  0.00     0.010 A 
BRANCH  26  29
HETATM   29  O           1     -26.652  -5.288 -16.682  0.00  0.00    -0.247 OA
BRANCH  29  30
HETATM   30  P           1     -25.917  -6.560 -16.013  0.00  0.00     0.411 P 
HETATM   31  O           1     -25.102  -6.108 -14.863  0.00  0.00    -0.624 OA
HETATM   32  O           1     -26.934  -7.529 -15.549  0.00  0.00    -0.624 OA
BRANCH  30  33
HETATM   33  O           1     -24.959  -7.266 -17.105  0.00  0.00    -0.300 OA
HETATM   34  H           1     -24.612  -8.026 -16.671  0.00  0.00     0.223 HD
ENDBRANCH  30  33
ENDBRANCH  29  30
ENDBRANCH  26  29
ENDBRANCH  22  23
ENDBRANCH   1  22
TORSDOF 11
ENDMDL
MODEL 6
REMARK VINA RESULT:      -7.6      1.562      2.228
REMARK  11 active torsions:
REMARK  status: ('A' for Active; 'I' for Inactive)
REMARK    1  A    between atoms: N_2  and  C_11 
REMARK    2  A    between atoms: C_4  and  C_30 
REMARK    3  A    between atoms: N_9  and  C_30 
REMARK       I    between atoms: N_9  and  C_10 
REMARK    4  A    between atoms: C_10  and  C_11 
REMARK    5  A    between atoms: C_11  and  C_12 
REMARK    6  A    between atoms: C_12  and  C_13 
REMARK    7  A    between atoms: C_16  and  O_17 
REMARK    8  A    between atoms: O_17  and  P_18 
REMARK    9  A    between atoms: P_18  and  O_19 
REMARK   10  A    between atoms: C_30  and  C_31 
REMARK   11  A    between atoms: C_31  and  C_32 
ROOT
HETATM    1  C           1     -33.508  -4.801 -15.663  0.00  0.00     0.278 C 
ENDROOT
BRANCH   1   2
HETATM    2  N           1     -34.606  -5.712 -16.125  0.00  0.00    -0.066 N 
HETATM    3  H           1     -34.727  -6.489 -15.438  0.00  0.00     0.275 HD
HETATM    4  H           1     -35.497  -5.172 -16.201  0.00  0.00     0.275 HD
HETATM    5  H           1     -34.357  -6.109 -17.060  0.00  0.00     0.275 HD
ENDBRANCH   1   2
BRANCH   1   6
HETATM    6  C           1     -34.051  -3.842 -14.632  0.00  0.00     0.249 C 
HETATM    7  O           1     -34.722  -2.899 -14.978  0.00  0.00    -0.271 OA
HETATM    8  N           1     -33.785  -4.042 -13.303  0.00  0.00    -0.344 N 
HETATM    9  H           1     -33.223  -4.831 -13.013  0.00  0.00     0.163 HD
BRANCH   8  10
HETATM   10  C           1     -34.307  -3.120 -12.313  0.00  0.00     0.191 C 
BRANCH  10  11
HETATM   11  C           1     -33.203  -2.725 -11.362  0.00  0.00     0.197 C 
HETATM   12  O           1     -32.144  -3.389 -11.323  0.00  0.00    -0.646 OA
HETATM   13  O           1     -33.348  -1.734 -10.614  0.00  0.00    -0.646 OA
ENDBRANCH  10  11
BRANCH  10  14
HETATM   14  C           1     -35.429  -3.794 -11.535  0.00  0.00     0.094 C 
BRANCH  14  15
HETATM   15  C           1     -35.035  -5.199 -11.203  0.00  0.00     0.028 A 
HETATM   16  N           1     -34.292  -5.561 -10.109  0.00  0.00    -0.354 N 
HETATM   17  C           1     -34.173  -6.867 -10.188  0.00  0.00     0.180 A 
ATOM     18  HN          1     -33.914  -4.947  -9.387  1.00  0.00     0.166 HD
HETATM   19  N           1     -34.809  -7.360 -11.291  0.00  0.00    -0.360 N 
HETATM   20  H           1     -34.860  -8.370 -11.578  0.00  0.00     0.166 HD
HETATM   21  C           1     -35.367  -6.302 -11.952  0.00  0.00     0.114 A 
ENDBRANCH  14  15
ENDBRANCH  10  14
ENDBRANCH   8  10
ENDBRANCH   1   6
BRANCH   1  22
HETATM   22  C           1     -32.966  -4.017 -16.850  0.00  0.00     0.081 C 
BRANCH  22  23
HETATM   23  C           1     -31.626  -4.560 -17.238  0.00  0.00    -0.056 A 
HETATM   24  C           1     -31.363  -5.924 -17.110  0.00  0.00     0.010 A 
HETATM   25  C           1     -30.114  -6.430 -17.471  0.00  0.00     0.038 A 
HETATM   26  C           1     -29.128  -5.572 -17.959  0.00  0.00     0.081 A 
HETATM   27  C           1     -29.391  -4.208 -18.086  0.00  0.00     0.038 A 
HETATM   28  C           1     -30.640  -3.702 -17.725  0.00  0.00     0.010 A 
BRANCH  26  29
HETATM   29  O           1     -27.915  -6.063 -18.310  0.00  0.00    -0.247 OA
BRANCH  29  30
HETATM   30  P           1     -26.786  -6.186 -17.162  0.00  0.00     0.411 P 
HETATM   31  O           1     -25.472  -6.450 -17.791  0.00  0.00    -0.624 OA
HETATM   32  O           1     -26.722  -4.921 -16.396  0.00  0.00    -0.624 OA
BRANCH  30  33
HETATM   33  O           1     -27.158  -7.401 -16.166  0.00  0.00    -0.300 OA
HETATM   34  H           1     -27.912  -7.102 -15.688  0.00  0.00     0.223 HD
ENDBRANCH  30  33
ENDBRANCH  29  30
ENDBRANCH  26  29
ENDBRANCH  22  23
ENDBRANCH   1  22
TORSDOF 11
ENDMDL
MODEL 7
REMARK VINA RESULT:      -7.5      2.576      3.635
REMARK  11 active torsions:
REMARK  status: ('A' for Active; 'I' for Inactive)
REMARK    1  A    between atoms: N_2  and  C_11 
REMARK    2  A    between atoms: C_4  and  C_30 
REMARK    3  A    between atoms: N_9  and  C_30 
REMARK       I    between atoms: N_9  and  C_10 
REMARK    4  A    between atoms: C_10  and  C_11 
REMARK    5  A    between atoms: C_11  and  C_12 
REMARK    6  A    between atoms: C_12  and  C_13 
REMARK    7  A    between atoms: C_16  and  O_17 
REMARK    8  A    between atoms: O_17  and  P_18 
REMARK    9  A    between atoms: P_18  and  O_19 
REMARK   10  A    between atoms: C_30  and  C_31 
REMARK   11  A    between atoms: C_31  and  C_32 
ROOT
HETATM    1  C           1     -33.868  -4.570 -15.468  0.00  0.00     0.278 C 
ENDROOT
BRANCH   1   2
HETATM    2  N           1     -35.068  -5.435 -15.720  0.00  0.00    -0.066 N 
HETATM    3  H           1     -34.984  -6.318 -15.167  0.00  0.00     0.275 HD
HETATM    4  H           1     -35.932  -4.923 -15.431  0.00  0.00     0.275 HD
HETATM    5  H           1     -35.123  -5.665 -16.739  0.00  0.00     0.275 HD
ENDBRANCH   1   2
BRANCH   1   6
HETATM    6  C           1     -34.235  -3.470 -14.502  0.00  0.00     0.249 C 
HETATM    7  O           1     -34.805  -2.483 -14.900  0.00  0.00    -0.271 OA
HETATM    8  N           1     -33.922  -3.593 -13.174  0.00  0.00    -0.344 N 
HETATM    9  H           1     -33.444  -4.420 -12.841  0.00  0.00     0.163 HD
BRANCH   8  10
HETATM   10  C           1     -34.274  -2.536 -12.247  0.00  0.00     0.191 C 
BRANCH  10  11
HETATM   11  C           1     -33.496  -2.711 -10.965  0.00  0.00     0.197 C 
HETATM   12  O           1     -33.358  -3.850 -10.468  0.00  0.00    -0.646 OA
HETATM   13  O           1     -32.990  -1.717 -10.400  0.00  0.00    -0.646 OA
ENDBRANCH  10  11
BRANCH  10  14
HETATM   14  C           1     -35.766  -2.600 -11.947  0.00  0.00     0.094 C 
BRANCH  14  15
HETATM   15  C           1     -36.172  -1.391 -11.164  0.00  0.00     0.028 A 
HETATM   16  N           1     -36.694  -1.423  -9.896  0.00  0.00    -0.354 N 
HETATM   17  C           1     -36.911  -0.167  -9.579  0.00  0.00     0.180 A 
ATOM     18  HN          1     -36.874  -2.247  -9.322  1.00  0.00     0.166 HD
HETATM   19  N           1     -36.550   0.674 -10.593  0.00  0.00    -0.360 N 
HETATM   20  H           1     -36.625   1.722 -10.587  0.00  0.00     0.166 HD
HETATM   21  C           1     -36.074  -0.097 -11.617  0.00  0.00     0.114 A 
ENDBRANCH  14  15
ENDBRANCH  10  14
ENDBRANCH   8  10
ENDBRANCH   1   6
BRANCH   1  22
HETATM   22  C           1     -33.400  -3.958 -16.781  0.00  0.00     0.081 C 
BRANCH  22  23
HETATM   23  C           1     -32.042  -4.487 -17.123  0.00  0.00    -0.056 A 
HETATM   24  C           1     -31.775  -5.851 -17.006  0.00  0.00     0.010 A 
HETATM   25  C           1     -30.510  -6.344 -17.325  0.00  0.00     0.038 A 
HETATM   26  C           1     -29.511  -5.473 -17.759  0.00  0.00     0.081 A 
HETATM   27  C           1     -29.778  -4.109 -17.876  0.00  0.00     0.038 A 
HETATM   28  C           1     -31.043  -3.616 -17.558  0.00  0.00     0.010 A 
BRANCH  26  29
HETATM   29  O           1     -28.282  -5.952 -18.069  0.00  0.00    -0.247 OA
BRANCH  29  30
HETATM   30  P           1     -27.212  -6.126 -16.872  0.00  0.00     0.411 P 
HETATM   31  O           1     -25.845  -6.184 -17.437  0.00  0.00    -0.624 OA
HETATM   32  O           1     -27.316  -4.977 -15.946  0.00  0.00    -0.624 OA
BRANCH  30  33
HETATM   33  O           1     -27.519  -7.494 -16.070  0.00  0.00    -0.300 OA
HETATM   34  H           1     -26.916  -7.494 -15.347  0.00  0.00     0.223 HD
ENDBRANCH  30  33
ENDBRANCH  29  30
ENDBRANCH  26  29
ENDBRANCH  22  23
ENDBRANCH   1  22
TORSDOF 11
ENDMDL
MODEL 8
REMARK VINA RESULT:      -7.2     12.906     15.159
REMARK  11 active torsions:
REMARK  status: ('A' for Active; 'I' for Inactive)
REMARK    1  A    between atoms: N_2  and  C_11 
REMARK    2  A    between atoms: C_4  and  C_30 
REMARK    3  A    between atoms: N_9  and  C_30 
REMARK       I    between atoms: N_9  and  C_10 
REMARK    4  A    between atoms: C_10  and  C_11 
REMARK    5  A    between atoms: C_11  and  C_12 
REMARK    6  A    between atoms: C_12  and  C_13 
REMARK    7  A    between atoms: C_16  and  O_17 
REMARK    8  A    between atoms: O_17  and  P_18 
REMARK    9  A    between atoms: P_18  and  O_19 
REMARK   10  A    between atoms: C_30  and  C_31 
REMARK   11  A    between atoms: C_31  and  C_32 
ROOT
HETATM    1  C           1     -20.554  -7.708  -4.844  0.00  0.00     0.278 C 
ENDROOT
BRANCH   1   2
HETATM    2  N           1     -21.153  -8.417  -6.022  0.00  0.00    -0.066 N 
HETATM    3  H           1     -22.164  -8.608  -5.837  0.00  0.00     0.275 HD
HETATM    4  H           1     -21.062  -7.816  -6.872  0.00  0.00     0.275 HD
HETATM    5  H           1     -20.650  -9.320  -6.178  0.00  0.00     0.275 HD
ENDBRANCH   1   2
BRANCH   1   6
HETATM    6  C           1     -20.605  -8.609  -3.635  0.00  0.00     0.249 C 
HETATM    7  O           1     -19.858  -8.415  -2.706  0.00  0.00    -0.271 OA
HETATM    8  N           1     -21.498  -9.646  -3.592  0.00  0.00    -0.344 N 
HETATM    9  H           1     -22.124  -9.808  -4.370  0.00  0.00     0.163 HD
BRANCH   8  10
HETATM   10  C           1     -21.547 -10.512  -2.430  0.00  0.00     0.191 C 
BRANCH  10  11
HETATM   11  C           1     -21.640 -11.950  -2.878  0.00  0.00     0.197 C 
HETATM   12  O           1     -21.272 -12.868  -2.113  0.00  0.00    -0.646 OA
HETATM   13  O           1     -22.085 -12.224  -4.013  0.00  0.00    -0.646 OA
ENDBRANCH  10  11
BRANCH  10  14
HETATM   14  C           1     -22.766 -10.164  -1.587  0.00  0.00     0.094 C 
BRANCH  14  15
HETATM   15  C           1     -22.344  -9.341  -0.410  0.00  0.00     0.028 A 
HETATM   16  N           1     -21.072  -9.312   0.102  0.00  0.00    -0.354 N 
HETATM   17  C           1     -21.126  -8.478   1.115  0.00  0.00     0.180 A 
ATOM     18  HN          1     -20.257  -9.827  -0.233  1.00  0.00     0.166 HD
HETATM   19  N           1     -22.384  -7.970   1.278  0.00  0.00    -0.360 N 
HETATM   20  H           1     -22.686  -7.285   2.015  0.00  0.00     0.166 HD
HETATM   21  C           1     -23.175  -8.515   0.306  0.00  0.00     0.114 A 
ENDBRANCH  14  15
ENDBRANCH  10  14
ENDBRANCH   8  10
ENDBRANCH   1   6
BRANCH   1  22
HETATM   22  C           1     -21.342  -6.436  -4.563  0.00  0.00     0.081 C 
BRANCH  22  23
HETATM   23  C           1     -21.370  -5.583  -5.793  0.00  0.00    -0.056 A 
HETATM   24  C           1     -22.589  -5.268  -6.394  0.00  0.00     0.010 A 
HETATM   25  C           1     -22.615  -4.473  -7.541  0.00  0.00     0.038 A 
HETATM   26  C           1     -21.424  -3.994  -8.086  0.00  0.00     0.081 A 
HETATM   27  C           1     -20.206  -4.310  -7.484  0.00  0.00     0.038 A 
HETATM   28  C           1     -20.179  -5.104  -6.338  0.00  0.00     0.010 A 
BRANCH  26  29
HETATM   29  O           1     -21.450  -3.222  -9.199  0.00  0.00    -0.247 OA
BRANCH  29  30
HETATM   30  P           1     -21.384  -3.959 -10.635  0.00  0.00     0.411 P 
HETATM   31  O           1     -20.167  -4.798 -10.702  0.00  0.00    -0.624 OA
HETATM   32  O           1     -22.582  -4.809 -10.808  0.00  0.00    -0.624 OA
BRANCH  30  33
HETATM   33  O           1     -21.336  -2.850 -11.808  0.00  0.00    -0.300 OA
HETATM   34  H           1     -20.472  -2.920 -12.174  0.00  0.00     0.223 HD
ENDBRANCH  30  33
ENDBRANCH  29  30
ENDBRANCH  26  29
ENDBRANCH  22  23
ENDBRANCH   1  22
TORSDOF 11
ENDMDL
MODEL 9
REMARK VINA RESULT:      -7.1     12.739     14.962
REMARK  11 active torsions:
REMARK  status: ('A' for Active; 'I' for Inactive)
REMARK    1  A    between atoms: N_2  and  C_11 
REMARK    2  A    between atoms: C_4  and  C_30 
REMARK    3  A    between atoms: N_9  and  C_30 
REMARK       I    between atoms: N_9  and  C_10 
REMARK    4  A    between atoms: C_10  and  C_11 
REMARK    5  A    between atoms: C_11  and  C_12 
REMARK    6  A    between atoms: C_12  and  C_13 
REMARK    7  A    between atoms: C_16  and  O_17 
REMARK    8  A    between atoms: O_17  and  P_18 
REMARK    9  A    between atoms: P_18  and  O_19 
REMARK   10  A    between atoms: C_30  and  C_31 
REMARK   11  A    between atoms: C_31  and  C_32 
ROOT
HETATM    1  C           1     -21.316  -6.763  -4.383  0.00  0.00     0.278 C 
ENDROOT
BRANCH   1   2
HETATM    2  N           1     -21.148  -5.575  -3.482  0.00  0.00    -0.066 N 
HETATM    3  H           1     -21.832  -4.833  -3.752  0.00  0.00     0.275 HD
HETATM    4  H           1     -21.319  -5.863  -2.492  0.00  0.00     0.275 HD
HETATM    5  H           1     -20.175  -5.203  -3.574  0.00  0.00     0.275 HD
ENDBRANCH   1   2
BRANCH   1   6
HETATM    6  C           1     -21.033  -8.026  -3.608  0.00  0.00     0.249 C 
HETATM    7  O           1     -19.989  -8.612  -3.768  0.00  0.00    -0.271 OA
HETATM    8  N           1     -21.959  -8.507  -2.721  0.00  0.00    -0.344 N 
HETATM    9  H           1     -22.833  -8.017  -2.586  0.00  0.00     0.163 HD
BRANCH   8  10
HETATM   10  C           1     -21.687  -9.721  -1.976  0.00  0.00     0.191 C 
BRANCH  10  11
HETATM   11  C           1     -21.966 -10.920  -2.849  0.00  0.00     0.197 C 
HETATM   12  O           1     -23.025 -10.978  -3.512  0.00  0.00    -0.646 OA
HETATM   13  O           1     -21.140 -11.857  -2.909  0.00  0.00    -0.646 OA
ENDBRANCH  10  11
BRANCH  10  14
HETATM   14  C           1     -22.580  -9.772  -0.744  0.00  0.00     0.094 C 
BRANCH  14  15
HETATM   15  C           1     -22.421 -11.097  -0.065  0.00  0.00     0.028 A 
HETATM   16  N           1     -21.228 -11.607   0.378  0.00  0.00    -0.354 N 
HETATM   17  C           1     -21.524 -12.772   0.905  0.00  0.00     0.180 A 
ATOM     18  HN          1     -20.307 -11.173   0.311  1.00  0.00     0.166 HD
HETATM   19  N           1     -22.861 -13.034   0.819  0.00  0.00    -0.360 N 
HETATM   20  H           1     -23.348 -13.898   1.166  0.00  0.00     0.166 HD
HETATM   21  C           1     -23.450 -11.968   0.199  0.00  0.00     0.114 A 
ENDBRANCH  14  15
ENDBRANCH  10  14
ENDBRANCH   8  10
ENDBRANCH   1   6
BRANCH   1  22
HETATM   22  C           1     -20.345  -6.654  -5.550  0.00  0.00     0.081 C 
BRANCH  22  23
HETATM   23  C           1     -20.947  -5.804  -6.625  0.00  0.00    -0.056 A 
HETATM   24  C           1     -20.241  -5.567  -7.804  0.00  0.00     0.010 A 
HETATM   25  C           1     -20.802  -4.774  -8.805  0.00  0.00     0.038 A 
HETATM   26  C           1     -22.068  -4.218  -8.628  0.00  0.00     0.081 A 
HETATM   27  C           1     -22.774  -4.455  -7.448  0.00  0.00     0.038 A 
HETATM   28  C           1     -22.214  -5.247  -6.447  0.00  0.00     0.010 A 
BRANCH  26  29
HETATM   29  O           1     -22.613  -3.448  -9.600  0.00  0.00    -0.247 OA
BRANCH  29  30
HETATM   30  P           1     -23.558  -4.166 -10.695  0.00  0.00     0.411 P 
HETATM   31  O           1     -24.002  -5.480 -10.177  0.00  0.00    -0.624 OA
HETATM   32  O           1     -24.738  -3.315 -10.962  0.00  0.00    -0.624 OA
BRANCH  30  33
HETATM   33  O           1     -22.728  -4.382 -12.064  0.00  0.00    -0.300 OA
HETATM   34  H           1     -23.380  -4.575 -12.716  0.00  0.00     0.223 HD
ENDBRANCH  30  33
ENDBRANCH  29  30
ENDBRANCH  26  29
ENDBRANCH  22  23
ENDBRANCH   1  22
TORSDOF 11
ENDMDL
