MODEL 1
REMARK VINA RESULT:      -6.2      0.000      0.000
REMARK  8 active torsions:
REMARK  status: ('A' for Active; 'I' for Inactive)
REMARK    1  A    between atoms: C_2  and  C_3 
REMARK    2  A    between atoms: C_2  and  C_15 
REMARK    3  A    between atoms: C_6  and  C_7 
REMARK    4  A    between atoms: C_6  and  C_14 
REMARK    5  A    between atoms: C_7  and  C_8 
REMARK    6  A    between atoms: C_7  and  N_11 
REMARK       I    between atoms: C_8  and  N_20 
REMARK    7  A    between atoms: C_15  and  C_16 
REMARK    8  A    between atoms: C_15  and  N_20 
ROOT
HETATM    1  O           1     -33.516  -1.813 -10.646  0.00  0.00    -0.271 OA
HETATM    2  C           1     -34.113  -2.442 -11.488  0.00  0.00     0.249 C 
HETATM    3  N           1     -35.088  -1.833 -12.232  0.00  0.00    -0.344 N 
HETATM    4  H           1     -35.589  -2.358 -12.938  0.00  0.00     0.163 HD
ENDROOT
BRANCH   2   5
HETATM    5  C           1     -33.786  -3.896 -11.719  0.00  0.00     0.275 C 
BRANCH   5   6
HETATM    6  C           1     -34.106  -4.695 -10.462  0.00  0.00     0.046 C 
BRANCH   6   7
HETATM    7  C           1     -34.246  -6.169 -10.818  0.00  0.00    -0.020 C 
HETATM    8  C           1     -35.122  -6.311 -12.056  0.00  0.00     0.009 C 
HETATM    9  C           1     -34.889  -6.913  -9.655  0.00  0.00     0.009 C 
ENDBRANCH   6   7
ENDBRANCH   5   6
BRANCH   5  10
HETATM   10  N           1     -32.328  -4.034 -12.041  0.00  0.00    -0.066 N 
HETATM   11  H           1     -31.766  -3.922 -11.167  0.00  0.00     0.275 HD
HETATM   12  H           1     -32.149  -4.980 -12.449  0.00  0.00     0.275 HD
HETATM   13  H           1     -32.052  -3.299 -12.729  0.00  0.00     0.275 HD
ENDBRANCH   5  10
ENDBRANCH   2   5
BRANCH   3  14
HETATM   14  C           1     -35.402  -0.435 -12.011  0.00  0.00     0.189 C 
BRANCH  14  15
HETATM   15  C           1     -35.723   0.231 -13.342  0.00  0.00     0.014 C 
HETATM   16  C           1     -34.610   1.204 -13.705  0.00  0.00     0.012 C 
BRANCH  15  17
HETATM   17  C           1     -35.839  -0.835 -14.426  0.00  0.00     0.002 C 
HETATM   18  C           1     -35.659  -0.191 -15.794  0.00  0.00     0.005 C 
ENDBRANCH  15  17
ENDBRANCH  14  15
BRANCH  14  19
HETATM   19  C           1     -36.597  -0.328 -11.095  0.00  0.00     0.197 C 
HETATM   20  O           1     -37.613  -1.024 -11.308  0.00  0.00    -0.646 OA
HETATM   21  O           1     -36.569   0.456 -10.121  0.00  0.00    -0.646 OA
ENDBRANCH  14  19
ENDBRANCH   3  14
TORSDOF 8
ENDMDL
MODEL 2
REMARK VINA RESULT:      -6.1      2.436      3.355
REMARK  8 active torsions:
REMARK  status: ('A' for Active; 'I' for Inactive)
REMARK    1  A    between atoms: C_2  and  C_3 
REMARK    2  A    between atoms: C_2  and  C_15 
REMARK    3  A    between atoms: C_6  and  C_7 
REMARK    4  A    between atoms: C_6  and  C_14 
REMARK    5  A    between atoms: C_7  and  C_8 
REMARK    6  A    between atoms: C_7  and  N_11 
REMARK       I    between atoms: C_8  and  N_20 
REMARK    7  A    between atoms: C_15  and  C_16 
REMARK    8  A    between atoms: C_15  and  N_20 
ROOT
HETATM    1  O           1     -36.490  -1.487 -12.304  0.00  0.00    -0.271 OA
HETATM    2  C           1     -35.358  -1.627 -12.705  0.00  0.00     0.249 C 
HETATM    3  N           1     -35.009  -1.157 -13.943  0.00  0.00    -0.344 N 
HETATM    4  H           1     -34.062  -1.273 -14.280  0.00  0.00     0.163 HD
ENDROOT
BRANCH   2   5
HETATM    5  C           1     -34.331  -2.319 -11.844  0.00  0.00     0.275 C 
BRANCH   5   6
HETATM    6  C           1     -34.852  -3.690 -11.434  0.00  0.00     0.046 C 
BRANCH   6   7
HETATM    7  C           1     -33.708  -4.519 -10.866  0.00  0.00    -0.020 C 
HETATM    8  C           1     -32.574  -4.582 -11.881  0.00  0.00     0.009 C 
HETATM    9  C           1     -34.201  -5.930 -10.571  0.00  0.00     0.009 C 
ENDBRANCH   6   7
ENDBRANCH   5   6
BRANCH   5  10
HETATM   10  N           1     -34.073  -1.495 -10.617  0.00  0.00    -0.066 N 
HETATM   11  H           1     -33.901  -2.129  -9.803  0.00  0.00     0.275 HD
HETATM   12  H           1     -33.234  -0.893 -10.771  0.00  0.00     0.275 HD
HETATM   13  H           1     -34.904  -0.894 -10.420  0.00  0.00     0.275 HD
ENDBRANCH   5  10
ENDBRANCH   2   5
BRANCH   3  14
HETATM   14  C           1     -35.996  -0.492 -14.771  0.00  0.00     0.189 C 
BRANCH  14  15
HETATM   15  C           1     -35.776   1.014 -14.713  0.00  0.00     0.014 C 
HETATM   16  C           1     -34.553   1.315 -13.858  0.00  0.00     0.012 C 
BRANCH  15  17
HETATM   17  C           1     -35.553   1.547 -16.123  0.00  0.00     0.002 C 
HETATM   18  C           1     -36.379   2.811 -16.325  0.00  0.00     0.005 C 
ENDBRANCH  15  17
ENDBRANCH  14  15
BRANCH  14  19
HETATM   19  C           1     -35.856  -0.966 -16.197  0.00  0.00     0.197 C 
HETATM   20  O           1     -34.788  -1.490 -16.580  0.00  0.00    -0.646 OA
HETATM   21  O           1     -36.809  -0.836 -16.995  0.00  0.00    -0.646 OA
ENDBRANCH  14  19
ENDBRANCH   3  14
TORSDOF 8
ENDMDL
MODEL 3
REMARK VINA RESULT:      -6.0     11.107     12.530
REMARK  8 active torsions:
REMARK  status: ('A' for Active; 'I' for Inactive)
REMARK    1  A    between atoms: C_2  and  C_3 
REMARK    2  A    between atoms: C_2  and  C_15 
REMARK    3  A    between atoms: C_6  and  C_7 
REMARK    4  A    between atoms: C_6  and  C_14 
REMARK    5  A    between atoms: C_7  and  C_8 
REMARK    6  A    between atoms: C_7  and  N_11 
REMARK       I    between atoms: C_8  and  N_20 
REMARK    7  A    between atoms: C_15  and  C_16 
REMARK    8  A    between atoms: C_15  and  N_20 
ROOT
HETATM    1  O           1     -24.561  -6.425 -18.006  0.00  0.00    -0.271 OA
HETATM    2  C           1     -25.535  -6.797 -18.618  0.00  0.00     0.249 C 
HETATM    3  N           1     -26.784  -6.620 -18.088  0.00  0.00    -0.344 N 
HETATM    4  H           1     -27.600  -6.931 -18.599  0.00  0.00     0.163 HD
ENDROOT
BRANCH   2   5
HETATM    5  C           1     -25.374  -7.459 -19.964  0.00  0.00     0.275 C 
BRANCH   5   6
HETATM    6  C           1     -23.969  -7.199 -20.493  0.00  0.00     0.046 C 
BRANCH   6   7
HETATM    7  C           1     -23.582  -8.301 -21.470  0.00  0.00    -0.020 C 
HETATM    8  C           1     -22.144  -8.728 -21.210  0.00  0.00     0.009 C 
HETATM    9  C           1     -23.706  -7.780 -22.897  0.00  0.00     0.009 C 
ENDBRANCH   6   7
ENDBRANCH   5   6
BRANCH   5  10
HETATM   10  N           1     -26.380  -6.893 -20.921  0.00  0.00    -0.066 N 
HETATM   11  H           1     -27.132  -7.598 -21.093  0.00  0.00     0.275 HD
HETATM   12  H           1     -26.802  -6.028 -20.513  0.00  0.00     0.275 HD
HETATM   13  H           1     -25.909  -6.660 -21.824  0.00  0.00     0.275 HD
ENDBRANCH   5  10
ENDBRANCH   2   5
BRANCH   3  14
HETATM   14  C           1     -26.940  -5.983 -16.794  0.00  0.00     0.189 C 
BRANCH  14  15
HETATM   15  C           1     -28.316  -5.337 -16.708  0.00  0.00     0.014 C 
HETATM   16  C           1     -28.172  -3.824 -16.810  0.00  0.00     0.012 C 
BRANCH  15  17
HETATM   17  C           1     -29.185  -5.842 -17.853  0.00  0.00     0.002 C 
HETATM   18  C           1     -30.507  -6.357 -17.299  0.00  0.00     0.005 C 
ENDBRANCH  15  17
ENDBRANCH  14  15
BRANCH  14  19
HETATM   19  C           1     -26.803  -7.020 -15.706  0.00  0.00     0.197 C 
HETATM   20  O           1     -27.823  -7.508 -15.175  0.00  0.00    -0.646 OA
HETATM   21  O           1     -25.668  -7.392 -15.336  0.00  0.00    -0.646 OA
ENDBRANCH  14  19
ENDBRANCH   3  14
TORSDOF 8
ENDMDL
MODEL 4
REMARK VINA RESULT:      -5.9     10.248     11.539
REMARK  8 active torsions:
REMARK  status: ('A' for Active; 'I' for Inactive)
REMARK    1  A    between atoms: C_2  and  C_3 
REMARK    2  A    between atoms: C_2  and  C_15 
REMARK    3  A    between atoms: C_6  and  C_7 
REMARK    4  A    between atoms: C_6  and  C_14 
REMARK    5  A    between atoms: C_7  and  C_8 
REMARK    6  A    between atoms: C_7  and  N_11 
REMARK       I    between atoms: C_8  and  N_20 
REMARK    7  A    between atoms: C_15  and  C_16 
REMARK    8  A    between atoms: C_15  and  N_20 
ROOT
HETATM    1  O           1     -26.231  -6.292 -16.861  0.00  0.00    -0.271 OA
HETATM    2  C           1     -26.422  -6.394 -18.050  0.00  0.00     0.249 C 
HETATM    3  N           1     -27.700  -6.506 -18.530  0.00  0.00    -0.344 N 
HETATM    4  H           1     -27.860  -6.591 -19.525  0.00  0.00     0.163 HD
ENDROOT
BRANCH   2   5
HETATM    5  C           1     -25.254  -6.400 -19.005  0.00  0.00     0.275 C 
BRANCH   5   6
HETATM    6  C           1     -25.767  -6.529 -20.433  0.00  0.00     0.046 C 
BRANCH   6   7
HETATM    7  C           1     -25.470  -7.928 -20.955  0.00  0.00    -0.020 C 
HETATM    8  C           1     -24.508  -7.837 -22.132  0.00  0.00     0.009 C 
HETATM    9  C           1     -26.766  -8.586 -21.410  0.00  0.00     0.009 C 
ENDBRANCH   6   7
ENDBRANCH   5   6
BRANCH   5  10
HETATM   10  N           1     -24.358  -7.560 -18.689  0.00  0.00    -0.066 N 
HETATM   11  H           1     -23.408  -7.206 -18.432  0.00  0.00     0.275 HD
HETATM   12  H           1     -24.755  -8.100 -17.887  0.00  0.00     0.275 HD
HETATM   13  H           1     -24.283  -8.180 -19.526  0.00  0.00     0.275 HD
ENDBRANCH   5  10
ENDBRANCH   2   5
BRANCH   3  14
HETATM   14  C           1     -28.822  -6.500 -17.612  0.00  0.00     0.189 C 
BRANCH  14  15
HETATM   15  C           1     -29.819  -5.430 -18.037  0.00  0.00     0.014 C 
HETATM   16  C           1     -30.864  -5.248 -16.945  0.00  0.00     0.012 C 
BRANCH  15  17
HETATM   17  C           1     -29.085  -4.114 -18.260  0.00  0.00     0.002 C 
HETATM   18  C           1     -28.627  -3.553 -16.921  0.00  0.00     0.005 C 
ENDBRANCH  15  17
ENDBRANCH  14  15
BRANCH  14  19
HETATM   19  C           1     -29.495  -7.851 -17.634  0.00  0.00     0.197 C 
HETATM   20  O           1     -30.097  -8.233 -18.661  0.00  0.00    -0.646 OA
HETATM   21  O           1     -29.449  -8.588 -16.625  0.00  0.00    -0.646 OA
ENDBRANCH  14  19
ENDBRANCH   3  14
TORSDOF 8
ENDMDL
MODEL 5
REMARK VINA RESULT:      -5.8      2.471      5.548
REMARK  8 active torsions:
REMARK  status: ('A' for Active; 'I' for Inactive)
REMARK    1  A    between atoms: C_2  and  C_3 
REMARK    2  A    between atoms: C_2  and  C_15 
REMARK    3  A    between atoms: C_6  and  C_7 
REMARK    4  A    between atoms: C_6  and  C_14 
REMARK    5  A    between atoms: C_7  and  C_8 
REMARK    6  A    between atoms: C_7  and  N_11 
REMARK       I    between atoms: C_8  and  N_20 
REMARK    7  A    between atoms: C_15  and  C_16 
REMARK    8  A    between atoms: C_15  and  N_20 
ROOT
HETATM    1  O           1     -34.712   0.079 -12.008  0.00  0.00    -0.271 OA
HETATM    2  C           1     -35.626  -0.641 -11.681  0.00  0.00     0.249 C 
HETATM    3  N           1     -35.580  -1.979 -11.970  0.00  0.00    -0.344 N 
HETATM    4  H           1     -36.345  -2.583 -11.697  0.00  0.00     0.163 HD
ENDROOT
BRANCH   2   5
HETATM    5  C           1     -36.818  -0.068 -10.954  0.00  0.00     0.275 C 
BRANCH   5   6
HETATM    6  C           1     -36.871  -0.632  -9.541  0.00  0.00     0.046 C 
BRANCH   6   7
HETATM    7  C           1     -37.947   0.094  -8.744  0.00  0.00    -0.020 C 
HETATM    8  C           1     -37.718   1.597  -8.834  0.00  0.00     0.009 C 
HETATM    9  C           1     -37.879  -0.342  -7.286  0.00  0.00     0.009 C 
ENDBRANCH   6   7
ENDBRANCH   5   6
BRANCH   5  10
HETATM   10  N           1     -38.073  -0.436 -11.687  0.00  0.00    -0.066 N 
HETATM   11  H           1     -37.826  -0.941 -12.569  0.00  0.00     0.275 HD
HETATM   12  H           1     -38.659  -1.057 -11.084  0.00  0.00     0.275 HD
HETATM   13  H           1     -38.607   0.430 -11.920  0.00  0.00     0.275 HD
ENDBRANCH   5  10
ENDBRANCH   2   5
BRANCH   3  14
HETATM   14  C           1     -34.435  -2.531 -12.668  0.00  0.00     0.189 C 
BRANCH  14  15
HETATM   15  C           1     -34.130  -3.920 -12.124  0.00  0.00     0.014 C 
HETATM   16  C           1     -32.658  -4.004 -11.745  0.00  0.00     0.012 C 
BRANCH  15  17
HETATM   17  C           1     -34.988  -4.180 -10.892  0.00  0.00     0.002 C 
HETATM   18  C           1     -34.599  -5.518 -10.275  0.00  0.00     0.005 C 
ENDBRANCH  15  17
ENDBRANCH  14  15
BRANCH  14  19
HETATM   19  C           1     -34.743  -2.624 -14.142  0.00  0.00     0.197 C 
HETATM   20  O           1     -34.491  -3.676 -14.768  0.00  0.00    -0.646 OA
HETATM   21  O           1     -35.251  -1.649 -14.738  0.00  0.00    -0.646 OA
ENDBRANCH  14  19
ENDBRANCH   3  14
TORSDOF 8
ENDMDL
MODEL 6
REMARK VINA RESULT:      -5.6     12.165     13.822
REMARK  8 active torsions:
REMARK  status: ('A' for Active; 'I' for Inactive)
REMARK    1  A    between atoms: C_2  and  C_3 
REMARK    2  A    between atoms: C_2  and  C_15 
REMARK    3  A    between atoms: C_6  and  C_7 
REMARK    4  A    between atoms: C_6  and  C_14 
REMARK    5  A    between atoms: C_7  and  C_8 
REMARK    6  A    between atoms: C_7  and  N_11 
REMARK       I    between atoms: C_8  and  N_20 
REMARK    7  A    between atoms: C_15  and  C_16 
REMARK    8  A    between atoms: C_15  and  N_20 
ROOT
HETATM    1  O           1     -21.881  -2.941  -7.537  0.00  0.00    -0.271 OA
HETATM    2  C           1     -22.362  -4.046  -7.625  0.00  0.00     0.249 C 
HETATM    3  N           1     -22.992  -4.427  -8.780  0.00  0.00    -0.344 N 
HETATM    4  H           1     -23.395  -5.353  -8.855  0.00  0.00     0.163 HD
ENDROOT
BRANCH   2   5
HETATM    5  C           1     -22.270  -5.005  -6.465  0.00  0.00     0.275 C 
BRANCH   5   6
HETATM    6  C           1     -21.438  -6.215  -6.870  0.00  0.00     0.046 C 
BRANCH   6   7
HETATM    7  C           1     -20.184  -6.281  -6.009  0.00  0.00    -0.020 C 
HETATM    8  C           1     -20.353  -7.361  -4.948  0.00  0.00     0.009 C 
HETATM    9  C           1     -19.963  -4.935  -5.330  0.00  0.00     0.009 C 
ENDBRANCH   6   7
ENDBRANCH   5   6
BRANCH   5  10
HETATM   10  N           1     -23.648  -5.454  -6.078  0.00  0.00    -0.066 N 
HETATM   11  H           1     -24.356  -4.815  -6.507  0.00  0.00     0.275 HD
HETATM   12  H           1     -23.807  -6.428  -6.421  0.00  0.00     0.275 HD
HETATM   13  H           1     -23.743  -5.430  -5.038  0.00  0.00     0.275 HD
ENDBRANCH   5  10
ENDBRANCH   2   5
BRANCH   3  14
HETATM   14  C           1     -23.080  -3.506  -9.896  0.00  0.00     0.189 C 
BRANCH  14  15
HETATM   15  C           1     -22.116  -3.941 -10.991  0.00  0.00     0.014 C 
HETATM   16  C           1     -21.257  -2.756 -11.410  0.00  0.00     0.012 C 
BRANCH  15  17
HETATM   17  C           1     -21.221  -5.055 -10.464  0.00  0.00     0.002 C 
HETATM   18  C           1     -19.774  -4.581 -10.448  0.00  0.00     0.005 C 
ENDBRANCH  15  17
ENDBRANCH  14  15
BRANCH  14  19
HETATM   19  C           1     -24.489  -3.507 -10.437  0.00  0.00     0.197 C 
HETATM   20  O           1     -25.420  -3.018  -9.761  0.00  0.00    -0.646 OA
HETATM   21  O           1     -24.726  -3.996 -11.563  0.00  0.00    -0.646 OA
ENDBRANCH  14  19
ENDBRANCH   3  14
TORSDOF 8
ENDMDL
MODEL 7
REMARK VINA RESULT:      -5.6     14.376     16.926
REMARK  8 active torsions:
REMARK  status: ('A' for Active; 'I' for Inactive)
REMARK    1  A    between atoms: C_2  and  C_3 
REMARK    2  A    between atoms: C_2  and  C_15 
REMARK    3  A    between atoms: C_6  and  C_7 
REMARK    4  A    between atoms: C_6  and  C_14 
REMARK    5  A    between atoms: C_7  and  C_8 
REMARK    6  A    between atoms: C_7  and  N_11 
REMARK       I    between atoms: C_8  and  N_20 
REMARK    7  A    between atoms: C_15  and  C_16 
REMARK    8  A    between atoms: C_15  and  N_20 
ROOT
HETATM    1  O           1     -22.896  -5.930  -5.453  0.00  0.00    -0.271 OA
HETATM    2  C           1     -21.693  -5.822  -5.467  0.00  0.00     0.249 C 
HETATM    3  N           1     -20.929  -6.580  -4.620  0.00  0.00    -0.344 N 
HETATM    4  H           1     -19.921  -6.491  -4.631  0.00  0.00     0.163 HD
ENDROOT
BRANCH   2   5
HETATM    5  C           1     -21.031  -4.853  -6.415  0.00  0.00     0.275 C 
BRANCH   5   6
HETATM    6  C           1     -21.202  -5.347  -7.846  0.00  0.00     0.046 C 
BRANCH   6   7
HETATM    7  C           1     -21.399  -4.155  -8.774  0.00  0.00    -0.020 C 
HETATM    8  C           1     -22.847  -4.113  -9.244  0.00  0.00     0.009 C 
HETATM    9  C           1     -20.479  -4.293  -9.980  0.00  0.00     0.009 C 
ENDBRANCH   6   7
ENDBRANCH   5   6
BRANCH   5  10
HETATM   10  N           1     -19.570  -4.756  -6.091  0.00  0.00    -0.066 N 
HETATM   11  H           1     -19.158  -5.716  -6.049  0.00  0.00     0.275 HD
HETATM   12  H           1     -19.085  -4.202  -6.832  0.00  0.00     0.275 HD
HETATM   13  H           1     -19.450  -4.284  -5.166  0.00  0.00     0.275 HD
ENDBRANCH   5  10
ENDBRANCH   2   5
BRANCH   3  14
HETATM   14  C           1     -21.564  -7.513  -3.709  0.00  0.00     0.189 C 
BRANCH  14  15
HETATM   15  C           1     -20.771  -8.812  -3.679  0.00  0.00     0.014 C 
HETATM   16  C           1     -21.626  -9.941  -4.239  0.00  0.00     0.012 C 
BRANCH  15  17
HETATM   17  C           1     -19.514  -8.659  -4.525  0.00  0.00     0.002 C 
HETATM   18  C           1     -18.345  -9.342  -3.829  0.00  0.00     0.005 C 
ENDBRANCH  15  17
ENDBRANCH  14  15
BRANCH  14  19
HETATM   19  C           1     -21.601  -6.914  -2.324  0.00  0.00     0.197 C 
HETATM   20  O           1     -22.278  -5.886  -2.106  0.00  0.00    -0.646 OA
HETATM   21  O           1     -20.957  -7.446  -1.395  0.00  0.00    -0.646 OA
ENDBRANCH  14  19
ENDBRANCH   3  14
TORSDOF 8
ENDMDL
MODEL 8
REMARK VINA RESULT:      -5.4     10.643     12.067
REMARK  8 active torsions:
REMARK  status: ('A' for Active; 'I' for Inactive)
REMARK    1  A    between atoms: C_2  and  C_3 
REMARK    2  A    between atoms: C_2  and  C_15 
REMARK    3  A    between atoms: C_6  and  C_7 
REMARK    4  A    between atoms: C_6  and  C_14 
REMARK    5  A    between atoms: C_7  and  C_8 
REMARK    6  A    between atoms: C_7  and  N_11 
REMARK       I    between atoms: C_8  and  N_20 
REMARK    7  A    between atoms: C_15  and  C_16 
REMARK    8  A    between atoms: C_15  and  N_20 
ROOT
HETATM    1  O           1     -27.569  -5.478 -20.360  0.00  0.00    -0.271 OA
HETATM    2  C           1     -27.193  -6.467 -19.776  0.00  0.00     0.249 C 
HETATM    3  N           1     -27.536  -6.659 -18.464  0.00  0.00    -0.344 N 
HETATM    4  H           1     -27.222  -7.487 -17.975  0.00  0.00     0.163 HD
ENDROOT
BRANCH   2   5
HETATM    5  C           1     -26.346  -7.490 -20.491  0.00  0.00     0.275 C 
BRANCH   5   6
HETATM    6  C           1     -25.580  -6.815 -21.622  0.00  0.00     0.046 C 
BRANCH   6   7
HETATM    7  C           1     -24.108  -7.195 -21.535  0.00  0.00    -0.020 C 
HETATM    8  C           1     -23.726  -8.026 -22.753  0.00  0.00     0.009 C 
HETATM    9  C           1     -23.867  -8.008 -20.270  0.00  0.00     0.009 C 
ENDBRANCH   6   7
ENDBRANCH   5   6
BRANCH   5  10
HETATM   10  N           1     -27.230  -8.561 -21.057  0.00  0.00    -0.066 N 
HETATM   11  H           1     -27.868  -8.918 -20.309  0.00  0.00     0.275 HD
HETATM   12  H           1     -27.800  -8.166 -21.840  0.00  0.00     0.275 HD
HETATM   13  H           1     -26.641  -9.346 -21.415  0.00  0.00     0.275 HD
ENDBRANCH   5  10
ENDBRANCH   2   5
BRANCH   3  14
HETATM   14  C           1     -28.350  -5.676 -17.776  0.00  0.00     0.189 C 
BRANCH  14  15
HETATM   15  C           1     -29.448  -6.384 -16.995  0.00  0.00     0.014 C 
HETATM   16  C           1     -30.731  -5.567 -17.070  0.00  0.00     0.012 C 
BRANCH  15  17
HETATM   17  C           1     -29.688  -7.763 -17.595  0.00  0.00     0.002 C 
HETATM   18  C           1     -30.877  -7.705 -18.546  0.00  0.00     0.005 C 
ENDBRANCH  15  17
ENDBRANCH  14  15
BRANCH  14  19
HETATM   19  C           1     -27.485  -4.885 -16.825  0.00  0.00     0.197 C 
HETATM   20  O           1     -27.852  -3.753 -16.441  0.00  0.00    -0.646 OA
HETATM   21  O           1     -26.404  -5.363 -16.420  0.00  0.00    -0.646 OA
ENDBRANCH  14  19
ENDBRANCH   3  14
TORSDOF 8
ENDMDL
MODEL 9
REMARK VINA RESULT:      -5.3     17.562     19.306
REMARK  8 active torsions:
REMARK  status: ('A' for Active; 'I' for Inactive)
REMARK    1  A    between atoms: C_2  and  C_3 
REMARK    2  A    between atoms: C_2  and  C_15 
REMARK    3  A    between atoms: C_6  and  C_7 
REMARK    4  A    between atoms: C_6  and  C_14 
REMARK    5  A    between atoms: C_7  and  C_8 
REMARK    6  A    between atoms: C_7  and  N_11 
REMARK       I    between atoms: C_8  and  N_20 
REMARK    7  A    between atoms: C_15  and  C_16 
REMARK    8  A    between atoms: C_15  and  N_20 
ROOT
HETATM    1  O           1     -23.043 -10.824  -3.057  0.00  0.00    -0.271 OA
HETATM    2  C           1     -23.060 -10.928  -1.853  0.00  0.00     0.249 C 
HETATM    3  N           1     -22.336 -10.058  -1.082  0.00  0.00    -0.344 N 
HETATM    4  H           1     -22.350 -10.144  -0.074  0.00  0.00     0.163 HD
ENDROOT
BRANCH   2   5
HETATM    5  C           1     -23.876 -12.015  -1.200  0.00  0.00     0.275 C 
BRANCH   5   6
HETATM    6  C           1     -23.684 -11.957   0.310  0.00  0.00     0.046 C 
BRANCH   6   7
HETATM    7  C           1     -22.839 -13.141   0.761  0.00  0.00    -0.020 C 
HETATM    8  C           1     -23.460 -13.764   2.004  0.00  0.00     0.009 C 
HETATM    9  C           1     -21.429 -12.663   1.084  0.00  0.00     0.009 C 
ENDBRANCH   6   7
ENDBRANCH   5   6
BRANCH   5  10
HETATM   10  N           1     -23.426 -13.352  -1.709  0.00  0.00    -0.066 N 
HETATM   11  H           1     -22.554 -13.639  -1.210  0.00  0.00     0.275 HD
HETATM   12  H           1     -24.174 -14.061  -1.537  0.00  0.00     0.275 HD
HETATM   13  H           1     -23.235 -13.287  -2.734  0.00  0.00     0.275 HD
ENDBRANCH   5  10
ENDBRANCH   2   5
BRANCH   3  14
HETATM   14  C           1     -21.552  -9.013  -1.710  0.00  0.00     0.189 C 
BRANCH  14  15
HETATM   15  C           1     -21.518  -7.789  -0.804  0.00  0.00     0.014 C 
HETATM   16  C           1     -22.285  -6.650  -1.462  0.00  0.00     0.012 C 
BRANCH  15  17
HETATM   17  C           1     -22.166  -8.131   0.532  0.00  0.00     0.002 C 
HETATM   18  C           1     -21.086  -8.503   1.540  0.00  0.00     0.005 C 
ENDBRANCH  15  17
ENDBRANCH  14  15
BRANCH  14  19
HETATM   19  C           1     -20.144  -9.509  -1.936  0.00  0.00     0.197 C 
HETATM   20  O           1     -19.732 -10.520  -1.327  0.00  0.00    -0.646 OA
HETATM   21  O           1     -19.391  -8.911  -2.735  0.00  0.00    -0.646 OA
ENDBRANCH  14  19
ENDBRANCH   3  14
TORSDOF 8
ENDMDL
