MODEL 1
REMARK VINA RESULT:      -7.2      0.000      0.000
REMARK  12 active torsions:
REMARK  status: ('A' for Active; 'I' for Inactive)
REMARK       I    between atoms: N_1  and  C_2 
REMARK    1  A    between atoms: C_2  and  C_20 
REMARK    2  A    between atoms: C_5  and  C_18 
REMARK    3  A    between atoms: N_11  and  C_23 
REMARK    4  A    between atoms: N_13  and  C_18 
REMARK       I    between atoms: N_13  and  C_17 
REMARK    5  A    between atoms: N_15  and  C_28 
REMARK    6  A    between atoms: C_17  and  C_23 
REMARK    7  A    between atoms: C_18  and  C_19 
REMARK    8  A    between atoms: C_19  and  C_20 
REMARK    9  A    between atoms: C_23  and  C_25 
REMARK   10  A    between atoms: C_25  and  C_26 
REMARK   11  A    between atoms: C_26  and  C_27 
REMARK   12  A    between atoms: C_27  and  C_28 
ROOT
HETATM    1  O           1     -33.817  -2.040 -11.247  0.00  0.00    -0.271 OA
HETATM    2  N           1     -34.962  -1.694 -13.133  0.00  0.00    -0.345 N 
HETATM    3  H           1     -35.362  -2.086 -13.976  0.00  0.00     0.163 HD
HETATM    4  C           1     -34.295  -2.505 -12.253  0.00  0.00     0.249 C 
ENDROOT
BRANCH   4   5
HETATM    5  C           1     -34.159  -3.980 -12.541  0.00  0.00     0.274 C 
BRANCH   5   6
HETATM    6  N           1     -33.624  -4.170 -13.930  0.00  0.00    -0.067 N 
HETATM    7  H           1     -34.392  -4.023 -14.622  0.00  0.00     0.275 HD
HETATM    8  H           1     -32.859  -3.480 -14.105  0.00  0.00     0.275 HD
HETATM    9  H           1     -33.248  -5.140 -14.028  0.00  0.00     0.275 HD
ENDBRANCH   5   6
BRANCH   5  10
HETATM   10  C           1     -33.198  -4.607 -11.538  0.00  0.00     0.042 C 
BRANCH  10  11
HETATM   11  C           1     -33.990  -5.358 -10.477  0.00  0.00     0.004 C 
BRANCH  11  12
HETATM   12  C           1     -34.591  -6.618 -11.087  0.00  0.00     0.027 C 
BRANCH  12  13
HETATM   13  C           1     -34.675  -7.706 -10.026  0.00  0.00     0.229 C 
BRANCH  13  14
HETATM   14  N           1     -33.619  -8.739 -10.283  0.00  0.00    -0.079 N 
HETATM   15  H           1     -33.769  -9.165 -11.225  0.00  0.00     0.274 HD
HETATM   16  H           1     -32.676  -8.290 -10.250  0.00  0.00     0.274 HD
HETATM   17  H           1     -33.674  -9.484  -9.551  0.00  0.00     0.274 HD
ENDBRANCH  13  14
ENDBRANCH  12  13
ENDBRANCH  11  12
ENDBRANCH  10  11
ENDBRANCH   5  10
ENDBRANCH   4   5
BRANCH   2  18
HETATM   18  C           1     -35.093  -0.278 -12.856  0.00  0.00     0.186 C 
BRANCH  18  19
HETATM   19  C           1     -36.360  -0.035 -12.073  0.00  0.00     0.196 C 
HETATM   20  O           1     -36.298   0.440 -10.919  0.00  0.00    -0.646 OA
HETATM   21  O           1     -37.470  -0.307 -12.579  0.00  0.00    -0.646 OA
ENDBRANCH  18  19
BRANCH  18  22
HETATM   22  C           1     -35.152   0.491 -14.170  0.00  0.00     0.045 C 
BRANCH  22  23
HETATM   23  C           1     -35.390  -0.482 -15.318  0.00  0.00     0.105 C 
BRANCH  23  24
HETATM   24  C           1     -36.676  -0.127 -16.021  0.00  0.00     0.215 C 
HETATM   25  N           1     -37.432   0.925 -15.576  0.00  0.00    -0.370 N 
HETATM   26  H           1     -37.128   1.463 -14.776  0.00  0.00     0.159 HD
HETATM   27  H           1     -38.295   1.163 -16.048  0.00  0.00     0.159 HD
HETATM   28  O           1     -37.039  -0.770 -16.977  0.00  0.00    -0.274 OA
ENDBRANCH  23  24
ENDBRANCH  22  23
ENDBRANCH  18  22
ENDBRANCH   2  18
TORSDOF 12
ENDMDL
MODEL 2
REMARK VINA RESULT:      -6.9     10.289     11.599
REMARK  12 active torsions:
REMARK  status: ('A' for Active; 'I' for Inactive)
REMARK       I    between atoms: N_1  and  C_2 
REMARK    1  A    between atoms: C_2  and  C_20 
REMARK    2  A    between atoms: C_5  and  C_18 
REMARK    3  A    between atoms: N_11  and  C_23 
REMARK    4  A    between atoms: N_13  and  C_18 
REMARK       I    between atoms: N_13  and  C_17 
REMARK    5  A    between atoms: N_15  and  C_28 
REMARK    6  A    between atoms: C_17  and  C_23 
REMARK    7  A    between atoms: C_18  and  C_19 
REMARK    8  A    between atoms: C_19  and  C_20 
REMARK    9  A    between atoms: C_23  and  C_25 
REMARK   10  A    between atoms: C_25  and  C_26 
REMARK   11  A    between atoms: C_26  and  C_27 
REMARK   12  A    between atoms: C_27  and  C_28 
ROOT
HETATM    1  O           1     -26.329  -5.986 -17.295  0.00  0.00    -0.271 OA
HETATM    2  N           1     -27.691  -6.590 -18.958  0.00  0.00    -0.345 N 
HETATM    3  H           1     -27.787  -6.906 -19.915  0.00  0.00     0.163 HD
HETATM    4  C           1     -26.446  -6.363 -18.436  0.00  0.00     0.249 C 
ENDROOT
BRANCH   4   5
HETATM    5  C           1     -25.218  -6.584 -19.286  0.00  0.00     0.274 C 
BRANCH   5   6
HETATM    6  N           1     -24.330  -7.596 -18.626  0.00  0.00    -0.067 N 
HETATM    7  H           1     -23.330  -7.354 -18.808  0.00  0.00     0.275 HD
HETATM    8  H           1     -24.507  -7.594 -17.596  0.00  0.00     0.275 HD
HETATM    9  H           1     -24.534  -8.545 -19.013  0.00  0.00     0.275 HD
ENDBRANCH   5   6
BRANCH   5  10
HETATM   10  C           1     -25.637  -7.096 -20.658  0.00  0.00     0.042 C 
BRANCH  10  11
HETATM   11  C           1     -24.678  -8.190 -21.108  0.00  0.00     0.004 C 
BRANCH  11  12
HETATM   12  C           1     -24.052  -7.801 -22.440  0.00  0.00     0.027 C 
BRANCH  12  13
HETATM   13  C           1     -22.706  -8.496 -22.591  0.00  0.00     0.229 C 
BRANCH  13  14
HETATM   14  N           1     -22.375  -9.227 -21.324  0.00  0.00    -0.079 N 
HETATM   15  H           1     -23.138  -9.905 -21.103  0.00  0.00     0.274 HD
HETATM   16  H           1     -21.474  -9.743 -21.444  0.00  0.00     0.274 HD
HETATM   17  H           1     -22.280  -8.541 -20.541  0.00  0.00     0.274 HD
ENDBRANCH  13  14
ENDBRANCH  12  13
ENDBRANCH  11  12
ENDBRANCH  10  11
ENDBRANCH   5  10
ENDBRANCH   4   5
BRANCH   2  18
HETATM   18  C           1     -28.869  -6.377 -18.141  0.00  0.00     0.186 C 
BRANCH  18  19
HETATM   19  C           1     -29.864  -7.483 -18.397  0.00  0.00     0.196 C 
HETATM   20  O           1     -29.545  -8.456 -19.114  0.00  0.00    -0.646 OA
HETATM   21  O           1     -31.006  -7.426 -17.892  0.00  0.00    -0.646 OA
ENDBRANCH  18  19
BRANCH  18  22
HETATM   22  C           1     -29.497  -5.035 -18.498  0.00  0.00     0.045 C 
BRANCH  22  23
HETATM   23  C           1     -29.861  -4.290 -17.220  0.00  0.00     0.105 C 
BRANCH  23  24
HETATM   24  C           1     -31.342  -4.007 -17.206  0.00  0.00     0.215 C 
HETATM   25  N           1     -32.195  -4.856 -16.553  0.00  0.00    -0.370 N 
HETATM   26  H           1     -31.831  -5.673 -16.079  0.00  0.00     0.159 HD
HETATM   27  H           1     -33.189  -4.666 -16.543  0.00  0.00     0.159 HD
HETATM   28  O           1     -31.776  -3.031 -17.771  0.00  0.00    -0.274 OA
ENDBRANCH  23  24
ENDBRANCH  22  23
ENDBRANCH  18  22
ENDBRANCH   2  18
TORSDOF 12
ENDMDL
MODEL 3
REMARK VINA RESULT:      -6.5     11.337     12.957
REMARK  12 active torsions:
REMARK  status: ('A' for Active; 'I' for Inactive)
REMARK       I    between atoms: N_1  and  C_2 
REMARK    1  A    between atoms: C_2  and  C_20 
REMARK    2  A    between atoms: C_5  and  C_18 
REMARK    3  A    between atoms: N_11  and  C_23 
REMARK    4  A    between atoms: N_13  and  C_18 
REMARK       I    between atoms: N_13  and  C_17 
REMARK    5  A    between atoms: N_15  and  C_28 
REMARK    6  A    between atoms: C_17  and  C_23 
REMARK    7  A    between atoms: C_18  and  C_19 
REMARK    8  A    between atoms: C_19  and  C_20 
REMARK    9  A    between atoms: C_23  and  C_25 
REMARK   10  A    between atoms: C_25  and  C_26 
REMARK   11  A    between atoms: C_26  and  C_27 
REMARK   12  A    between atoms: C_27  and  C_28 
ROOT
HETATM    1  O           1     -24.149  -6.436 -18.663  0.00  0.00    -0.271 OA
HETATM    2  N           1     -26.334  -6.780 -18.363  0.00  0.00    -0.345 N 
HETATM    3  H           1     -27.196  -7.178 -18.715  0.00  0.00     0.163 HD
HETATM    4  C           1     -25.177  -6.910 -19.083  0.00  0.00     0.249 C 
ENDROOT
BRANCH   4   5
HETATM    5  C           1     -25.186  -7.645 -20.401  0.00  0.00     0.274 C 
BRANCH   5   6
HETATM    6  N           1     -26.579  -8.116 -20.699  0.00  0.00    -0.067 N 
HETATM    7  H           1     -26.624  -8.467 -21.682  0.00  0.00     0.275 HD
HETATM    8  H           1     -26.833  -8.887 -20.042  0.00  0.00     0.275 HD
HETATM    9  H           1     -27.247  -7.322 -20.582  0.00  0.00     0.275 HD
ENDBRANCH   5   6
BRANCH   5  10
HETATM   10  C           1     -24.719  -6.710 -21.508  0.00  0.00     0.042 C 
BRANCH  10  11
HETATM   11  C           1     -23.945  -7.503 -22.552  0.00  0.00     0.004 C 
BRANCH  11  12
HETATM   12  C           1     -22.966  -8.439 -21.856  0.00  0.00     0.027 C 
BRANCH  12  13
HETATM   13  C           1     -22.127  -9.164 -22.899  0.00  0.00     0.229 C 
BRANCH  13  14
HETATM   14  N           1     -20.773  -9.468 -22.329  0.00  0.00    -0.079 N 
HETATM   15  H           1     -20.780  -9.291 -21.299  0.00  0.00     0.274 HD
HETATM   16  H           1     -20.536 -10.469 -22.508  0.00  0.00     0.274 HD
HETATM   17  H           1     -20.058  -8.855 -22.783  0.00  0.00     0.274 HD
ENDBRANCH  13  14
ENDBRANCH  12  13
ENDBRANCH  11  12
ENDBRANCH  10  11
ENDBRANCH   5  10
ENDBRANCH   4   5
BRANCH   2  18
HETATM   18  C           1     -26.325  -6.074 -17.097  0.00  0.00     0.186 C 
BRANCH  18  19
HETATM   19  C           1     -26.160  -7.064 -15.970  0.00  0.00     0.196 C 
HETATM   20  O           1     -25.017  -7.434 -15.627  0.00  0.00    -0.646 OA
HETATM   21  O           1     -27.167  -7.514 -15.380  0.00  0.00    -0.646 OA
ENDBRANCH  18  19
BRANCH  18  22
HETATM   22  C           1     -27.640  -5.323 -16.926  0.00  0.00     0.045 C 
BRANCH  22  23
HETATM   23  C           1     -28.603  -5.728 -18.036  0.00  0.00     0.105 C 
BRANCH  23  24
HETATM   24  C           1     -29.681  -6.617 -17.468  0.00  0.00     0.215 C 
HETATM   25  N           1     -29.498  -7.973 -17.425  0.00  0.00    -0.370 N 
HETATM   26  H           1     -28.639  -8.379 -17.773  0.00  0.00     0.159 HD
HETATM   27  H           1     -30.221  -8.569 -17.044  0.00  0.00     0.159 HD
HETATM   28  O           1     -30.707  -6.133 -17.052  0.00  0.00    -0.274 OA
ENDBRANCH  23  24
ENDBRANCH  22  23
ENDBRANCH  18  22
ENDBRANCH   2  18
TORSDOF 12
ENDMDL
MODEL 4
REMARK VINA RESULT:      -6.2      9.730     12.003
REMARK  12 active torsions:
REMARK  status: ('A' for Active; 'I' for Inactive)
REMARK       I    between atoms: N_1  and  C_2 
REMARK    1  A    between atoms: C_2  and  C_20 
REMARK    2  A    between atoms: C_5  and  C_18 
REMARK    3  A    between atoms: N_11  and  C_23 
REMARK    4  A    between atoms: N_13  and  C_18 
REMARK       I    between atoms: N_13  and  C_17 
REMARK    5  A    between atoms: N_15  and  C_28 
REMARK    6  A    between atoms: C_17  and  C_23 
REMARK    7  A    between atoms: C_18  and  C_19 
REMARK    8  A    between atoms: C_19  and  C_20 
REMARK    9  A    between atoms: C_23  and  C_25 
REMARK   10  A    between atoms: C_25  and  C_26 
REMARK   11  A    between atoms: C_26  and  C_27 
REMARK   12  A    between atoms: C_27  and  C_28 
ROOT
HETATM    1  O           1     -28.237  -5.210 -19.265  0.00  0.00    -0.271 OA
HETATM    2  N           1     -27.351  -7.258 -19.191  0.00  0.00    -0.345 N 
HETATM    3  H           1     -27.447  -8.223 -18.901  0.00  0.00     0.163 HD
HETATM    4  C           1     -28.349  -6.361 -18.920  0.00  0.00     0.249 C 
ENDROOT
BRANCH   4   5
HETATM    5  C           1     -29.591  -6.812 -18.189  0.00  0.00     0.274 C 
BRANCH   5   6
HETATM    6  N           1     -29.818  -8.272 -18.444  0.00  0.00    -0.067 N 
HETATM    7  H           1     -28.903  -8.776 -18.421  0.00  0.00     0.275 HD
HETATM    8  H           1     -30.448  -8.660 -17.706  0.00  0.00     0.275 HD
HETATM    9  H           1     -30.261  -8.397 -19.382  0.00  0.00     0.275 HD
ENDBRANCH   5   6
BRANCH   5  10
HETATM   10  C           1     -29.412  -6.580 -16.694  0.00  0.00     0.042 C 
BRANCH  10  11
HETATM   11  C           1     -29.891  -5.180 -16.335  0.00  0.00     0.004 C 
BRANCH  11  12
HETATM   12  C           1     -31.267  -4.942 -16.942  0.00  0.00     0.027 C 
BRANCH  12  13
HETATM   13  C           1     -31.286  -3.593 -17.648  0.00  0.00     0.229 C 
BRANCH  13  14
HETATM   14  N           1     -29.903  -3.012 -17.652  0.00  0.00    -0.079 N 
HETATM   15  H           1     -29.347  -3.441 -18.426  0.00  0.00     0.274 HD
HETATM   16  H           1     -29.960  -1.979 -17.795  0.00  0.00     0.274 HD
HETATM   17  H           1     -29.438  -3.211 -16.737  0.00  0.00     0.274 HD
ENDBRANCH  13  14
ENDBRANCH  12  13
ENDBRANCH  11  12
ENDBRANCH  10  11
ENDBRANCH   5  10
ENDBRANCH   4   5
BRANCH   2  18
HETATM   18  C           1     -26.159  -6.825 -19.893  0.00  0.00     0.186 C 
BRANCH  18  19
HETATM   19  C           1     -25.863  -7.785 -21.019  0.00  0.00     0.196 C 
HETATM   20  O           1     -24.753  -7.754 -21.590  0.00  0.00    -0.646 OA
HETATM   21  O           1     -26.729  -8.612 -21.380  0.00  0.00    -0.646 OA
ENDBRANCH  18  19
BRANCH  18  22
HETATM   22  C           1     -24.983  -6.799 -18.924  0.00  0.00     0.045 C 
BRANCH  22  23
HETATM   23  C           1     -25.483  -6.452 -17.528  0.00  0.00     0.105 C 
BRANCH  23  24
HETATM   24  C           1     -24.765  -7.302 -16.510  0.00  0.00     0.215 C 
HETATM   25  N           1     -23.574  -7.896 -16.831  0.00  0.00    -0.370 N 
HETATM   26  H           1     -23.176  -7.765 -17.752  0.00  0.00     0.159 HD
HETATM   27  H           1     -23.093  -8.467 -16.148  0.00  0.00     0.159 HD
HETATM   28  O           1     -25.241  -7.458 -15.410  0.00  0.00    -0.274 OA
ENDBRANCH  23  24
ENDBRANCH  22  23
ENDBRANCH  18  22
ENDBRANCH   2  18
TORSDOF 12
ENDMDL
MODEL 5
REMARK VINA RESULT:      -6.0      1.992      3.447
REMARK  12 active torsions:
REMARK  status: ('A' for Active; 'I' for Inactive)
REMARK       I    between atoms: N_1  and  C_2 
REMARK    1  A    between atoms: C_2  and  C_20 
REMARK    2  A    between atoms: C_5  and  C_18 
REMARK    3  A    between atoms: N_11  and  C_23 
REMARK    4  A    between atoms: N_13  and  C_18 
REMARK       I    between atoms: N_13  and  C_17 
REMARK    5  A    between atoms: N_15  and  C_28 
REMARK    6  A    between atoms: C_17  and  C_23 
REMARK    7  A    between atoms: C_18  and  C_19 
REMARK    8  A    between atoms: C_19  and  C_20 
REMARK    9  A    between atoms: C_23  and  C_25 
REMARK   10  A    between atoms: C_25  and  C_26 
REMARK   11  A    between atoms: C_26  and  C_27 
REMARK   12  A    between atoms: C_27  and  C_28 
ROOT
HETATM    1  O           1     -34.945  -3.217 -13.236  0.00  0.00    -0.271 OA
HETATM    2  N           1     -34.885  -1.159 -12.374  0.00  0.00    -0.345 N 
HETATM    3  H           1     -34.474  -0.523 -11.702  0.00  0.00     0.163 HD
HETATM    4  C           1     -34.457  -2.458 -12.435  0.00  0.00     0.249 C 
ENDROOT
BRANCH   4   5
HETATM    5  C           1     -33.374  -2.940 -11.500  0.00  0.00     0.274 C 
BRANCH   5   6
HETATM    6  N           1     -33.746  -2.600 -10.088  0.00  0.00    -0.067 N 
HETATM    7  H           1     -33.735  -3.468  -9.506  0.00  0.00     0.275 HD
HETATM    8  H           1     -33.059  -1.914  -9.703  0.00  0.00     0.275 HD
HETATM    9  H           1     -34.703  -2.182 -10.071  0.00  0.00     0.275 HD
ENDBRANCH   5   6
BRANCH   5  10
HETATM   10  C           1     -33.223  -4.450 -11.635  0.00  0.00     0.042 C 
BRANCH  10  11
HETATM   11  C           1     -34.214  -5.145 -10.712  0.00  0.00     0.004 C 
BRANCH  11  12
HETATM   12  C           1     -33.732  -6.560 -10.422  0.00  0.00     0.027 C 
BRANCH  12  13
HETATM   13  C           1     -34.901  -7.406  -9.935  0.00  0.00     0.229 C 
BRANCH  13  14
HETATM   14  N           1     -34.413  -8.781  -9.586  0.00  0.00    -0.079 N 
HETATM   15  H           1     -33.657  -8.711  -8.867  0.00  0.00     0.274 HD
HETATM   16  H           1     -35.204  -9.346  -9.205  0.00  0.00     0.274 HD
HETATM   17  H           1     -34.036  -9.245 -10.444  0.00  0.00     0.274 HD
ENDBRANCH  13  14
ENDBRANCH  12  13
ENDBRANCH  11  12
ENDBRANCH  10  11
ENDBRANCH   5  10
ENDBRANCH   4   5
BRANCH   2  18
HETATM   18  C           1     -35.924  -0.695 -13.272  0.00  0.00     0.186 C 
BRANCH  18  19
HETATM   19  C           1     -35.303   0.118 -14.382  0.00  0.00     0.196 C 
HETATM   20  O           1     -34.907   1.281 -14.157  0.00  0.00    -0.646 OA
HETATM   21  O           1     -35.185  -0.373 -15.526  0.00  0.00    -0.646 OA
ENDBRANCH  18  19
BRANCH  18  22
HETATM   22  C           1     -36.912   0.169 -12.499  0.00  0.00     0.045 C 
BRANCH  22  23
HETATM   23  C           1     -37.327  -0.551 -11.222  0.00  0.00     0.105 C 
BRANCH  23  24
HETATM   24  C           1     -37.232   0.398 -10.054  0.00  0.00     0.215 C 
HETATM   25  N           1     -36.194   0.292  -9.168  0.00  0.00    -0.370 N 
HETATM   26  H           1     -35.490  -0.423  -9.297  0.00  0.00     0.159 HD
HETATM   27  H           1     -36.131   0.929  -8.385  0.00  0.00     0.159 HD
HETATM   28  O           1     -38.073   1.252  -9.900  0.00  0.00    -0.274 OA
ENDBRANCH  23  24
ENDBRANCH  22  23
ENDBRANCH  18  22
ENDBRANCH   2  18
TORSDOF 12
ENDMDL
MODEL 6
REMARK VINA RESULT:      -5.9      9.543     11.382
REMARK  12 active torsions:
REMARK  status: ('A' for Active; 'I' for Inactive)
REMARK       I    between atoms: N_1  and  C_2 
REMARK    1  A    between atoms: C_2  and  C_20 
REMARK    2  A    between atoms: C_5  and  C_18 
REMARK    3  A    between atoms: N_11  and  C_23 
REMARK    4  A    between atoms: N_13  and  C_18 
REMARK       I    between atoms: N_13  and  C_17 
REMARK    5  A    between atoms: N_15  and  C_28 
REMARK    6  A    between atoms: C_17  and  C_23 
REMARK    7  A    between atoms: C_18  and  C_19 
REMARK    8  A    between atoms: C_19  and  C_20 
REMARK    9  A    between atoms: C_23  and  C_25 
REMARK   10  A    between atoms: C_25  and  C_26 
REMARK   11  A    between atoms: C_26  and  C_27 
REMARK   12  A    between atoms: C_27  and  C_28 
ROOT
HETATM    1  O           1     -28.075  -6.959 -16.085  0.00  0.00    -0.271 OA
HETATM    2  N           1     -26.774  -5.805 -17.485  0.00  0.00    -0.345 N 
HETATM    3  H           1     -26.606  -4.938 -17.981  0.00  0.00     0.163 HD
HETATM    4  C           1     -27.873  -5.927 -16.677  0.00  0.00     0.249 C 
ENDROOT
BRANCH   4   5
HETATM    5  C           1     -28.831  -4.770 -16.527  0.00  0.00     0.274 C 
BRANCH   5   6
HETATM    6  N           1     -28.987  -4.076 -17.847  0.00  0.00    -0.067 N 
HETATM    7  H           1     -29.351  -4.752 -18.555  0.00  0.00     0.275 HD
HETATM    8  H           1     -29.658  -3.282 -17.745  0.00  0.00     0.275 HD
HETATM    9  H           1     -28.059  -3.710 -18.159  0.00  0.00     0.275 HD
ENDBRANCH   5   6
BRANCH   5  10
HETATM   10  C           1     -30.186  -5.291 -16.065  0.00  0.00     0.042 C 
BRANCH  10  11
HETATM   11  C           1     -31.069  -5.558 -17.277  0.00  0.00     0.004 C 
BRANCH  11  12
HETATM   12  C           1     -31.256  -7.059 -17.448  0.00  0.00     0.027 C 
BRANCH  12  13
HETATM   13  C           1     -30.498  -7.529 -18.682  0.00  0.00     0.229 C 
BRANCH  13  14
HETATM   14  N           1     -29.469  -8.543 -18.281  0.00  0.00    -0.079 N 
HETATM   15  H           1     -29.846  -9.505 -18.440  0.00  0.00     0.274 HD
HETATM   16  H           1     -28.605  -8.409 -18.853  0.00  0.00     0.274 HD
HETATM   17  H           1     -29.237  -8.423 -17.268  0.00  0.00     0.274 HD
ENDBRANCH  13  14
ENDBRANCH  12  13
ENDBRANCH  11  12
ENDBRANCH  10  11
ENDBRANCH   5  10
ENDBRANCH   4   5
BRANCH   2  18
HETATM   18  C           1     -25.854  -6.915 -17.629  0.00  0.00     0.186 C 
BRANCH  18  19
HETATM   19  C           1     -24.912  -6.943 -16.450  0.00  0.00     0.196 C 
HETATM   20  O           1     -24.238  -7.968 -16.214  0.00  0.00    -0.646 OA
HETATM   21  O           1     -24.806  -5.941 -15.710  0.00  0.00    -0.646 OA
ENDBRANCH  18  19
BRANCH  18  22
HETATM   22  C           1     -25.054  -6.745 -18.915  0.00  0.00     0.045 C 
BRANCH  22  23
HETATM   23  C           1     -25.997  -6.797 -20.110  0.00  0.00     0.105 C 
BRANCH  23  24
HETATM   24  C           1     -25.640  -7.975 -20.982  0.00  0.00     0.215 C 
HETATM   25  N           1     -24.327  -8.297 -21.195  0.00  0.00    -0.370 N 
HETATM   26  H           1     -23.595  -7.745 -20.767  0.00  0.00     0.159 HD
HETATM   27  H           1     -24.088  -9.087 -21.780  0.00  0.00     0.159 HD
HETATM   28  O           1     -26.514  -8.634 -21.494  0.00  0.00    -0.274 OA
ENDBRANCH  23  24
ENDBRANCH  22  23
ENDBRANCH  18  22
ENDBRANCH   2  18
TORSDOF 12
ENDMDL
MODEL 7
REMARK VINA RESULT:      -5.8      6.059      9.104
REMARK  12 active torsions:
REMARK  status: ('A' for Active; 'I' for Inactive)
REMARK       I    between atoms: N_1  and  C_2 
REMARK    1  A    between atoms: C_2  and  C_20 
REMARK    2  A    between atoms: C_5  and  C_18 
REMARK    3  A    between atoms: N_11  and  C_23 
REMARK    4  A    between atoms: N_13  and  C_18 
REMARK       I    between atoms: N_13  and  C_17 
REMARK    5  A    between atoms: N_15  and  C_28 
REMARK    6  A    between atoms: C_17  and  C_23 
REMARK    7  A    between atoms: C_18  and  C_19 
REMARK    8  A    between atoms: C_19  and  C_20 
REMARK    9  A    between atoms: C_23  and  C_25 
REMARK   10  A    between atoms: C_25  and  C_26 
REMARK   11  A    between atoms: C_26  and  C_27 
REMARK   12  A    between atoms: C_27  and  C_28 
ROOT
HETATM    1  O           1     -31.609  -3.483 -17.350  0.00  0.00    -0.271 OA
HETATM    2  N           1     -31.771  -5.654 -16.858  0.00  0.00    -0.345 N 
HETATM    3  H           1     -32.332  -6.409 -16.483  0.00  0.00     0.163 HD
HETATM    4  C           1     -32.277  -4.383 -16.903  0.00  0.00     0.249 C 
ENDROOT
BRANCH   4   5
HETATM    5  C           1     -33.671  -4.107 -16.393  0.00  0.00     0.274 C 
BRANCH   5   6
HETATM    6  N           1     -33.652  -4.049 -14.894  0.00  0.00    -0.067 N 
HETATM    7  H           1     -34.334  -4.740 -14.510  0.00  0.00     0.275 HD
HETATM    8  H           1     -32.692  -4.278 -14.550  0.00  0.00     0.275 HD
HETATM    9  H           1     -33.915  -3.088 -14.580  0.00  0.00     0.275 HD
ENDBRANCH   5   6
BRANCH   5  10
HETATM   10  C           1     -34.160  -2.775 -16.946  0.00  0.00     0.042 C 
BRANCH  10  11
HETATM   11  C           1     -35.280  -2.239 -16.065  0.00  0.00     0.004 C 
BRANCH  11  12
HETATM   12  C           1     -35.730  -0.880 -16.587  0.00  0.00     0.027 C 
BRANCH  12  13
HETATM   13  C           1     -36.191  -0.015 -15.422  0.00  0.00     0.229 C 
BRANCH  13  14
HETATM   14  N           1     -36.666   1.310 -15.939  0.00  0.00    -0.079 N 
HETATM   15  H           1     -37.705   1.369 -15.844  0.00  0.00     0.274 HD
HETATM   16  H           1     -36.222   2.079 -15.390  0.00  0.00     0.274 HD
HETATM   17  H           1     -36.402   1.406 -16.947  0.00  0.00     0.274 HD
ENDBRANCH  13  14
ENDBRANCH  12  13
ENDBRANCH  11  12
ENDBRANCH  10  11
ENDBRANCH   5  10
ENDBRANCH   4   5
BRANCH   2  18
HETATM   18  C           1     -30.433  -5.919 -17.347  0.00  0.00     0.186 C 
BRANCH  18  19
HETATM   19  C           1     -30.342  -7.352 -17.812  0.00  0.00     0.196 C 
HETATM   20  O           1     -29.590  -8.154 -17.219  0.00  0.00    -0.646 OA
HETATM   21  O           1     -31.021  -7.736 -18.790  0.00  0.00    -0.646 OA
ENDBRANCH  18  19
BRANCH  18  22
HETATM   22  C           1     -29.427  -5.683 -16.227  0.00  0.00     0.045 C 
BRANCH  22  23
HETATM   23  C           1     -28.300  -4.794 -16.735  0.00  0.00     0.105 C 
BRANCH  23  24
HETATM   24  C           1     -27.056  -5.623 -16.938  0.00  0.00     0.215 C 
HETATM   25  N           1     -26.956  -6.453 -18.022  0.00  0.00    -0.370 N 
HETATM   26  H           1     -27.716  -6.510 -18.687  0.00  0.00     0.159 HD
HETATM   27  H           1     -26.121  -7.009 -18.158  0.00  0.00     0.159 HD
HETATM   28  O           1     -26.149  -5.554 -16.144  0.00  0.00    -0.274 OA
ENDBRANCH  23  24
ENDBRANCH  22  23
ENDBRANCH  18  22
ENDBRANCH   2  18
TORSDOF 12
ENDMDL
MODEL 8
REMARK VINA RESULT:      -5.8     13.370     15.623
REMARK  12 active torsions:
REMARK  status: ('A' for Active; 'I' for Inactive)
REMARK       I    between atoms: N_1  and  C_2 
REMARK    1  A    between atoms: C_2  and  C_20 
REMARK    2  A    between atoms: C_5  and  C_18 
REMARK    3  A    between atoms: N_11  and  C_23 
REMARK    4  A    between atoms: N_13  and  C_18 
REMARK       I    between atoms: N_13  and  C_17 
REMARK    5  A    between atoms: N_15  and  C_28 
REMARK    6  A    between atoms: C_17  and  C_23 
REMARK    7  A    between atoms: C_18  and  C_19 
REMARK    8  A    between atoms: C_19  and  C_20 
REMARK    9  A    between atoms: C_23  and  C_25 
REMARK   10  A    between atoms: C_25  and  C_26 
REMARK   11  A    between atoms: C_26  and  C_27 
REMARK   12  A    between atoms: C_27  and  C_28 
ROOT
HETATM    1  O           1     -21.103  -7.596  -6.473  0.00  0.00    -0.271 OA
HETATM    2  N           1     -21.846  -5.515  -6.151  0.00  0.00    -0.345 N 
HETATM    3  H           1     -22.303  -4.854  -5.536  0.00  0.00     0.163 HD
HETATM    4  C           1     -21.648  -6.806  -5.741  0.00  0.00     0.249 C 
ENDROOT
BRANCH   4   5
HETATM    5  C           1     -22.113  -7.242  -4.372  0.00  0.00     0.274 C 
BRANCH   5   6
HETATM    6  N           1     -21.642  -8.642  -4.108  0.00  0.00    -0.067 N 
HETATM    7  H           1     -22.054  -8.984  -3.211  0.00  0.00     0.275 HD
HETATM    8  H           1     -21.946  -9.264  -4.891  0.00  0.00     0.275 HD
HETATM    9  H           1     -20.600  -8.652  -4.039  0.00  0.00     0.275 HD
ENDBRANCH   5   6
BRANCH   5  10
HETATM   10  C           1     -21.535  -6.306  -3.318  0.00  0.00     0.042 C 
BRANCH  10  11
HETATM   11  C           1     -21.207  -7.098  -2.059  0.00  0.00     0.004 C 
BRANCH  11  12
HETATM   12  C           1     -22.270  -6.835  -1.001  0.00  0.00     0.027 C 
BRANCH  12  13
HETATM   13  C           1     -22.328  -8.010  -0.035  0.00  0.00     0.229 C 
BRANCH  13  14
HETATM   14  N           1     -23.657  -8.022   0.659  0.00  0.00    -0.079 N 
HETATM   15  H           1     -23.513  -8.143   1.687  0.00  0.00     0.274 HD
HETATM   16  H           1     -24.153  -7.120   0.480  0.00  0.00     0.274 HD
HETATM   17  H           1     -24.234  -8.814   0.294  0.00  0.00     0.274 HD
ENDBRANCH  13  14
ENDBRANCH  12  13
ENDBRANCH  11  12
ENDBRANCH  10  11
ENDBRANCH   5  10
ENDBRANCH   4   5
BRANCH   2  18
HETATM   18  C           1     -21.400  -5.097  -7.465  0.00  0.00     0.186 C 
BRANCH  18  19
HETATM   19  C           1     -20.033  -4.466  -7.355  0.00  0.00     0.196 C 
HETATM   20  O           1     -19.500  -3.953  -8.361  0.00  0.00    -0.646 OA
HETATM   21  O           1     -19.436  -4.457  -6.256  0.00  0.00    -0.646 OA
ENDBRANCH  18  19
BRANCH  18  22
HETATM   22  C           1     -22.384  -4.082  -8.034  0.00  0.00     0.045 C 
BRANCH  22  23
HETATM   23  C           1     -22.582  -4.346  -9.522  0.00  0.00     0.105 C 
BRANCH  23  24
HETATM   24  C           1     -23.915  -3.791  -9.959  0.00  0.00     0.215 C 
HETATM   25  N           1     -24.725  -3.161  -9.053  0.00  0.00    -0.370 N 
HETATM   26  H           1     -24.429  -3.068  -8.089  0.00  0.00     0.159 HD
HETATM   27  H           1     -25.618  -2.788  -9.346  0.00  0.00     0.159 HD
HETATM   28  O           1     -24.267  -3.902 -11.109  0.00  0.00    -0.274 OA
ENDBRANCH  23  24
ENDBRANCH  22  23
ENDBRANCH  18  22
ENDBRANCH   2  18
TORSDOF 12
ENDMDL
MODEL 9
REMARK VINA RESULT:      -5.7     14.572     17.456
REMARK  12 active torsions:
REMARK  status: ('A' for Active; 'I' for Inactive)
REMARK       I    between atoms: N_1  and  C_2 
REMARK    1  A    between atoms: C_2  and  C_20 
REMARK    2  A    between atoms: C_5  and  C_18 
REMARK    3  A    between atoms: N_11  and  C_23 
REMARK    4  A    between atoms: N_13  and  C_18 
REMARK       I    between atoms: N_13  and  C_17 
REMARK    5  A    between atoms: N_15  and  C_28 
REMARK    6  A    between atoms: C_17  and  C_23 
REMARK    7  A    between atoms: C_18  and  C_19 
REMARK    8  A    between atoms: C_19  and  C_20 
REMARK    9  A    between atoms: C_23  and  C_25 
REMARK   10  A    between atoms: C_25  and  C_26 
REMARK   11  A    between atoms: C_26  and  C_27 
REMARK   12  A    between atoms: C_27  and  C_28 
ROOT
HETATM    1  O           1     -20.399  -4.495  -5.646  0.00  0.00    -0.271 OA
HETATM    2  N           1     -21.215  -6.561  -5.873  0.00  0.00    -0.345 N 
HETATM    3  H           1     -21.690  -7.235  -6.460  0.00  0.00     0.163 HD
HETATM    4  C           1     -20.966  -5.300  -6.345  0.00  0.00     0.249 C 
ENDROOT
BRANCH   4   5
HETATM    5  C           1     -21.398  -4.917  -7.739  0.00  0.00     0.274 C 
BRANCH   5   6
HETATM    6  N           1     -22.176  -3.635  -7.686  0.00  0.00    -0.067 N 
HETATM    7  H           1     -22.908  -3.641  -8.432  0.00  0.00     0.275 HD
HETATM    8  H           1     -22.632  -3.545  -6.751  0.00  0.00     0.275 HD
HETATM    9  H           1     -21.529  -2.829  -7.838  0.00  0.00     0.275 HD
ENDBRANCH   5   6
BRANCH   5  10
HETATM   10  C           1     -20.168  -4.727  -8.618  0.00  0.00     0.042 C 
BRANCH  10  11
HETATM   11  C           1     -20.486  -3.738  -9.731  0.00  0.00     0.004 C 
BRANCH  11  12
HETATM   12  C           1     -20.450  -4.455 -11.074  0.00  0.00     0.027 C 
BRANCH  12  13
HETATM   13  C           1     -21.720  -4.141 -11.853  0.00  0.00     0.229 C 
BRANCH  13  14
HETATM   14  N           1     -22.913  -4.614 -11.077  0.00  0.00    -0.079 N 
HETATM   15  H           1     -22.760  -5.601 -10.769  0.00  0.00     0.274 HD
HETATM   16  H           1     -23.048  -4.005 -10.239  0.00  0.00     0.274 HD
HETATM   17  H           1     -23.764  -4.566 -11.683  0.00  0.00     0.274 HD
ENDBRANCH  13  14
ENDBRANCH  12  13
ENDBRANCH  11  12
ENDBRANCH  10  11
ENDBRANCH   5  10
ENDBRANCH   4   5
BRANCH   2  18
HETATM   18  C           1     -20.800  -6.929  -4.534  0.00  0.00     0.186 C 
BRANCH  18  19
HETATM   19  C           1     -20.030  -8.226  -4.586  0.00  0.00     0.196 C 
HETATM   20  O           1     -19.629  -8.757  -3.528  0.00  0.00    -0.646 OA
HETATM   21  O           1     -19.794  -8.769  -5.687  0.00  0.00    -0.646 OA
ENDBRANCH  18  19
BRANCH  18  22
HETATM   22  C           1     -22.030  -7.103  -3.652  0.00  0.00     0.045 C 
BRANCH  22  23
HETATM   23  C           1     -21.874  -6.261  -2.392  0.00  0.00     0.105 C 
BRANCH  23  24
HETATM   24  C           1     -21.968  -7.149  -1.177  0.00  0.00     0.215 C 
HETATM   25  N           1     -20.959  -8.030  -0.892  0.00  0.00    -0.370 N 
HETATM   26  H           1     -20.150  -8.084  -1.497  0.00  0.00     0.159 HD
HETATM   27  H           1     -21.023  -8.625  -0.077  0.00  0.00     0.159 HD
HETATM   28  O           1     -22.935  -7.084  -0.455  0.00  0.00    -0.274 OA
ENDBRANCH  23  24
ENDBRANCH  22  23
ENDBRANCH  18  22
ENDBRANCH   2  18
TORSDOF 12
ENDMDL
