MODEL 1
REMARK VINA RESULT:      -8.1      0.000      0.000
REMARK  12 active torsions:
REMARK  status: ('A' for Active; 'I' for Inactive)
REMARK    1  A    between atoms: C_1  and  C_5 
REMARK    2  A    between atoms: C_4  and  O_21 
REMARK    3  A    between atoms: C_5  and  C_15 
REMARK    4  A    between atoms: C_6  and  C_12 
REMARK    5  A    between atoms: C_6  and  C_7 
REMARK    6  A    between atoms: N_10  and  C_13 
REMARK    7  A    between atoms: C_12  and  C_13 
REMARK    8  A    between atoms: C_13  and  C_14 
REMARK       I    between atoms: C_14  and  N_16 
REMARK    9  A    between atoms: C_15  and  C_18 
REMARK   10  A    between atoms: C_15  and  N_16 
REMARK   11  A    between atoms: P_20  and  O_21 
REMARK   12  A    between atoms: P_20  and  O_30 
ROOT
HETATM    1  C           1     -32.504  -4.321 -16.207  0.00  0.00     0.189 C 
ENDROOT
BRANCH   1   2
HETATM    2  C           1     -31.988  -5.627 -16.796  0.00  0.00     0.074 C 
BRANCH   2   3
HETATM    3  C           1     -30.491  -5.615 -16.802  0.00  0.00    -0.056 A 
HETATM    4  C           1     -29.792  -5.187 -15.674  0.00  0.00     0.010 A 
HETATM    5  C           1     -28.398  -5.177 -15.679  0.00  0.00     0.038 A 
HETATM    6  C           1     -27.701  -5.593 -16.813  0.00  0.00     0.081 A 
HETATM    7  C           1     -28.400  -6.022 -17.942  0.00  0.00     0.038 A 
HETATM    8  C           1     -29.795  -6.033 -17.936  0.00  0.00     0.010 A 
BRANCH   6   9
HETATM    9  O           1     -26.346  -5.583 -16.818  0.00  0.00    -0.247 OA
BRANCH   9  10
HETATM   10  P           1     -25.577  -6.685 -15.923  0.00  0.00     0.411 P 
HETATM   11  O           1     -24.596  -7.408 -16.764  0.00  0.00    -0.624 OA
HETATM   12  O           1     -26.558  -7.648 -15.375  0.00  0.00    -0.624 OA
BRANCH  10  13
HETATM   13  O           1     -24.805  -5.950 -14.710  0.00  0.00    -0.300 OA
HETATM   14  H           1     -24.752  -6.597 -14.027  0.00  0.00     0.223 HD
ENDBRANCH  10  13
ENDBRANCH   9  10
ENDBRANCH   6   9
ENDBRANCH   2   3
ENDBRANCH   1   2
BRANCH   1  15
HETATM   15  C           1     -32.617  -3.285 -17.299  0.00  0.00     0.197 C 
HETATM   16  O           1     -33.709  -2.717 -17.511  0.00  0.00    -0.646 OA
HETATM   17  O           1     -31.617  -2.996 -17.991  0.00  0.00    -0.646 OA
ENDBRANCH   1  15
BRANCH   1  18
HETATM   18  N           1     -33.809  -4.542 -15.615  0.00  0.00    -0.344 N 
HETATM   19  H           1     -34.496  -5.105 -16.100  0.00  0.00     0.163 HD
HETATM   20  C           1     -34.112  -3.989 -14.400  0.00  0.00     0.249 C 
HETATM   21  O           1     -34.608  -2.889 -14.343  0.00  0.00    -0.271 OA
BRANCH  20  22
HETATM   22  C           1     -33.826  -4.754 -13.131  0.00  0.00     0.275 C 
BRANCH  22  23
HETATM   23  N           1     -32.458  -4.396 -12.629  0.00  0.00    -0.066 N 
HETATM   24  H           1     -32.506  -3.501 -12.093  0.00  0.00     0.275 HD
HETATM   25  H           1     -32.106  -5.158 -12.006  0.00  0.00     0.275 HD
HETATM   26  H           1     -31.809  -4.281 -13.441  0.00  0.00     0.275 HD
ENDBRANCH  22  23
BRANCH  22  27
HETATM   27  C           1     -34.863  -4.394 -12.075  0.00  0.00     0.053 C 
BRANCH  27  28
HETATM   28  C           1     -34.159  -3.967 -10.795  0.00  0.00     0.115 C 
BRANCH  28  29
HETATM   29  C           1     -34.235  -2.467 -10.655  0.00  0.00     0.172 C 
HETATM   30  O           1     -35.344  -1.907 -10.519  0.00  0.00    -0.648 OA
HETATM   31  O           1     -33.188  -1.784 -10.674  0.00  0.00    -0.648 OA
ENDBRANCH  28  29
ENDBRANCH  27  28
ENDBRANCH  22  27
ENDBRANCH  20  22
ENDBRANCH   1  18
TORSDOF 12
ENDMDL
MODEL 2
REMARK VINA RESULT:      -7.3     12.373     14.711
REMARK  12 active torsions:
REMARK  status: ('A' for Active; 'I' for Inactive)
REMARK    1  A    between atoms: C_1  and  C_5 
REMARK    2  A    between atoms: C_4  and  O_21 
REMARK    3  A    between atoms: C_5  and  C_15 
REMARK    4  A    between atoms: C_6  and  C_12 
REMARK    5  A    between atoms: C_6  and  C_7 
REMARK    6  A    between atoms: N_10  and  C_13 
REMARK    7  A    between atoms: C_12  and  C_13 
REMARK    8  A    between atoms: C_13  and  C_14 
REMARK       I    between atoms: C_14  and  N_16 
REMARK    9  A    between atoms: C_15  and  C_18 
REMARK   10  A    between atoms: C_15  and  N_16 
REMARK   11  A    between atoms: P_20  and  O_21 
REMARK   12  A    between atoms: P_20  and  O_30 
ROOT
HETATM    1  C           1     -21.382  -7.412  -5.226  0.00  0.00     0.189 C 
ENDROOT
BRANCH   1   2
HETATM    2  C           1     -20.479  -6.222  -5.525  0.00  0.00     0.074 C 
BRANCH   2   3
HETATM    3  C           1     -20.983  -5.503  -6.737  0.00  0.00    -0.056 A 
HETATM    4  C           1     -22.209  -4.841  -6.695  0.00  0.00     0.010 A 
HETATM    5  C           1     -22.679  -4.170  -7.824  0.00  0.00     0.038 A 
HETATM    6  C           1     -21.922  -4.162  -8.995  0.00  0.00     0.081 A 
HETATM    7  C           1     -20.695  -4.824  -9.038  0.00  0.00     0.038 A 
HETATM    8  C           1     -20.226  -5.494  -7.908  0.00  0.00     0.010 A 
BRANCH   6   9
HETATM    9  O           1     -22.379  -3.510 -10.093  0.00  0.00    -0.247 OA
BRANCH   9  10
HETATM   10  P           1     -23.565  -4.200 -10.945  0.00  0.00     0.411 P 
HETATM   11  O           1     -24.739  -3.301 -10.976  0.00  0.00    -0.624 OA
HETATM   12  O           1     -23.944  -5.484 -10.313  0.00  0.00    -0.624 OA
BRANCH  10  13
HETATM   13  O           1     -23.055  -4.471 -12.454  0.00  0.00    -0.300 OA
HETATM   14  H           1     -22.230  -4.020 -12.516  0.00  0.00     0.223 HD
ENDBRANCH  10  13
ENDBRANCH   9  10
ENDBRANCH   6   9
ENDBRANCH   2   3
ENDBRANCH   1   2
BRANCH   1  15
HETATM   15  C           1     -20.540  -8.596  -4.821  0.00  0.00     0.197 C 
HETATM   16  O           1     -21.057  -9.730  -4.735  0.00  0.00    -0.646 OA
HETATM   17  O           1     -19.324  -8.442  -4.571  0.00  0.00    -0.646 OA
ENDBRANCH   1  15
BRANCH   1  18
HETATM   18  N           1     -22.288  -7.070  -4.147  0.00  0.00    -0.344 N 
HETATM   19  H           1     -23.287  -7.077  -4.304  0.00  0.00     0.163 HD
HETATM   20  C           1     -21.791  -6.738  -2.915  0.00  0.00     0.249 C 
HETATM   21  O           1     -21.532  -5.587  -2.658  0.00  0.00    -0.271 OA
BRANCH  20  22
HETATM   22  C           1     -21.564  -7.812  -1.879  0.00  0.00     0.275 C 
BRANCH  22  23
HETATM   23  N           1     -20.103  -7.891  -1.551  0.00  0.00    -0.066 N 
HETATM   24  H           1     -19.676  -6.940  -1.627  0.00  0.00     0.275 HD
HETATM   25  H           1     -19.984  -8.250  -0.577  0.00  0.00     0.275 HD
HETATM   26  H           1     -19.630  -8.538  -2.222  0.00  0.00     0.275 HD
ENDBRANCH  22  23
BRANCH  22  27
HETATM   27  C           1     -22.349  -7.475  -0.618  0.00  0.00     0.053 C 
BRANCH  27  28
HETATM   28  C           1     -21.978  -8.452   0.489  0.00  0.00     0.115 C 
BRANCH  28  29
HETATM   29  C           1     -22.526  -9.819   0.159  0.00  0.00     0.172 C 
HETATM   30  O           1     -21.760 -10.806   0.115  0.00  0.00    -0.648 OA
HETATM   31  O           1     -23.746  -9.964  -0.072  0.00  0.00    -0.648 OA
ENDBRANCH  28  29
ENDBRANCH  27  28
ENDBRANCH  22  27
ENDBRANCH  20  22
ENDBRANCH   1  18
TORSDOF 12
ENDMDL
MODEL 3
REMARK VINA RESULT:      -7.3     12.193     15.020
REMARK  12 active torsions:
REMARK  status: ('A' for Active; 'I' for Inactive)
REMARK    1  A    between atoms: C_1  and  C_5 
REMARK    2  A    between atoms: C_4  and  O_21 
REMARK    3  A    between atoms: C_5  and  C_15 
REMARK    4  A    between atoms: C_6  and  C_12 
REMARK    5  A    between atoms: C_6  and  C_7 
REMARK    6  A    between atoms: N_10  and  C_13 
REMARK    7  A    between atoms: C_12  and  C_13 
REMARK    8  A    between atoms: C_13  and  C_14 
REMARK       I    between atoms: C_14  and  N_16 
REMARK    9  A    between atoms: C_15  and  C_18 
REMARK   10  A    between atoms: C_15  and  N_16 
REMARK   11  A    between atoms: P_20  and  O_21 
REMARK   12  A    between atoms: P_20  and  O_30 
ROOT
HETATM    1  C           1     -20.614  -5.130  -6.179  0.00  0.00     0.189 C 
ENDROOT
BRANCH   1   2
HETATM    2  C           1     -21.351  -6.450  -5.989  0.00  0.00     0.074 C 
BRANCH   2   3
HETATM    3  C           1     -21.196  -6.909  -4.573  0.00  0.00    -0.056 A 
HETATM    4  C           1     -20.382  -8.002  -4.279  0.00  0.00     0.010 A 
HETATM    5  C           1     -20.236  -8.429  -2.959  0.00  0.00     0.038 A 
HETATM    6  C           1     -20.906  -7.763  -1.933  0.00  0.00     0.081 A 
HETATM    7  C           1     -21.720  -6.668  -2.226  0.00  0.00     0.038 A 
HETATM    8  C           1     -21.864  -6.242  -3.546  0.00  0.00     0.010 A 
BRANCH   6   9
HETATM    9  O           1     -20.764  -8.178  -0.650  0.00  0.00    -0.247 OA
BRANCH   9  10
HETATM   10  P           1     -21.922  -9.115  -0.025  0.00  0.00     0.411 P 
HETATM   11  O           1     -22.655  -9.791  -1.119  0.00  0.00    -0.624 OA
HETATM   12  O           1     -22.863  -8.281   0.756  0.00  0.00    -0.624 OA
BRANCH  10  13
HETATM   13  O           1     -21.254 -10.224   0.940  0.00  0.00    -0.300 OA
HETATM   14  H           1     -20.596  -9.758   1.427  0.00  0.00     0.223 HD
ENDBRANCH  10  13
ENDBRANCH   9  10
ENDBRANCH   6   9
ENDBRANCH   2   3
ENDBRANCH   1   2
BRANCH   1  15
HETATM   15  C           1     -19.555  -5.293  -7.241  0.00  0.00     0.197 C 
HETATM   16  O           1     -19.486  -6.355  -7.897  0.00  0.00    -0.646 OA
HETATM   17  O           1     -18.747  -4.366  -7.465  0.00  0.00    -0.646 OA
ENDBRANCH   1  15
BRANCH   1  18
HETATM   18  N           1     -21.556  -4.107  -6.588  0.00  0.00    -0.344 N 
HETATM   19  H           1     -21.325  -3.129  -6.466  0.00  0.00     0.163 HD
HETATM   20  C           1     -22.758  -4.462  -7.139  0.00  0.00     0.249 C 
HETATM   21  O           1     -23.720  -4.636  -6.430  0.00  0.00    -0.271 OA
BRANCH  20  22
HETATM   22  C           1     -22.879  -4.637  -8.633  0.00  0.00     0.275 C 
BRANCH  22  23
HETATM   23  N           1     -24.268  -4.271  -9.068  0.00  0.00    -0.066 N 
HETATM   24  H           1     -24.895  -4.227  -8.233  0.00  0.00     0.275 HD
HETATM   25  H           1     -24.250  -3.339  -9.540  0.00  0.00     0.275 HD
HETATM   26  H           1     -24.625  -4.994  -9.734  0.00  0.00     0.275 HD
ENDBRANCH  22  23
BRANCH  22  27
HETATM   27  C           1     -21.874  -3.732  -9.334  0.00  0.00     0.053 C 
BRANCH  27  28
HETATM   28  C           1     -21.269  -4.467 -10.521  0.00  0.00     0.115 C 
BRANCH  28  29
HETATM   29  C           1     -22.075  -4.171 -11.762  0.00  0.00     0.172 C 
HETATM   30  O           1     -21.674  -3.313 -12.578  0.00  0.00    -0.648 OA
HETATM   31  O           1     -23.145  -4.783 -11.973  0.00  0.00    -0.648 OA
ENDBRANCH  28  29
ENDBRANCH  27  28
ENDBRANCH  22  27
ENDBRANCH  20  22
ENDBRANCH   1  18
TORSDOF 12
ENDMDL
MODEL 4
REMARK VINA RESULT:      -6.9     12.667     15.026
REMARK  12 active torsions:
REMARK  status: ('A' for Active; 'I' for Inactive)
REMARK    1  A    between atoms: C_1  and  C_5 
REMARK    2  A    between atoms: C_4  and  O_21 
REMARK    3  A    between atoms: C_5  and  C_15 
REMARK    4  A    between atoms: C_6  and  C_12 
REMARK    5  A    between atoms: C_6  and  C_7 
REMARK    6  A    between atoms: N_10  and  C_13 
REMARK    7  A    between atoms: C_12  and  C_13 
REMARK    8  A    between atoms: C_13  and  C_14 
REMARK       I    between atoms: C_14  and  N_16 
REMARK    9  A    between atoms: C_15  and  C_18 
REMARK   10  A    between atoms: C_15  and  N_16 
REMARK   11  A    between atoms: P_20  and  O_21 
REMARK   12  A    between atoms: P_20  and  O_30 
ROOT
HETATM    1  C           1     -21.142  -7.788  -5.327  0.00  0.00     0.189 C 
ENDROOT
BRANCH   1   2
HETATM    2  C           1     -20.329  -6.515  -5.520  0.00  0.00     0.074 C 
BRANCH   2   3
HETATM    3  C           1     -20.923  -5.705  -6.629  0.00  0.00    -0.056 A 
HETATM    4  C           1     -20.249  -5.583  -7.843  0.00  0.00     0.010 A 
HETATM    5  C           1     -20.803  -4.829  -8.877  0.00  0.00     0.038 A 
HETATM    6  C           1     -22.033  -4.197  -8.697  0.00  0.00     0.081 A 
HETATM    7  C           1     -22.710  -4.320  -7.483  0.00  0.00     0.038 A 
HETATM    8  C           1     -22.154  -5.074  -6.449  0.00  0.00     0.010 A 
BRANCH   6   9
HETATM    9  O           1     -22.572  -3.464  -9.702  0.00  0.00    -0.247 OA
BRANCH   9  10
HETATM   10  P           1     -23.588  -4.203 -10.717  0.00  0.00     0.411 P 
HETATM   11  O           1     -24.784  -3.356 -10.924  0.00  0.00    -0.624 OA
HETATM   12  O           1     -23.999  -5.504 -10.144  0.00  0.00    -0.624 OA
BRANCH  10  13
HETATM   13  O           1     -22.850  -4.445 -12.134  0.00  0.00    -0.300 OA
HETATM   14  H           1     -23.452  -4.970 -12.635  0.00  0.00     0.223 HD
ENDBRANCH  10  13
ENDBRANCH   9  10
ENDBRANCH   6   9
ENDBRANCH   2   3
ENDBRANCH   1   2
BRANCH   1  15
HETATM   15  C           1     -20.217  -8.980  -5.309  0.00  0.00     0.197 C 
HETATM   16  O           1     -20.628 -10.097  -5.688  0.00  0.00    -0.646 OA
HETATM   17  O           1     -19.038  -8.849  -4.913  0.00  0.00    -0.646 OA
ENDBRANCH   1  15
BRANCH   1  18
HETATM   18  N           1     -21.862  -7.716  -4.071  0.00  0.00    -0.344 N 
HETATM   19  H           1     -22.820  -7.390  -4.055  0.00  0.00     0.163 HD
HETATM   20  C           1     -21.246  -8.087  -2.906  0.00  0.00     0.249 C 
HETATM   21  O           1     -20.638  -7.269  -2.257  0.00  0.00    -0.271 OA
BRANCH  20  22
HETATM   22  C           1     -21.326  -9.518  -2.434  0.00  0.00     0.275 C 
BRANCH  22  23
HETATM   23  N           1     -19.965  -9.980  -2.006  0.00  0.00    -0.066 N 
HETATM   24  H           1     -19.926 -10.033  -0.963  0.00  0.00     0.275 HD
HETATM   25  H           1     -19.775 -10.925  -2.410  0.00  0.00     0.275 HD
HETATM   26  H           1     -19.244  -9.304  -2.348  0.00  0.00     0.275 HD
ENDBRANCH  22  23
BRANCH  22  27
HETATM   27  C           1     -22.287  -9.611  -1.255  0.00  0.00     0.053 C 
BRANCH  27  28
HETATM   28  C           1     -21.504  -9.908   0.016  0.00  0.00     0.115 C 
BRANCH  28  29
HETATM   29  C           1     -21.518  -8.693   0.911  0.00  0.00     0.172 C 
HETATM   30  O           1     -22.376  -7.799   0.739  0.00  0.00    -0.648 OA
HETATM   31  O           1     -20.672  -8.580   1.824  0.00  0.00    -0.648 OA
ENDBRANCH  28  29
ENDBRANCH  27  28
ENDBRANCH  22  27
ENDBRANCH  20  22
ENDBRANCH   1  18
TORSDOF 12
ENDMDL
MODEL 5
REMARK VINA RESULT:      -6.9     12.809     15.227
REMARK  12 active torsions:
REMARK  status: ('A' for Active; 'I' for Inactive)
REMARK    1  A    between atoms: C_1  and  C_5 
REMARK    2  A    between atoms: C_4  and  O_21 
REMARK    3  A    between atoms: C_5  and  C_15 
REMARK    4  A    between atoms: C_6  and  C_12 
REMARK    5  A    between atoms: C_6  and  C_7 
REMARK    6  A    between atoms: N_10  and  C_13 
REMARK    7  A    between atoms: C_12  and  C_13 
REMARK    8  A    between atoms: C_13  and  C_14 
REMARK       I    between atoms: C_14  and  N_16 
REMARK    9  A    between atoms: C_15  and  C_18 
REMARK   10  A    between atoms: C_15  and  N_16 
REMARK   11  A    between atoms: P_20  and  O_21 
REMARK   12  A    between atoms: P_20  and  O_30 
ROOT
HETATM    1  C           1     -21.147  -7.130  -5.844  0.00  0.00     0.189 C 
ENDROOT
BRANCH   1   2
HETATM    2  C           1     -19.905  -7.841  -5.322  0.00  0.00     0.074 C 
BRANCH   2   3
HETATM    3  C           1     -20.302  -8.846  -4.287  0.00  0.00    -0.056 A 
HETATM    4  C           1     -19.563  -8.967  -3.112  0.00  0.00     0.010 A 
HETATM    5  C           1     -19.934  -9.903  -2.147  0.00  0.00     0.038 A 
HETATM    6  C           1     -21.046 -10.719  -2.358  0.00  0.00     0.081 A 
HETATM    7  C           1     -21.787 -10.597  -3.534  0.00  0.00     0.038 A 
HETATM    8  C           1     -21.415  -9.661  -4.498  0.00  0.00     0.010 A 
BRANCH   6   9
HETATM    9  O           1     -21.406 -11.629  -1.420  0.00  0.00    -0.247 OA
BRANCH   9  10
HETATM   10  P           1     -22.107 -11.088  -0.069  0.00  0.00     0.411 P 
HETATM   11  O           1     -22.954 -12.154   0.510  0.00  0.00    -0.624 OA
HETATM   12  O           1     -22.946  -9.910  -0.387  0.00  0.00    -0.624 OA
BRANCH  10  13
HETATM   13  O           1     -20.968 -10.668   0.996  0.00  0.00    -0.300 OA
HETATM   14  H           1     -20.422 -10.050   0.539  0.00  0.00     0.223 HD
ENDBRANCH  10  13
ENDBRANCH   9  10
ENDBRANCH   6   9
ENDBRANCH   2   3
ENDBRANCH   1   2
BRANCH   1  15
HETATM   15  C           1     -21.717  -6.250  -4.760  0.00  0.00     0.197 C 
HETATM   16  O           1     -22.956  -6.150  -4.623  0.00  0.00    -0.646 OA
HETATM   17  O           1     -20.951  -5.622  -3.998  0.00  0.00    -0.646 OA
ENDBRANCH   1  15
BRANCH   1  18
HETATM   18  N           1     -20.791  -6.316  -6.990  0.00  0.00    -0.344 N 
HETATM   19  H           1     -20.147  -6.673  -7.684  0.00  0.00     0.163 HD
HETATM   20  C           1     -21.327  -5.065  -7.134  0.00  0.00     0.249 C 
HETATM   21  O           1     -20.762  -4.108  -6.660  0.00  0.00    -0.271 OA
BRANCH  20  22
HETATM   22  C           1     -22.624  -4.881  -7.883  0.00  0.00     0.275 C 
BRANCH  22  23
HETATM   23  N           1     -23.688  -4.415  -6.934  0.00  0.00    -0.066 N 
HETATM   24  H           1     -23.306  -3.658  -6.325  0.00  0.00     0.275 HD
HETATM   25  H           1     -24.502  -4.048  -7.477  0.00  0.00     0.275 HD
HETATM   26  H           1     -23.999  -5.217  -6.339  0.00  0.00     0.275 HD
ENDBRANCH  22  23
BRANCH  22  27
HETATM   27  C           1     -22.434  -3.841  -8.981  0.00  0.00     0.053 C 
BRANCH  27  28
HETATM   28  C           1     -23.258  -4.232 -10.199  0.00  0.00     0.115 C 
BRANCH  28  29
HETATM   29  C           1     -24.526  -3.415 -10.232  0.00  0.00     0.172 C 
HETATM   30  O           1     -25.206  -3.357 -11.279  0.00  0.00    -0.648 OA
HETATM   31  O           1     -24.897  -2.796  -9.211  0.00  0.00    -0.648 OA
ENDBRANCH  28  29
ENDBRANCH  27  28
ENDBRANCH  22  27
ENDBRANCH  20  22
ENDBRANCH   1  18
TORSDOF 12
ENDMDL
MODEL 6
REMARK VINA RESULT:      -6.8      1.800      2.350
REMARK  12 active torsions:
REMARK  status: ('A' for Active; 'I' for Inactive)
REMARK    1  A    between atoms: C_1  and  C_5 
REMARK    2  A    between atoms: C_4  and  O_21 
REMARK    3  A    between atoms: C_5  and  C_15 
REMARK    4  A    between atoms: C_6  and  C_12 
REMARK    5  A    between atoms: C_6  and  C_7 
REMARK    6  A    between atoms: N_10  and  C_13 
REMARK    7  A    between atoms: C_12  and  C_13 
REMARK    8  A    between atoms: C_13  and  C_14 
REMARK       I    between atoms: C_14  and  N_16 
REMARK    9  A    between atoms: C_15  and  C_18 
REMARK   10  A    between atoms: C_15  and  N_16 
REMARK   11  A    between atoms: P_20  and  O_21 
REMARK   12  A    between atoms: P_20  and  O_30 
ROOT
HETATM    1  C           1     -32.838  -4.375 -16.089  0.00  0.00     0.189 C 
ENDROOT
BRANCH   1   2
HETATM    2  C           1     -32.586  -5.690 -16.815  0.00  0.00     0.074 C 
BRANCH   2   3
HETATM    3  C           1     -31.120  -5.842 -17.078  0.00  0.00    -0.056 A 
HETATM    4  C           1     -30.651  -6.939 -17.800  0.00  0.00     0.010 A 
HETATM    5  C           1     -29.285  -7.080 -18.046  0.00  0.00     0.038 A 
HETATM    6  C           1     -28.389  -6.123 -17.570  0.00  0.00     0.081 A 
HETATM    7  C           1     -28.858  -5.025 -16.849  0.00  0.00     0.038 A 
HETATM    8  C           1     -30.224  -4.885 -16.603  0.00  0.00     0.010 A 
BRANCH   6   9
HETATM    9  O           1     -27.062  -6.261 -17.809  0.00  0.00    -0.247 OA
BRANCH   9  10
HETATM   10  P           1     -26.083  -6.486 -16.544  0.00  0.00     0.411 P 
HETATM   11  O           1     -25.951  -5.220 -15.789  0.00  0.00    -0.624 OA
HETATM   12  O           1     -24.750  -6.915 -17.022  0.00  0.00    -0.624 OA
BRANCH  10  13
HETATM   13  O           1     -26.704  -7.624 -15.580  0.00  0.00    -0.300 OA
HETATM   14  H           1     -27.584  -7.339 -15.402  0.00  0.00     0.223 HD
ENDBRANCH  10  13
ENDBRANCH   9  10
ENDBRANCH   6   9
ENDBRANCH   2   3
ENDBRANCH   1   2
BRANCH   1  15
HETATM   15  C           1     -33.013  -3.267 -17.098  0.00  0.00     0.197 C 
HETATM   16  O           1     -34.101  -2.656 -17.172  0.00  0.00    -0.646 OA
HETATM   17  O           1     -32.071  -2.961 -17.860  0.00  0.00    -0.646 OA
ENDBRANCH   1  15
BRANCH   1  18
HETATM   18  N           1     -34.039  -4.491 -15.284  0.00  0.00    -0.344 N 
HETATM   19  H           1     -34.834  -5.010 -15.634  0.00  0.00     0.163 HD
HETATM   20  C           1     -34.097  -3.898 -14.052  0.00  0.00     0.249 C 
HETATM   21  O           1     -34.499  -2.764 -13.946  0.00  0.00    -0.271 OA
BRANCH  20  22
HETATM   22  C           1     -33.658  -4.661 -12.827  0.00  0.00     0.275 C 
BRANCH  22  23
HETATM   23  N           1     -32.644  -3.855 -12.072  0.00  0.00    -0.066 N 
HETATM   24  H           1     -33.132  -3.186 -11.435  0.00  0.00     0.275 HD
HETATM   25  H           1     -32.040  -4.495 -11.508  0.00  0.00     0.275 HD
HETATM   26  H           1     -32.051  -3.321 -12.748  0.00  0.00     0.275 HD
ENDBRANCH  22  23
BRANCH  22  27
HETATM   27  C           1     -34.864  -4.923 -11.932  0.00  0.00     0.053 C 
BRANCH  27  28
HETATM   28  C           1     -34.390  -5.269 -10.528  0.00  0.00     0.115 C 
BRANCH  28  29
HETATM   29  C           1     -34.199  -6.762 -10.415  0.00  0.00     0.172 C 
HETATM   30  O           1     -33.063  -7.261 -10.568  0.00  0.00    -0.648 OA
HETATM   31  O           1     -35.178  -7.500 -10.168  0.00  0.00    -0.648 OA
ENDBRANCH  28  29
ENDBRANCH  27  28
ENDBRANCH  22  27
ENDBRANCH  20  22
ENDBRANCH   1  18
TORSDOF 12
ENDMDL
MODEL 7
REMARK VINA RESULT:      -6.6     12.423     14.879
REMARK  12 active torsions:
REMARK  status: ('A' for Active; 'I' for Inactive)
REMARK    1  A    between atoms: C_1  and  C_5 
REMARK    2  A    between atoms: C_4  and  O_21 
REMARK    3  A    between atoms: C_5  and  C_15 
REMARK    4  A    between atoms: C_6  and  C_12 
REMARK    5  A    between atoms: C_6  and  C_7 
REMARK    6  A    between atoms: N_10  and  C_13 
REMARK    7  A    between atoms: C_12  and  C_13 
REMARK    8  A    between atoms: C_13  and  C_14 
REMARK       I    between atoms: C_14  and  N_16 
REMARK    9  A    between atoms: C_15  and  C_18 
REMARK   10  A    between atoms: C_15  and  N_16 
REMARK   11  A    between atoms: P_20  and  O_21 
REMARK   12  A    between atoms: P_20  and  O_30 
ROOT
HETATM    1  C           1     -21.114  -7.780  -5.104  0.00  0.00     0.189 C 
ENDROOT
BRANCH   1   2
HETATM    2  C           1     -20.397  -6.444  -4.954  0.00  0.00     0.074 C 
BRANCH   2   3
HETATM    3  C           1     -20.686  -5.585  -6.145  0.00  0.00    -0.056 A 
HETATM    4  C           1     -19.637  -5.039  -6.883  0.00  0.00     0.010 A 
HETATM    5  C           1     -19.907  -4.240  -7.993  0.00  0.00     0.038 A 
HETATM    6  C           1     -21.227  -3.986  -8.365  0.00  0.00     0.081 A 
HETATM    7  C           1     -22.278  -4.533  -7.628  0.00  0.00     0.038 A 
HETATM    8  C           1     -22.007  -5.333  -6.517  0.00  0.00     0.010 A 
BRANCH   6   9
HETATM    9  O           1     -21.490  -3.208  -9.444  0.00  0.00    -0.247 OA
BRANCH   9  10
HETATM   10  P           1     -21.496  -3.909 -10.899  0.00  0.00     0.411 P 
HETATM   11  O           1     -22.704  -4.754 -11.036  0.00  0.00    -0.624 OA
HETATM   12  O           1     -20.288  -4.751 -11.046  0.00  0.00    -0.624 OA
BRANCH  10  13
HETATM   13  O           1     -21.505  -2.771 -12.045  0.00  0.00    -0.300 OA
HETATM   14  H           1     -22.399  -2.476 -12.088  0.00  0.00     0.223 HD
ENDBRANCH  10  13
ENDBRANCH   9  10
ENDBRANCH   6   9
ENDBRANCH   2   3
ENDBRANCH   1   2
BRANCH   1  15
HETATM   15  C           1     -20.102  -8.899  -5.096  0.00  0.00     0.197 C 
HETATM   16  O           1     -18.982  -8.725  -4.569  0.00  0.00    -0.646 OA
HETATM   17  O           1     -20.384  -9.999  -5.618  0.00  0.00    -0.646 OA
ENDBRANCH   1  15
BRANCH   1  18
HETATM   18  N           1     -22.039  -7.957  -4.002  0.00  0.00    -0.344 N 
HETATM   19  H           1     -22.817  -8.599  -4.092  0.00  0.00     0.163 HD
HETATM   20  C           1     -21.862  -7.256  -2.839  0.00  0.00     0.249 C 
HETATM   21  O           1     -22.379  -6.173  -2.702  0.00  0.00    -0.271 OA
BRANCH  20  22
HETATM   22  C           1     -21.020  -7.838  -1.730  0.00  0.00     0.275 C 
BRANCH  22  23
HETATM   23  N           1     -21.625  -7.482  -0.404  0.00  0.00    -0.066 N 
HETATM   24  H           1     -22.612  -7.168  -0.543  0.00  0.00     0.275 HD
HETATM   25  H           1     -21.610  -8.319   0.221  0.00  0.00     0.275 HD
HETATM   26  H           1     -21.073  -6.709   0.034  0.00  0.00     0.275 HD
ENDBRANCH  22  23
BRANCH  22  27
HETATM   27  C           1     -20.969  -9.354  -1.872  0.00  0.00     0.053 C 
BRANCH  27  28
HETATM   28  C           1     -22.042  -9.984  -0.996  0.00  0.00     0.115 C 
BRANCH  28  29
HETATM   29  C           1     -23.006 -10.759  -1.859  0.00  0.00     0.172 C 
HETATM   30  O           1     -22.787 -10.886  -3.083  0.00  0.00    -0.648 OA
HETATM   31  O           1     -24.024 -11.276  -1.350  0.00  0.00    -0.648 OA
ENDBRANCH  28  29
ENDBRANCH  27  28
ENDBRANCH  22  27
ENDBRANCH  20  22
ENDBRANCH   1  18
TORSDOF 12
ENDMDL
MODEL 8
REMARK VINA RESULT:      -6.5     12.932     15.938
REMARK  12 active torsions:
REMARK  status: ('A' for Active; 'I' for Inactive)
REMARK    1  A    between atoms: C_1  and  C_5 
REMARK    2  A    between atoms: C_4  and  O_21 
REMARK    3  A    between atoms: C_5  and  C_15 
REMARK    4  A    between atoms: C_6  and  C_12 
REMARK    5  A    between atoms: C_6  and  C_7 
REMARK    6  A    between atoms: N_10  and  C_13 
REMARK    7  A    between atoms: C_12  and  C_13 
REMARK    8  A    between atoms: C_13  and  C_14 
REMARK       I    between atoms: C_14  and  N_16 
REMARK    9  A    between atoms: C_15  and  C_18 
REMARK   10  A    between atoms: C_15  and  N_16 
REMARK   11  A    between atoms: P_20  and  O_21 
REMARK   12  A    between atoms: P_20  and  O_30 
ROOT
HETATM    1  C           1     -21.313  -8.540  -5.032  0.00  0.00     0.189 C 
ENDROOT
BRANCH   1   2
HETATM    2  C           1     -20.223  -7.491  -5.204  0.00  0.00     0.074 C 
BRANCH   2   3
HETATM    3  C           1     -20.712  -6.405  -6.111  0.00  0.00    -0.056 A 
HETATM    4  C           1     -19.910  -5.957  -7.159  0.00  0.00     0.010 A 
HETATM    5  C           1     -20.367  -4.947  -8.005  0.00  0.00     0.038 A 
HETATM    6  C           1     -21.627  -4.384  -7.802  0.00  0.00     0.081 A 
HETATM    7  C           1     -22.430  -4.833  -6.754  0.00  0.00     0.038 A 
HETATM    8  C           1     -21.973  -5.844  -5.908  0.00  0.00     0.010 A 
BRANCH   6   9
HETATM    9  O           1     -22.070  -3.402  -8.624  0.00  0.00    -0.247 OA
BRANCH   9  10
HETATM   10  P           1     -23.265  -3.756  -9.652  0.00  0.00     0.411 P 
HETATM   11  O           1     -23.253  -5.207  -9.943  0.00  0.00    -0.624 OA
HETATM   12  O           1     -23.073  -3.001 -10.910  0.00  0.00    -0.624 OA
BRANCH  10  13
HETATM   13  O           1     -24.682  -3.353  -8.990  0.00  0.00    -0.300 OA
HETATM   14  H           1     -24.499  -3.243  -8.072  0.00  0.00     0.223 HD
ENDBRANCH  10  13
ENDBRANCH   9  10
ENDBRANCH   6   9
ENDBRANCH   2   3
ENDBRANCH   1   2
BRANCH   1  15
HETATM   15  C           1     -20.771  -9.897  -5.408  0.00  0.00     0.197 C 
HETATM   16  O           1     -19.680  -9.988  -6.010  0.00  0.00    -0.646 OA
HETATM   17  O           1     -21.414 -10.929  -5.118  0.00  0.00    -0.646 OA
ENDBRANCH   1  15
BRANCH   1  18
HETATM   18  N           1     -21.749  -8.560  -3.649  0.00  0.00    -0.344 N 
HETATM   19  H           1     -22.685  -8.869  -3.418  0.00  0.00     0.163 HD
HETATM   20  C           1     -20.896  -8.162  -2.656  0.00  0.00     0.249 C 
HETATM   21  O           1     -20.866  -7.004  -2.313  0.00  0.00    -0.271 OA
BRANCH  20  22
HETATM   22  C           1     -19.992  -9.170  -1.990  0.00  0.00     0.275 C 
BRANCH  22  23
HETATM   23  N           1     -20.583 -10.542  -2.130  0.00  0.00    -0.066 N 
HETATM   24  H           1     -19.913 -11.160  -2.642  0.00  0.00     0.275 HD
HETATM   25  H           1     -20.769 -10.939  -1.182  0.00  0.00     0.275 HD
HETATM   26  H           1     -21.479 -10.481  -2.666  0.00  0.00     0.275 HD
ENDBRANCH  22  23
BRANCH  22  27
HETATM   27  C           1     -18.620  -9.139  -2.654  0.00  0.00     0.053 C 
BRANCH  27  28
HETATM   28  C           1     -17.934 -10.484  -2.465  0.00  0.00     0.115 C 
BRANCH  28  29
HETATM   29  C           1     -16.479 -10.365  -2.847  0.00  0.00     0.172 C 
HETATM   30  O           1     -15.907  -9.254  -2.792  0.00  0.00    -0.648 OA
HETATM   31  O           1     -15.845 -11.376  -3.217  0.00  0.00    -0.648 OA
ENDBRANCH  28  29
ENDBRANCH  27  28
ENDBRANCH  22  27
ENDBRANCH  20  22
ENDBRANCH   1  18
TORSDOF 12
ENDMDL
MODEL 9
REMARK VINA RESULT:      -6.4     13.497     16.023
REMARK  12 active torsions:
REMARK  status: ('A' for Active; 'I' for Inactive)
REMARK    1  A    between atoms: C_1  and  C_5 
REMARK    2  A    between atoms: C_4  and  O_21 
REMARK    3  A    between atoms: C_5  and  C_15 
REMARK    4  A    between atoms: C_6  and  C_12 
REMARK    5  A    between atoms: C_6  and  C_7 
REMARK    6  A    between atoms: N_10  and  C_13 
REMARK    7  A    between atoms: C_12  and  C_13 
REMARK    8  A    between atoms: C_13  and  C_14 
REMARK       I    between atoms: C_14  and  N_16 
REMARK    9  A    between atoms: C_15  and  C_18 
REMARK   10  A    between atoms: C_15  and  N_16 
REMARK   11  A    between atoms: P_20  and  O_21 
REMARK   12  A    between atoms: P_20  and  O_30 
ROOT
HETATM    1  C           1     -21.399  -7.907  -2.387  0.00  0.00     0.189 C 
ENDROOT
BRANCH   1   2
HETATM    2  C           1     -20.003  -8.508  -2.279  0.00  0.00     0.074 C 
BRANCH   2   3
HETATM    3  C           1     -19.693  -9.278  -3.524  0.00  0.00    -0.056 A 
HETATM    4  C           1     -18.415  -9.223  -4.079  0.00  0.00     0.010 A 
HETATM    5  C           1     -18.126  -9.941  -5.239  0.00  0.00     0.038 A 
HETATM    6  C           1     -19.116 -10.715  -5.845  0.00  0.00     0.081 A 
HETATM    7  C           1     -20.395 -10.771  -5.290  0.00  0.00     0.038 A 
HETATM    8  C           1     -20.683 -10.052  -4.129  0.00  0.00     0.010 A 
BRANCH   6   9
HETATM    9  O           1     -18.835 -11.413  -6.972  0.00  0.00    -0.247 OA
BRANCH   9  10
HETATM   10  P           1     -17.944 -12.752  -6.832  0.00  0.00     0.411 P 
HETATM   11  O           1     -16.515 -12.418  -7.023  0.00  0.00    -0.624 OA
HETATM   12  O           1     -18.363 -13.733  -7.859  0.00  0.00    -0.624 OA
BRANCH  10  13
HETATM   13  O           1     -18.155 -13.387  -5.362  0.00  0.00    -0.300 OA
HETATM   14  H           1     -19.078 -13.570  -5.306  0.00  0.00     0.223 HD
ENDBRANCH  10  13
ENDBRANCH   9  10
ENDBRANCH   6   9
ENDBRANCH   2   3
ENDBRANCH   1   2
BRANCH   1  15
HETATM   15  C           1     -22.039  -7.871  -1.021  0.00  0.00     0.197 C 
HETATM   16  O           1     -22.770  -6.910  -0.699  0.00  0.00    -0.646 OA
HETATM   17  O           1     -21.836  -8.802  -0.211  0.00  0.00    -0.646 OA
ENDBRANCH   1  15
BRANCH   1  18
HETATM   18  N           1     -21.305  -6.560  -2.913  0.00  0.00    -0.344 N 
HETATM   19  H           1     -21.014  -5.800  -2.309  0.00  0.00     0.163 HD
HETATM   20  C           1     -21.609  -6.313  -4.224  0.00  0.00     0.249 C 
HETATM   21  O           1     -22.741  -6.033  -4.540  0.00  0.00    -0.271 OA
BRANCH  20  22
HETATM   22  C           1     -20.529  -6.393  -5.276  0.00  0.00     0.275 C 
BRANCH  22  23
HETATM   23  N           1     -20.993  -7.269  -6.402  0.00  0.00    -0.066 N 
HETATM   24  H           1     -20.177  -7.786  -6.801  0.00  0.00     0.275 HD
HETATM   25  H           1     -21.697  -7.953  -6.044  0.00  0.00     0.275 HD
HETATM   26  H           1     -21.427  -6.677  -7.147  0.00  0.00     0.275 HD
ENDBRANCH  22  23
BRANCH  22  27
HETATM   27  C           1     -20.235  -4.996  -5.809  0.00  0.00     0.053 C 
BRANCH  27  28
HETATM   28  C           1     -20.050  -5.056  -7.318  0.00  0.00     0.115 C 
BRANCH  28  29
HETATM   29  C           1     -21.228  -4.400  -7.996  0.00  0.00     0.172 C 
HETATM   30  O           1     -21.106  -3.936  -9.151  0.00  0.00    -0.648 OA
HETATM   31  O           1     -22.325  -4.319  -7.403  0.00  0.00    -0.648 OA
ENDBRANCH  28  29
ENDBRANCH  27  28
ENDBRANCH  22  27
ENDBRANCH  20  22
ENDBRANCH   1  18
TORSDOF 12
ENDMDL
