MODEL 1
REMARK VINA RESULT:      -7.2      0.000      0.000
REMARK  18 active torsions:
REMARK  status: ('A' for Active; 'I' for Inactive)
REMARK    1  A    between atoms: C_1  and  C_37 
REMARK    2  A    between atoms: C_1  and  C_2 
REMARK    3  A    between atoms: C_1  and  N_39 
REMARK    4  A    between atoms: C_2  and  C_3 
REMARK    5  A    between atoms: C_3  and  C_41 
REMARK    6  A    between atoms: N_4  and  C_5 
REMARK    7  A    between atoms: C_5  and  C_6 
REMARK    8  A    between atoms: C_6  and  C_7 
REMARK    9  A    between atoms: C_7  and  C_8 
REMARK   10  A    between atoms: C_8  and  C_9 
REMARK   11  A    between atoms: C_9  and  C_10 
REMARK   12  A    between atoms: C_9  and  N_13 
REMARK   13  A    between atoms: N_13  and  C_14 
REMARK   14  A    between atoms: C_14  and  C_15 
REMARK   15  A    between atoms: C_15  and  C_24 
REMARK   16  A    between atoms: C_17  and  C_24 
REMARK       I    between atoms: C_21  and  N_22 
REMARK       I    between atoms: C_21  and  N_23 
REMARK   17  A    between atoms: C_24  and  N_36 
REMARK       I    between atoms: N_36  and  C_37 
REMARK   18  A    between atoms: N_40  and  C_41 
ROOT
HETATM    1  H           1     -31.878  -3.857 -15.184  0.00  0.00     0.163 HD
HETATM    2  O           1     -32.040  -6.125 -17.346  0.00  0.00    -0.271 OA
HETATM    3  N           1     -32.305  -4.484 -15.854  0.00  0.00    -0.345 N 
HETATM    4  C           1     -31.530  -5.376 -16.546  0.00  0.00     0.249 C 
ENDROOT
BRANCH   3   5
HETATM    5  C           1     -33.736  -4.437 -16.082  0.00  0.00     0.187 C 
BRANCH   5   6
HETATM    6  C           1     -34.466  -4.672 -14.767  0.00  0.00     0.066 C 
BRANCH   6   7
HETATM    7  C           1     -33.631  -4.124 -13.616  0.00  0.00     0.273 C 
BRANCH   7   8
HETATM    8  N           1     -34.300  -2.992 -13.034  0.00  0.00     0.098 N 
HETATM    9  H           1     -35.029  -2.664 -13.669  0.00  0.00     0.317 HD
BRANCH   8  10
HETATM   10  C           1     -34.900  -3.426 -11.801  0.00  0.00     0.320 C 
BRANCH  10  11
HETATM   11  C           1     -33.844  -4.097 -10.932  0.00  0.00     0.047 C 
BRANCH  11  12
HETATM   12  C           1     -34.471  -5.261 -10.177  0.00  0.00     0.004 C 
BRANCH  12  13
HETATM   13  C           1     -34.204  -6.558 -10.929  0.00  0.00     0.027 C 
BRANCH  13  14
HETATM   14  C           1     -34.622  -7.741 -10.067  0.00  0.00     0.229 C 
BRANCH  14  15
HETATM   15  N           1     -33.617  -8.846 -10.208  0.00  0.00    -0.079 N 
HETATM   16  H           1     -34.004  -9.591 -10.829  0.00  0.00     0.274 HD
HETATM   17  H           1     -32.739  -8.464 -10.627  0.00  0.00     0.274 HD
HETATM   18  H           1     -33.409  -9.249  -9.268  0.00  0.00     0.274 HD
ENDBRANCH  14  15
ENDBRANCH  13  14
ENDBRANCH  12  13
ENDBRANCH  11  12
ENDBRANCH  10  11
BRANCH  10  19
HETATM   19  C           1     -35.468  -2.233 -11.072  0.00  0.00     0.207 C 
HETATM   20  O           1     -34.789  -1.190 -10.957  0.00  0.00    -0.646 OA
HETATM   21  O           1     -36.618  -2.287 -10.585  0.00  0.00    -0.646 OA
ENDBRANCH  10  19
ENDBRANCH   8  10
ENDBRANCH   7   8
ENDBRANCH   6   7
ENDBRANCH   5   6
BRANCH   5  22
HETATM   22  C           1     -34.112  -3.084 -16.634  0.00  0.00     0.196 C 
HETATM   23  O           1     -35.065  -2.449 -16.135  0.00  0.00    -0.646 OA
HETATM   24  O           1     -33.469  -2.598 -17.590  0.00  0.00    -0.646 OA
ENDBRANCH   5  22
ENDBRANCH   3   5
BRANCH   4  25
HETATM   25  C           1     -30.040  -5.426 -16.308  0.00  0.00     0.274 C 
BRANCH  25  26
HETATM   26  C           1     -29.438  -6.580 -17.099  0.00  0.00     0.044 C 
BRANCH  26  27
HETATM   27  C           1     -28.180  -6.105 -17.814  0.00  0.00     0.023 C 
BRANCH  27  28
HETATM   28  C           1     -27.029  -6.026 -16.818  0.00  0.00     0.138 C 
BRANCH  28  29
HETATM   29  N           1     -25.858  -6.725 -17.367  0.00  0.00    -0.227 N 
HETATM   30  C           1     -24.866  -6.980 -16.622  0.00  0.00     0.665 C 
HETATM   31  N           1     -23.858  -7.582 -17.094  0.00  0.00    -0.235 N 
HETATM   32  N           1     -24.885  -6.624 -15.371  0.00  0.00    -0.235 N 
HETATM   33  H           1     -23.036  -7.794 -16.476  0.00  0.00     0.174 HD
HETATM   34  H           1     -23.844  -7.870 -18.104  0.00  0.00     0.174 HD
HETATM   35  H           1     -24.067  -6.834 -14.756  0.00  0.00     0.174 HD
HETATM   36  H           1     -25.718  -6.127 -14.982  0.00  0.00     0.174 HD
HETATM   37  H           1     -25.844  -7.013 -18.376  0.00  0.00     0.177 HD
ENDBRANCH  28  29
ENDBRANCH  27  28
ENDBRANCH  26  27
ENDBRANCH  25  26
BRANCH  25  38
HETATM   38  N           1     -29.775  -5.629 -14.846  0.00  0.00    -0.067 N 
HETATM   39  H           1     -30.256  -6.498 -14.522  0.00  0.00     0.275 HD
HETATM   40  H           1     -28.746  -5.722 -14.689  0.00  0.00     0.275 HD
HETATM   41  H           1     -30.137  -4.810 -14.309  0.00  0.00     0.275 HD
ENDBRANCH  25  38
ENDBRANCH   4  25
TORSDOF 18
ENDMDL
MODEL 2
REMARK VINA RESULT:      -6.7     13.559     15.737
REMARK  18 active torsions:
REMARK  status: ('A' for Active; 'I' for Inactive)
REMARK    1  A    between atoms: C_1  and  C_37 
REMARK    2  A    between atoms: C_1  and  C_2 
REMARK    3  A    between atoms: C_1  and  N_39 
REMARK    4  A    between atoms: C_2  and  C_3 
REMARK    5  A    between atoms: C_3  and  C_41 
REMARK    6  A    between atoms: N_4  and  C_5 
REMARK    7  A    between atoms: C_5  and  C_6 
REMARK    8  A    between atoms: C_6  and  C_7 
REMARK    9  A    between atoms: C_7  and  C_8 
REMARK   10  A    between atoms: C_8  and  C_9 
REMARK   11  A    between atoms: C_9  and  C_10 
REMARK   12  A    between atoms: C_9  and  N_13 
REMARK   13  A    between atoms: N_13  and  C_14 
REMARK   14  A    between atoms: C_14  and  C_15 
REMARK   15  A    between atoms: C_15  and  C_24 
REMARK   16  A    between atoms: C_17  and  C_24 
REMARK       I    between atoms: C_21  and  N_22 
REMARK       I    between atoms: C_21  and  N_23 
REMARK   17  A    between atoms: C_24  and  N_36 
REMARK       I    between atoms: N_36  and  C_37 
REMARK   18  A    between atoms: N_40  and  C_41 
ROOT
HETATM    1  H           1     -21.347  -8.094  -4.849  0.00  0.00     0.163 HD
HETATM    2  O           1     -19.359  -6.810  -6.909  0.00  0.00    -0.271 OA
HETATM    3  N           1     -20.504  -7.993  -5.400  0.00  0.00    -0.345 N 
HETATM    4  C           1     -20.365  -6.929  -6.250  0.00  0.00     0.249 C 
ENDROOT
BRANCH   3   5
HETATM    5  C           1     -19.445  -8.977  -5.292  0.00  0.00     0.187 C 
BRANCH   5   6
HETATM    6  C           1     -18.895  -8.975  -3.872  0.00  0.00     0.066 C 
BRANCH   6   7
HETATM    7  C           1     -20.019  -9.282  -2.890  0.00  0.00     0.273 C 
BRANCH   7   8
HETATM    8  N           1     -20.071  -8.255  -1.884  0.00  0.00     0.098 N 
HETATM    9  H           1     -19.558  -7.435  -2.209  0.00  0.00     0.317 HD
BRANCH   8  10
HETATM   10  C           1     -21.452  -7.909  -1.685  0.00  0.00     0.320 C 
BRANCH  10  11
HETATM   11  C           1     -21.771  -7.936  -0.196  0.00  0.00     0.047 C 
BRANCH  11  12
HETATM   12  C           1     -22.855  -8.972   0.073  0.00  0.00     0.004 C 
BRANCH  12  13
HETATM   13  C           1     -22.237 -10.363   0.085  0.00  0.00     0.027 C 
BRANCH  13  14
HETATM   14  C           1     -20.953 -10.342   0.903  0.00  0.00     0.229 C 
BRANCH  14  15
HETATM   15  N           1     -19.935 -11.238   0.262  0.00  0.00    -0.079 N 
HETATM   16  H           1     -19.218 -10.657  -0.227  0.00  0.00     0.274 HD
HETATM   17  H           1     -19.471 -11.818   0.997  0.00  0.00     0.274 HD
HETATM   18  H           1     -20.407 -11.862  -0.430  0.00  0.00     0.274 HD
ENDBRANCH  14  15
ENDBRANCH  13  14
ENDBRANCH  12  13
ENDBRANCH  11  12
ENDBRANCH  10  11
BRANCH  10  19
HETATM   19  C           1     -21.706  -6.524  -2.229  0.00  0.00     0.207 C 
HETATM   20  O           1     -22.802  -5.961  -2.018  0.00  0.00    -0.646 OA
HETATM   21  O           1     -20.820  -5.940  -2.889  0.00  0.00    -0.646 OA
ENDBRANCH  10  19
ENDBRANCH   8  10
ENDBRANCH   7   8
ENDBRANCH   6   7
ENDBRANCH   5   6
BRANCH   5  22
HETATM   22  C           1     -19.994 -10.344  -5.617  0.00  0.00     0.196 C 
HETATM   23  O           1     -19.296 -11.362  -5.420  0.00  0.00    -0.646 OA
HETATM   24  O           1     -21.148 -10.459  -6.084  0.00  0.00    -0.646 OA
ENDBRANCH   5  22
ENDBRANCH   3   5
BRANCH   4  25
HETATM   25  C           1     -21.467  -5.904  -6.363  0.00  0.00     0.274 C 
BRANCH  25  26
HETATM   26  C           1     -20.867  -4.505  -6.321  0.00  0.00     0.044 C 
BRANCH  26  27
HETATM   27  C           1     -21.600  -3.608  -7.310  0.00  0.00     0.023 C 
BRANCH  27  28
HETATM   28  C           1     -22.395  -4.468  -8.284  0.00  0.00     0.138 C 
BRANCH  28  29
HETATM   29  N           1     -23.740  -3.902  -8.452  0.00  0.00    -0.227 N 
HETATM   30  C           1     -24.352  -4.039  -9.553  0.00  0.00     0.665 C 
HETATM   31  N           1     -25.512  -3.551  -9.698  0.00  0.00    -0.235 N 
HETATM   32  N           1     -23.790  -4.683 -10.532  0.00  0.00    -0.235 N 
HETATM   33  H           1     -26.018  -3.666 -10.610  0.00  0.00     0.174 HD
HETATM   34  H           1     -25.966  -3.032  -8.906  0.00  0.00     0.174 HD
HETATM   35  H           1     -24.294  -4.796 -11.440  0.00  0.00     0.174 HD
HETATM   36  H           1     -22.833  -5.085 -10.412  0.00  0.00     0.174 HD
HETATM   37  H           1     -24.195  -3.382  -7.661  0.00  0.00     0.177 HD
ENDBRANCH  28  29
ENDBRANCH  27  28
ENDBRANCH  26  27
ENDBRANCH  25  26
BRANCH  25  38
HETATM   38  N           1     -22.424  -6.072  -5.220  0.00  0.00    -0.067 N 
HETATM   39  H           1     -23.155  -6.772  -5.478  0.00  0.00     0.275 HD
HETATM   40  H           1     -21.904  -6.404  -4.377  0.00  0.00     0.275 HD
HETATM   41  H           1     -22.880  -5.155  -5.010  0.00  0.00     0.275 HD
ENDBRANCH  25  38
ENDBRANCH   4  25
TORSDOF 18
ENDMDL
MODEL 3
REMARK VINA RESULT:      -6.6     13.450     15.638
REMARK  18 active torsions:
REMARK  status: ('A' for Active; 'I' for Inactive)
REMARK    1  A    between atoms: C_1  and  C_37 
REMARK    2  A    between atoms: C_1  and  C_2 
REMARK    3  A    between atoms: C_1  and  N_39 
REMARK    4  A    between atoms: C_2  and  C_3 
REMARK    5  A    between atoms: C_3  and  C_41 
REMARK    6  A    between atoms: N_4  and  C_5 
REMARK    7  A    between atoms: C_5  and  C_6 
REMARK    8  A    between atoms: C_6  and  C_7 
REMARK    9  A    between atoms: C_7  and  C_8 
REMARK   10  A    between atoms: C_8  and  C_9 
REMARK   11  A    between atoms: C_9  and  C_10 
REMARK   12  A    between atoms: C_9  and  N_13 
REMARK   13  A    between atoms: N_13  and  C_14 
REMARK   14  A    between atoms: C_14  and  C_15 
REMARK   15  A    between atoms: C_15  and  C_24 
REMARK   16  A    between atoms: C_17  and  C_24 
REMARK       I    between atoms: C_21  and  N_22 
REMARK       I    between atoms: C_21  and  N_23 
REMARK   17  A    between atoms: C_24  and  N_36 
REMARK       I    between atoms: N_36  and  C_37 
REMARK   18  A    between atoms: N_40  and  C_41 
ROOT
HETATM    1  H           1     -21.215  -7.983  -4.397  0.00  0.00     0.163 HD
HETATM    2  O           1     -19.403  -7.016  -6.769  0.00  0.00    -0.271 OA
HETATM    3  N           1     -20.429  -7.980  -5.035  0.00  0.00    -0.345 N 
HETATM    4  C           1     -20.342  -7.020  -6.008  0.00  0.00     0.249 C 
ENDROOT
BRANCH   3   5
HETATM    5  C           1     -19.396  -8.990  -4.918  0.00  0.00     0.187 C 
BRANCH   5   6
HETATM    6  C           1     -19.049  -9.192  -3.449  0.00  0.00     0.066 C 
BRANCH   6   7
HETATM    7  C           1     -20.267  -9.733  -2.709  0.00  0.00     0.273 C 
BRANCH   7   8
HETATM    8  N           1     -20.408  -9.046  -1.453  0.00  0.00     0.098 N 
HETATM    9  H           1     -19.812  -8.218  -1.450  0.00  0.00     0.317 HD
BRANCH   8  10
HETATM   10  C           1     -21.784  -8.646  -1.326  0.00  0.00     0.320 C 
BRANCH  10  11
HETATM   11  C           1     -22.281  -8.979   0.074  0.00  0.00     0.047 C 
BRANCH  11  12
HETATM   12  C           1     -23.500  -9.887  -0.021  0.00  0.00     0.004 C 
BRANCH  12  13
HETATM   13  C           1     -23.047 -11.335  -0.151  0.00  0.00     0.027 C 
BRANCH  13  14
HETATM   14  C           1     -23.898 -12.041  -1.198  0.00  0.00     0.229 C 
BRANCH  14  15
HETATM   15  N           1     -24.081 -13.478  -0.808  0.00  0.00    -0.079 N 
HETATM   16  H           1     -24.050 -14.077  -1.663  0.00  0.00     0.274 HD
HETATM   17  H           1     -23.315 -13.761  -0.157  0.00  0.00     0.274 HD
HETATM   18  H           1     -25.004 -13.596  -0.335  0.00  0.00     0.274 HD
ENDBRANCH  14  15
ENDBRANCH  13  14
ENDBRANCH  12  13
ENDBRANCH  11  12
ENDBRANCH  10  11
BRANCH  10  19
HETATM   19  C           1     -21.898  -7.160  -1.561  0.00  0.00     0.207 C 
HETATM   20  O           1     -22.710  -6.483  -0.894  0.00  0.00    -0.646 OA
HETATM   21  O           1     -21.181  -6.605  -2.421  0.00  0.00    -0.646 OA
ENDBRANCH  10  19
ENDBRANCH   8  10
ENDBRANCH   7   8
ENDBRANCH   6   7
ENDBRANCH   5   6
BRANCH   5  22
HETATM   22  C           1     -19.895 -10.288  -5.502  0.00  0.00     0.196 C 
HETATM   23  O           1     -19.166 -11.303  -5.484  0.00  0.00    -0.646 OA
HETATM   24  O           1     -21.039 -10.349  -6.004  0.00  0.00    -0.646 OA
ENDBRANCH   5  22
ENDBRANCH   3   5
BRANCH   4  25
HETATM   25  C           1     -21.417  -5.968  -6.129  0.00  0.00     0.274 C 
BRANCH  25  26
HETATM   26  C           1     -20.774  -4.589  -6.192  0.00  0.00     0.044 C 
BRANCH  26  27
HETATM   27  C           1     -21.592  -3.687  -7.106  0.00  0.00     0.023 C 
BRANCH  27  28
HETATM   28  C           1     -22.293  -4.535  -8.161  0.00  0.00     0.138 C 
BRANCH  28  29
HETATM   29  N           1     -23.686  -4.091  -8.301  0.00  0.00    -0.227 N 
HETATM   30  C           1     -24.160  -3.843  -9.450  0.00  0.00     0.665 C 
HETATM   31  N           1     -25.361  -3.460  -9.571  0.00  0.00    -0.235 N 
HETATM   32  N           1     -23.413  -3.984 -10.504  0.00  0.00    -0.235 N 
HETATM   33  H           1     -25.753  -3.256 -10.523  0.00  0.00     0.174 HD
HETATM   34  H           1     -25.964  -3.347  -8.718  0.00  0.00     0.174 HD
HETATM   35  H           1     -23.803  -3.780 -11.452  0.00  0.00     0.174 HD
HETATM   36  H           1     -22.422  -4.300 -10.404  0.00  0.00     0.174 HD
HETATM   37  H           1     -24.290  -3.978  -7.450  0.00  0.00     0.177 HD
ENDBRANCH  28  29
ENDBRANCH  27  28
ENDBRANCH  26  27
ENDBRANCH  25  26
BRANCH  25  38
HETATM   38  N           1     -22.326  -6.043  -4.938  0.00  0.00    -0.067 N 
HETATM   39  H           1     -23.223  -6.500  -5.213  0.00  0.00     0.275 HD
HETATM   40  H           1     -21.866  -6.601  -4.185  0.00  0.00     0.275 HD
HETATM   41  H           1     -22.520  -5.078  -4.588  0.00  0.00     0.275 HD
ENDBRANCH  25  38
ENDBRANCH   4  25
TORSDOF 18
ENDMDL
MODEL 4
REMARK VINA RESULT:      -6.5     13.928     15.964
REMARK  18 active torsions:
REMARK  status: ('A' for Active; 'I' for Inactive)
REMARK    1  A    between atoms: C_1  and  C_37 
REMARK    2  A    between atoms: C_1  and  C_2 
REMARK    3  A    between atoms: C_1  and  N_39 
REMARK    4  A    between atoms: C_2  and  C_3 
REMARK    5  A    between atoms: C_3  and  C_41 
REMARK    6  A    between atoms: N_4  and  C_5 
REMARK    7  A    between atoms: C_5  and  C_6 
REMARK    8  A    between atoms: C_6  and  C_7 
REMARK    9  A    between atoms: C_7  and  C_8 
REMARK   10  A    between atoms: C_8  and  C_9 
REMARK   11  A    between atoms: C_9  and  C_10 
REMARK   12  A    between atoms: C_9  and  N_13 
REMARK   13  A    between atoms: N_13  and  C_14 
REMARK   14  A    between atoms: C_14  and  C_15 
REMARK   15  A    between atoms: C_15  and  C_24 
REMARK   16  A    between atoms: C_17  and  C_24 
REMARK       I    between atoms: C_21  and  N_22 
REMARK       I    between atoms: C_21  and  N_23 
REMARK   17  A    between atoms: C_24  and  N_36 
REMARK       I    between atoms: N_36  and  C_37 
REMARK   18  A    between atoms: N_40  and  C_41 
ROOT
HETATM    1  H           1     -21.870  -7.873  -4.341  0.00  0.00     0.163 HD
HETATM    2  O           1     -19.643  -7.157  -6.433  0.00  0.00    -0.271 OA
HETATM    3  N           1     -20.995  -7.955  -4.844  0.00  0.00    -0.345 N 
HETATM    4  C           1     -20.687  -7.059  -5.832  0.00  0.00     0.249 C 
ENDROOT
BRANCH   3   5
HETATM    5  C           1     -20.070  -9.023  -4.520  0.00  0.00     0.187 C 
BRANCH   5   6
HETATM    6  C           1     -19.855  -9.066  -3.013  0.00  0.00     0.066 C 
BRANCH   6   7
HETATM    7  C           1     -21.075  -8.488  -2.308  0.00  0.00     0.273 C 
BRANCH   7   8
HETATM    8  N           1     -21.782  -9.542  -1.632  0.00  0.00     0.098 N 
HETATM    9  H           1     -21.156 -10.335  -1.489  0.00  0.00     0.317 HD
BRANCH   8  10
HETATM   10  C           1     -22.209  -9.033  -0.356  0.00  0.00     0.320 C 
BRANCH  10  11
HETATM   11  C           1     -23.537  -9.672   0.027  0.00  0.00     0.047 C 
BRANCH  11  12
HETATM   12  C           1     -23.734 -10.954  -0.772  0.00  0.00     0.004 C 
BRANCH  12  13
HETATM   13  C           1     -23.632 -12.154   0.159  0.00  0.00     0.027 C 
BRANCH  13  14
HETATM   14  C           1     -22.879 -13.278  -0.541  0.00  0.00     0.229 C 
BRANCH  14  15
HETATM   15  N           1     -21.425 -12.920  -0.641  0.00  0.00    -0.079 N 
HETATM   16  H           1     -21.014 -13.372  -1.489  0.00  0.00     0.274 HD
HETATM   17  H           1     -21.328 -11.883  -0.718  0.00  0.00     0.274 HD
HETATM   18  H           1     -20.924 -13.257   0.211  0.00  0.00     0.274 HD
ENDBRANCH  14  15
ENDBRANCH  13  14
ENDBRANCH  12  13
ENDBRANCH  11  12
ENDBRANCH  10  11
BRANCH  10  19
HETATM   19  C           1     -21.171  -9.364   0.689  0.00  0.00     0.207 C 
HETATM   20  O           1     -20.957  -8.570   1.630  0.00  0.00    -0.646 OA
HETATM   21  O           1     -20.527 -10.433   0.614  0.00  0.00    -0.646 OA
ENDBRANCH  10  19
ENDBRANCH   8  10
ENDBRANCH   7   8
ENDBRANCH   6   7
ENDBRANCH   5   6
BRANCH   5  22
HETATM   22  C           1     -20.639 -10.340  -4.986  0.00  0.00     0.196 C 
HETATM   23  O           1     -20.747 -11.293  -4.186  0.00  0.00    -0.646 OA
HETATM   24  O           1     -21.002 -10.478  -6.175  0.00  0.00    -0.646 OA
ENDBRANCH   5  22
ENDBRANCH   3   5
BRANCH   4  25
HETATM   25  C           1     -21.651  -5.947  -6.170  0.00  0.00     0.274 C 
BRANCH  25  26
HETATM   26  C           1     -20.903  -4.620  -6.208  0.00  0.00     0.044 C 
BRANCH  26  27
HETATM   27  C           1     -21.537  -3.709  -7.251  0.00  0.00     0.023 C 
BRANCH  27  28
HETATM   28  C           1     -22.347  -4.548  -8.232  0.00  0.00     0.138 C 
BRANCH  28  29
HETATM   29  N           1     -23.683  -3.956  -8.397  0.00  0.00    -0.227 N 
HETATM   30  C           1     -24.279  -4.040  -9.510  0.00  0.00     0.665 C 
HETATM   31  N           1     -25.430  -3.530  -9.652  0.00  0.00    -0.235 N 
HETATM   32  N           1     -23.711  -4.650 -10.508  0.00  0.00    -0.235 N 
HETATM   33  H           1     -25.924  -3.600 -10.575  0.00  0.00     0.174 HD
HETATM   34  H           1     -25.889  -3.038  -8.845  0.00  0.00     0.174 HD
HETATM   35  H           1     -24.203  -4.718 -11.427  0.00  0.00     0.174 HD
HETATM   36  H           1     -22.761  -5.070 -10.390  0.00  0.00     0.174 HD
HETATM   37  H           1     -24.142  -3.465  -7.591  0.00  0.00     0.177 HD
ENDBRANCH  28  29
ENDBRANCH  27  28
ENDBRANCH  26  27
ENDBRANCH  25  26
BRANCH  25  38
HETATM   38  N           1     -22.727  -5.884  -5.126  0.00  0.00    -0.067 N 
HETATM   39  H           1     -23.061  -6.850  -4.912  0.00  0.00     0.275 HD
HETATM   40  H           1     -22.343  -5.448  -4.258  0.00  0.00     0.275 HD
HETATM   41  H           1     -23.524  -5.310  -5.482  0.00  0.00     0.275 HD
ENDBRANCH  25  38
ENDBRANCH   4  25
TORSDOF 18
ENDMDL
MODEL 5
REMARK VINA RESULT:      -6.4     13.782     15.933
REMARK  18 active torsions:
REMARK  status: ('A' for Active; 'I' for Inactive)
REMARK    1  A    between atoms: C_1  and  C_37 
REMARK    2  A    between atoms: C_1  and  C_2 
REMARK    3  A    between atoms: C_1  and  N_39 
REMARK    4  A    between atoms: C_2  and  C_3 
REMARK    5  A    between atoms: C_3  and  C_41 
REMARK    6  A    between atoms: N_4  and  C_5 
REMARK    7  A    between atoms: C_5  and  C_6 
REMARK    8  A    between atoms: C_6  and  C_7 
REMARK    9  A    between atoms: C_7  and  C_8 
REMARK   10  A    between atoms: C_8  and  C_9 
REMARK   11  A    between atoms: C_9  and  C_10 
REMARK   12  A    between atoms: C_9  and  N_13 
REMARK   13  A    between atoms: N_13  and  C_14 
REMARK   14  A    between atoms: C_14  and  C_15 
REMARK   15  A    between atoms: C_15  and  C_24 
REMARK   16  A    between atoms: C_17  and  C_24 
REMARK       I    between atoms: C_21  and  N_22 
REMARK       I    between atoms: C_21  and  N_23 
REMARK   17  A    between atoms: C_24  and  N_36 
REMARK       I    between atoms: N_36  and  C_37 
REMARK   18  A    between atoms: N_40  and  C_41 
ROOT
HETATM    1  H           1     -20.697  -5.658  -3.280  0.00  0.00     0.163 HD
HETATM    2  O           1     -21.578  -7.985  -5.191  0.00  0.00    -0.271 OA
HETATM    3  N           1     -21.051  -6.568  -3.548  0.00  0.00    -0.345 N 
HETATM    4  C           1     -21.155  -6.899  -4.872  0.00  0.00     0.249 C 
ENDROOT
BRANCH   3   5
HETATM    5  C           1     -21.450  -7.519  -2.529  0.00  0.00     0.187 C 
BRANCH   5   6
HETATM    6  C           1     -20.210  -8.175  -1.936  0.00  0.00     0.066 C 
BRANCH   6   7
HETATM    7  C           1     -20.428  -9.680  -1.840  0.00  0.00     0.273 C 
BRANCH   7   8
HETATM    8  N           1     -21.528 -10.061  -2.684  0.00  0.00     0.098 N 
HETATM    9  H           1     -21.176 -10.310  -3.609  0.00  0.00     0.317 HD
BRANCH   8  10
HETATM   10  C           1     -22.162 -11.205  -2.087  0.00  0.00     0.320 C 
BRANCH  10  11
HETATM   11  C           1     -23.426 -10.764  -1.361  0.00  0.00     0.047 C 
BRANCH  11  12
HETATM   12  C           1     -23.585 -11.572  -0.080  0.00  0.00     0.004 C 
BRANCH  12  13
HETATM   13  C           1     -22.212 -11.872   0.506  0.00  0.00     0.027 C 
BRANCH  13  14
HETATM   14  C           1     -22.206 -13.276   1.094  0.00  0.00     0.229 C 
BRANCH  14  15
HETATM   15  N           1     -22.358 -14.282  -0.008  0.00  0.00    -0.079 N 
HETATM   16  H           1     -23.347 -14.282  -0.346  0.00  0.00     0.274 HD
HETATM   17  H           1     -21.721 -14.031  -0.797  0.00  0.00     0.274 HD
HETATM   18  H           1     -22.113 -15.232   0.351  0.00  0.00     0.274 HD
ENDBRANCH  14  15
ENDBRANCH  13  14
ENDBRANCH  12  13
ENDBRANCH  11  12
ENDBRANCH  10  11
BRANCH  10  19
HETATM   19  C           1     -22.521 -12.199  -3.165  0.00  0.00     0.207 C 
HETATM   20  O           1     -22.715 -11.807  -4.336  0.00  0.00    -0.646 OA
HETATM   21  O           1     -22.624 -13.413  -2.887  0.00  0.00    -0.646 OA
ENDBRANCH  10  19
ENDBRANCH   8  10
ENDBRANCH   7   8
ENDBRANCH   6   7
ENDBRANCH   5   6
BRANCH   5  22
HETATM   22  C           1     -22.210  -6.801  -1.441  0.00  0.00     0.196 C 
HETATM   23  O           1     -22.633  -7.435  -0.451  0.00  0.00    -0.646 OA
HETATM   24  O           1     -22.416  -5.571  -1.531  0.00  0.00    -0.646 OA
ENDBRANCH   5  22
ENDBRANCH   3   5
BRANCH   4  25
HETATM   25  C           1     -20.740  -5.909  -5.933  0.00  0.00     0.274 C 
BRANCH  25  26
HETATM   26  C           1     -21.979  -5.260  -6.535  0.00  0.00     0.044 C 
BRANCH  26  27
HETATM   27  C           1     -21.577  -3.996  -7.285  0.00  0.00     0.023 C 
BRANCH  27  28
HETATM   28  C           1     -22.134  -4.049  -8.702  0.00  0.00     0.138 C 
BRANCH  28  29
HETATM   29  N           1     -23.539  -3.618  -8.693  0.00  0.00    -0.227 N 
HETATM   30  C           1     -24.293  -3.896  -9.672  0.00  0.00     0.665 C 
HETATM   31  N           1     -25.504  -3.525  -9.663  0.00  0.00    -0.235 N 
HETATM   32  N           1     -23.824  -4.563 -10.684  0.00  0.00    -0.235 N 
HETATM   33  H           1     -26.129  -3.756 -10.475  0.00  0.00     0.174 HD
HETATM   34  H           1     -25.883  -2.987  -8.845  0.00  0.00     0.174 HD
HETATM   35  H           1     -24.446  -4.792 -11.492  0.00  0.00     0.174 HD
HETATM   36  H           1     -22.825  -4.869 -10.690  0.00  0.00     0.174 HD
HETATM   37  H           1     -23.918  -3.080  -7.875  0.00  0.00     0.177 HD
ENDBRANCH  28  29
ENDBRANCH  27  28
ENDBRANCH  26  27
ENDBRANCH  25  26
BRANCH  25  38
HETATM   38  N           1     -19.976  -6.622  -7.009  0.00  0.00    -0.067 N 
HETATM   39  H           1     -19.538  -7.483  -6.614  0.00  0.00     0.275 HD
HETATM   40  H           1     -20.627  -6.885  -7.782  0.00  0.00     0.275 HD
HETATM   41  H           1     -19.230  -5.992  -7.382  0.00  0.00     0.275 HD
ENDBRANCH  25  38
ENDBRANCH   4  25
TORSDOF 18
ENDMDL
MODEL 6
REMARK VINA RESULT:      -6.3     13.834     16.725
REMARK  18 active torsions:
REMARK  status: ('A' for Active; 'I' for Inactive)
REMARK    1  A    between atoms: C_1  and  C_37 
REMARK    2  A    between atoms: C_1  and  C_2 
REMARK    3  A    between atoms: C_1  and  N_39 
REMARK    4  A    between atoms: C_2  and  C_3 
REMARK    5  A    between atoms: C_3  and  C_41 
REMARK    6  A    between atoms: N_4  and  C_5 
REMARK    7  A    between atoms: C_5  and  C_6 
REMARK    8  A    between atoms: C_6  and  C_7 
REMARK    9  A    between atoms: C_7  and  C_8 
REMARK   10  A    between atoms: C_8  and  C_9 
REMARK   11  A    between atoms: C_9  and  C_10 
REMARK   12  A    between atoms: C_9  and  N_13 
REMARK   13  A    between atoms: N_13  and  C_14 
REMARK   14  A    between atoms: C_14  and  C_15 
REMARK   15  A    between atoms: C_15  and  C_24 
REMARK   16  A    between atoms: C_17  and  C_24 
REMARK       I    between atoms: C_21  and  N_22 
REMARK       I    between atoms: C_21  and  N_23 
REMARK   17  A    between atoms: C_24  and  N_36 
REMARK       I    between atoms: N_36  and  C_37 
REMARK   18  A    between atoms: N_40  and  C_41 
ROOT
HETATM    1  H           1     -20.944 -12.498  -4.175  0.00  0.00     0.163 HD
HETATM    2  O           1     -22.460  -9.844  -3.466  0.00  0.00    -0.271 OA
HETATM    3  N           1     -21.227 -11.530  -4.258  0.00  0.00    -0.345 N 
HETATM    4  C           1     -22.121 -11.000  -3.366  0.00  0.00     0.249 C 
ENDROOT
BRANCH   3   5
HETATM    5  C           1     -20.689 -10.705  -5.321  0.00  0.00     0.187 C 
BRANCH   5   6
HETATM    6  C           1     -19.342 -10.140  -4.891  0.00  0.00     0.066 C 
BRANCH   6   7
HETATM    7  C           1     -19.422  -8.620  -4.836  0.00  0.00     0.273 C 
BRANCH   7   8
HETATM    8  N           1     -20.624  -8.179  -5.491  0.00  0.00     0.098 N 
HETATM    9  H           1     -21.436  -8.515  -4.973  0.00  0.00     0.317 HD
BRANCH   8  10
HETATM   10  C           1     -20.618  -6.741  -5.492  0.00  0.00     0.320 C 
BRANCH  10  11
HETATM   11  C           1     -20.796  -6.234  -6.917  0.00  0.00     0.047 C 
BRANCH  11  12
HETATM   12  C           1     -20.111  -4.882  -7.066  0.00  0.00     0.004 C 
BRANCH  12  13
HETATM   13  C           1     -21.162  -3.782  -7.113  0.00  0.00     0.027 C 
BRANCH  13  14
HETATM   14  C           1     -22.245  -4.156  -8.116  0.00  0.00     0.229 C 
BRANCH  14  15
HETATM   15  N           1     -23.570  -4.234  -7.417  0.00  0.00    -0.079 N 
HETATM   16  H           1     -24.317  -3.858  -8.044  0.00  0.00     0.274 HD
HETATM   17  H           1     -23.781  -5.230  -7.183  0.00  0.00     0.274 HD
HETATM   18  H           1     -23.535  -3.668  -6.540  0.00  0.00     0.274 HD
ENDBRANCH  14  15
ENDBRANCH  13  14
ENDBRANCH  12  13
ENDBRANCH  11  12
ENDBRANCH  10  11
BRANCH  10  19
HETATM   19  C           1     -21.750  -6.233  -4.633  0.00  0.00     0.207 C 
HETATM   20  O           1     -22.912  -6.190  -5.092  0.00  0.00    -0.646 OA
HETATM   21  O           1     -21.527  -5.858  -3.462  0.00  0.00    -0.646 OA
ENDBRANCH  10  19
ENDBRANCH   8  10
ENDBRANCH   7   8
ENDBRANCH   6   7
ENDBRANCH   5   6
BRANCH   5  22
HETATM   22  C           1     -20.511 -11.541  -6.565  0.00  0.00     0.196 C 
HETATM   23  O           1     -21.445 -12.267  -6.968  0.00  0.00    -0.646 OA
HETATM   24  O           1     -19.429 -11.509  -7.190  0.00  0.00    -0.646 OA
ENDBRANCH   5  22
ENDBRANCH   3   5
BRANCH   4  25
HETATM   25  C           1     -22.682 -11.859  -2.259  0.00  0.00     0.274 C 
BRANCH  25  26
HETATM   26  C           1     -23.147 -10.970  -1.112  0.00  0.00     0.044 C 
BRANCH  26  27
HETATM   27  C           1     -22.244 -11.184   0.095  0.00  0.00     0.023 C 
BRANCH  27  28
HETATM   28  C           1     -21.361  -9.958   0.292  0.00  0.00     0.138 C 
BRANCH  28  29
HETATM   29  N           1     -22.163  -8.741   0.108  0.00  0.00    -0.227 N 
HETATM   30  C           1     -21.807  -7.869  -0.739  0.00  0.00     0.665 C 
HETATM   31  N           1     -22.499  -6.821  -0.897  0.00  0.00    -0.235 N 
HETATM   32  N           1     -20.732  -8.053  -1.446  0.00  0.00    -0.235 N 
HETATM   33  H           1     -22.203  -6.099  -1.600  0.00  0.00     0.174 HD
HETATM   34  H           1     -23.368  -6.674  -0.326  0.00  0.00     0.174 HD
HETATM   35  H           1     -20.437  -7.334  -2.145  0.00  0.00     0.174 HD
HETATM   36  H           1     -20.162  -8.918  -1.314  0.00  0.00     0.174 HD
HETATM   37  H           1     -23.032  -8.593   0.679  0.00  0.00     0.177 HD
ENDBRANCH  28  29
ENDBRANCH  27  28
ENDBRANCH  26  27
ENDBRANCH  25  26
BRANCH  25  38
HETATM   38  N           1     -21.618 -12.795  -1.765  0.00  0.00    -0.067 N 
HETATM   39  H           1     -21.326 -13.430  -2.541  0.00  0.00     0.275 HD
HETATM   40  H           1     -20.794 -12.243  -1.438  0.00  0.00     0.275 HD
HETATM   41  H           1     -21.995 -13.363  -0.974  0.00  0.00     0.275 HD
ENDBRANCH  25  38
ENDBRANCH   4  25
TORSDOF 18
ENDMDL
MODEL 7
REMARK VINA RESULT:      -6.3     13.598     16.800
REMARK  18 active torsions:
REMARK  status: ('A' for Active; 'I' for Inactive)
REMARK    1  A    between atoms: C_1  and  C_37 
REMARK    2  A    between atoms: C_1  and  C_2 
REMARK    3  A    between atoms: C_1  and  N_39 
REMARK    4  A    between atoms: C_2  and  C_3 
REMARK    5  A    between atoms: C_3  and  C_41 
REMARK    6  A    between atoms: N_4  and  C_5 
REMARK    7  A    between atoms: C_5  and  C_6 
REMARK    8  A    between atoms: C_6  and  C_7 
REMARK    9  A    between atoms: C_7  and  C_8 
REMARK   10  A    between atoms: C_8  and  C_9 
REMARK   11  A    between atoms: C_9  and  C_10 
REMARK   12  A    between atoms: C_9  and  N_13 
REMARK   13  A    between atoms: N_13  and  C_14 
REMARK   14  A    between atoms: C_14  and  C_15 
REMARK   15  A    between atoms: C_15  and  C_24 
REMARK   16  A    between atoms: C_17  and  C_24 
REMARK       I    between atoms: C_21  and  N_22 
REMARK       I    between atoms: C_21  and  N_23 
REMARK   17  A    between atoms: C_24  and  N_36 
REMARK       I    between atoms: N_36  and  C_37 
REMARK   18  A    between atoms: N_40  and  C_41 
ROOT
HETATM    1  H           1     -20.532  -5.743  -3.429  0.00  0.00     0.163 HD
HETATM    2  O           1     -21.579  -7.907  -5.446  0.00  0.00    -0.271 OA
HETATM    3  N           1     -20.927  -6.623  -3.739  0.00  0.00    -0.345 N 
HETATM    4  C           1     -21.107  -6.858  -5.076  0.00  0.00     0.249 C 
ENDROOT
BRANCH   3   5
HETATM    5  C           1     -21.302  -7.631  -2.769  0.00  0.00     0.187 C 
BRANCH   5   6
HETATM    6  C           1     -20.053  -8.350  -2.277  0.00  0.00     0.066 C 
BRANCH   6   7
HETATM    7  C           1     -20.219  -9.852  -2.475  0.00  0.00     0.273 C 
BRANCH   7   8
HETATM    8  N           1     -20.127 -10.164  -3.875  0.00  0.00     0.098 N 
HETATM    9  H           1     -20.752  -9.552  -4.402  0.00  0.00     0.317 HD
BRANCH   8  10
HETATM   10  C           1     -18.770  -9.930  -4.287  0.00  0.00     0.320 C 
BRANCH  10  11
HETATM   11  C           1     -17.878 -11.042  -3.748  0.00  0.00     0.047 C 
BRANCH  11  12
HETATM   12  C           1     -16.538 -10.458  -3.322  0.00  0.00     0.004 C 
BRANCH  12  13
HETATM   13  C           1     -15.529 -10.623  -4.451  0.00  0.00     0.027 C 
BRANCH  13  14
HETATM   14  C           1     -14.843 -11.976  -4.325  0.00  0.00     0.229 C 
BRANCH  14  15
HETATM   15  N           1     -14.739 -12.353  -2.877  0.00  0.00    -0.079 N 
HETATM   16  H           1     -13.994 -11.781  -2.420  0.00  0.00     0.274 HD
HETATM   17  H           1     -15.654 -12.172  -2.405  0.00  0.00     0.274 HD
HETATM   18  H           1     -14.499 -13.366  -2.797  0.00  0.00     0.274 HD
ENDBRANCH  14  15
ENDBRANCH  13  14
ENDBRANCH  12  13
ENDBRANCH  11  12
ENDBRANCH  10  11
BRANCH  10  19
HETATM   19  C           1     -18.698  -9.914  -5.794  0.00  0.00     0.207 C 
HETATM   20  O           1     -19.043 -10.922  -6.447  0.00  0.00    -0.646 OA
HETATM   21  O           1     -18.294  -8.892  -6.390  0.00  0.00    -0.646 OA
ENDBRANCH  10  19
ENDBRANCH   8  10
ENDBRANCH   7   8
ENDBRANCH   6   7
ENDBRANCH   5   6
BRANCH   5  22
HETATM   22  C           1     -21.997  -6.972  -1.603  0.00  0.00     0.196 C 
HETATM   23  O           1     -21.985  -7.518  -0.479  0.00  0.00    -0.646 OA
HETATM   24  O           1     -22.585  -5.880  -1.762  0.00  0.00    -0.646 OA
ENDBRANCH   5  22
ENDBRANCH   3   5
BRANCH   4  25
HETATM   25  C           1     -20.716  -5.807  -6.087  0.00  0.00     0.274 C 
BRANCH  25  26
HETATM   26  C           1     -21.970  -5.141  -6.639  0.00  0.00     0.044 C 
BRANCH  26  27
HETATM   27  C           1     -21.587  -3.854  -7.358  0.00  0.00     0.023 C 
BRANCH  27  28
HETATM   28  C           1     -22.138  -3.883  -8.778  0.00  0.00     0.138 C 
BRANCH  28  29
HETATM   29  N           1     -23.559  -3.507  -8.761  0.00  0.00    -0.227 N 
HETATM   30  C           1     -24.325  -3.881  -9.697  0.00  0.00     0.665 C 
HETATM   31  N           1     -25.549  -3.557  -9.682  0.00  0.00    -0.235 N 
HETATM   32  N           1     -23.854  -4.598 -10.674  0.00  0.00    -0.235 N 
HETATM   33  H           1     -26.183  -3.867 -10.458  0.00  0.00     0.174 HD
HETATM   34  H           1     -25.929  -2.978  -8.892  0.00  0.00     0.174 HD
HETATM   35  H           1     -24.486  -4.906 -11.447  0.00  0.00     0.174 HD
HETATM   36  H           1     -22.844  -4.865 -10.686  0.00  0.00     0.174 HD
HETATM   37  H           1     -23.939  -2.928  -7.971  0.00  0.00     0.177 HD
ENDBRANCH  28  29
ENDBRANCH  27  28
ENDBRANCH  26  27
ENDBRANCH  25  26
BRANCH  25  38
HETATM   38  N           1     -19.958  -6.452  -7.209  0.00  0.00    -0.067 N 
HETATM   39  H           1     -19.390  -7.245  -6.835  0.00  0.00     0.275 HD
HETATM   40  H           1     -20.631  -6.812  -7.922  0.00  0.00     0.275 HD
HETATM   41  H           1     -19.324  -5.748  -7.651  0.00  0.00     0.275 HD
ENDBRANCH  25  38
ENDBRANCH   4  25
TORSDOF 18
ENDMDL
MODEL 8
REMARK VINA RESULT:      -6.3     14.005     17.060
REMARK  18 active torsions:
REMARK  status: ('A' for Active; 'I' for Inactive)
REMARK    1  A    between atoms: C_1  and  C_37 
REMARK    2  A    between atoms: C_1  and  C_2 
REMARK    3  A    between atoms: C_1  and  N_39 
REMARK    4  A    between atoms: C_2  and  C_3 
REMARK    5  A    between atoms: C_3  and  C_41 
REMARK    6  A    between atoms: N_4  and  C_5 
REMARK    7  A    between atoms: C_5  and  C_6 
REMARK    8  A    between atoms: C_6  and  C_7 
REMARK    9  A    between atoms: C_7  and  C_8 
REMARK   10  A    between atoms: C_8  and  C_9 
REMARK   11  A    between atoms: C_9  and  C_10 
REMARK   12  A    between atoms: C_9  and  N_13 
REMARK   13  A    between atoms: N_13  and  C_14 
REMARK   14  A    between atoms: C_14  and  C_15 
REMARK   15  A    between atoms: C_15  and  C_24 
REMARK   16  A    between atoms: C_17  and  C_24 
REMARK       I    between atoms: C_21  and  N_22 
REMARK       I    between atoms: C_21  and  N_23 
REMARK   17  A    between atoms: C_24  and  N_36 
REMARK       I    between atoms: N_36  and  C_37 
REMARK   18  A    between atoms: N_40  and  C_41 
ROOT
HETATM    1  H           1     -19.822  -6.885  -4.449  0.00  0.00     0.163 HD
HETATM    2  O           1     -22.659  -5.944  -5.403  0.00  0.00    -0.271 OA
HETATM    3  N           1     -20.833  -6.830  -4.472  0.00  0.00    -0.345 N 
HETATM    4  C           1     -21.452  -6.009  -5.375  0.00  0.00     0.249 C 
ENDROOT
BRANCH   3   5
HETATM    5  C           1     -21.623  -7.621  -3.550  0.00  0.00     0.187 C 
BRANCH   5   6
HETATM    6  C           1     -21.023  -9.017  -3.437  0.00  0.00     0.066 C 
BRANCH   6   7
HETATM    7  C           1     -19.563  -8.980  -3.871  0.00  0.00     0.273 C 
BRANCH   7   8
HETATM    8  N           1     -18.716  -9.087  -2.714  0.00  0.00     0.098 N 
HETATM    9  H           1     -19.294  -9.163  -1.876  0.00  0.00     0.317 HD
BRANCH   8  10
HETATM   10  C           1     -17.925 -10.278  -2.860  0.00  0.00     0.320 C 
BRANCH  10  11
HETATM   11  C           1     -16.447  -9.917  -2.787  0.00  0.00     0.047 C 
BRANCH  11  12
HETATM   12  C           1     -15.893  -9.754  -4.196  0.00  0.00     0.004 C 
BRANCH  12  13
HETATM   13  C           1     -15.547 -11.122  -4.768  0.00  0.00     0.027 C 
BRANCH  13  14
HETATM   14  C           1     -14.768 -11.924  -3.734  0.00  0.00     0.229 C 
BRANCH  14  15
HETATM   15  N           1     -15.442 -13.245  -3.512  0.00  0.00    -0.079 N 
HETATM   16  H           1     -16.238 -13.347  -4.181  0.00  0.00     0.274 HD
HETATM   17  H           1     -14.755 -14.016  -3.669  0.00  0.00     0.274 HD
HETATM   18  H           1     -15.803 -13.291  -2.533  0.00  0.00     0.274 HD
ENDBRANCH  14  15
ENDBRANCH  13  14
ENDBRANCH  12  13
ENDBRANCH  11  12
ENDBRANCH  10  11
BRANCH  10  19
HETATM   19  C           1     -18.262 -11.244  -1.751  0.00  0.00     0.207 C 
HETATM   20  O           1     -17.535 -12.241  -1.547  0.00  0.00    -0.646 OA
HETATM   21  O           1     -19.267 -11.048  -1.035  0.00  0.00    -0.646 OA
ENDBRANCH  10  19
ENDBRANCH   8  10
ENDBRANCH   7   8
ENDBRANCH   6   7
ENDBRANCH   5   6
BRANCH   5  22
HETATM   22  C           1     -21.622  -6.961  -2.194  0.00  0.00     0.196 C 
HETATM   23  O           1     -22.198  -5.864  -2.032  0.00  0.00    -0.646 OA
HETATM   24  O           1     -21.044  -7.511  -1.231  0.00  0.00    -0.646 OA
ENDBRANCH   5  22
ENDBRANCH   3   5
BRANCH   4  25
HETATM   25  C           1     -20.629  -5.185  -6.336  0.00  0.00     0.274 C 
BRANCH  25  26
HETATM   26  C           1     -21.545  -4.259  -7.125  0.00  0.00     0.044 C 
BRANCH  26  27
HETATM   27  C           1     -21.681  -4.773  -8.552  0.00  0.00     0.023 C 
BRANCH  27  28
HETATM   28  C           1     -22.232  -3.665  -9.441  0.00  0.00     0.138 C 
BRANCH  28  29
HETATM   29  N           1     -23.635  -3.406  -9.090  0.00  0.00    -0.227 N 
HETATM   30  C           1     -24.561  -3.757  -9.879  0.00  0.00     0.665 C 
HETATM   31  N           1     -25.770  -3.534  -9.576  0.00  0.00    -0.235 N 
HETATM   32  N           1     -24.269  -4.347 -11.000  0.00  0.00    -0.235 N 
HETATM   33  H           1     -26.537  -3.826 -10.231  0.00  0.00     0.174 HD
HETATM   34  H           1     -26.005  -3.058  -8.670  0.00  0.00     0.174 HD
HETATM   35  H           1     -25.033  -4.636 -11.652  0.00  0.00     0.174 HD
HETATM   36  H           1     -23.271  -4.530 -11.250  0.00  0.00     0.174 HD
HETATM   37  H           1     -23.871  -2.930  -8.184  0.00  0.00     0.177 HD
ENDBRANCH  28  29
ENDBRANCH  27  28
ENDBRANCH  26  27
ENDBRANCH  25  26
BRANCH  25  38
HETATM   38  N           1     -19.906  -6.097  -7.282  0.00  0.00    -0.067 N 
HETATM   39  H           1     -20.559  -6.405  -8.037  0.00  0.00     0.275 HD
HETATM   40  H           1     -19.098  -5.588  -7.706  0.00  0.00     0.275 HD
HETATM   41  H           1     -19.557  -6.933  -6.761  0.00  0.00     0.275 HD
ENDBRANCH  25  38
ENDBRANCH   4  25
TORSDOF 18
ENDMDL
MODEL 9
REMARK VINA RESULT:      -6.2      1.992      3.289
REMARK  18 active torsions:
REMARK  status: ('A' for Active; 'I' for Inactive)
REMARK    1  A    between atoms: C_1  and  C_37 
REMARK    2  A    between atoms: C_1  and  C_2 
REMARK    3  A    between atoms: C_1  and  N_39 
REMARK    4  A    between atoms: C_2  and  C_3 
REMARK    5  A    between atoms: C_3  and  C_41 
REMARK    6  A    between atoms: N_4  and  C_5 
REMARK    7  A    between atoms: C_5  and  C_6 
REMARK    8  A    between atoms: C_6  and  C_7 
REMARK    9  A    between atoms: C_7  and  C_8 
REMARK   10  A    between atoms: C_8  and  C_9 
REMARK   11  A    between atoms: C_9  and  C_10 
REMARK   12  A    between atoms: C_9  and  N_13 
REMARK   13  A    between atoms: N_13  and  C_14 
REMARK   14  A    between atoms: C_14  and  C_15 
REMARK   15  A    between atoms: C_15  and  C_24 
REMARK   16  A    between atoms: C_17  and  C_24 
REMARK       I    between atoms: C_21  and  N_22 
REMARK       I    between atoms: C_21  and  N_23 
REMARK   17  A    between atoms: C_24  and  N_36 
REMARK       I    between atoms: N_36  and  C_37 
REMARK   18  A    between atoms: N_40  and  C_41 
ROOT
HETATM    1  H           1     -30.957  -4.670 -15.620  0.00  0.00     0.163 HD
HETATM    2  O           1     -31.327  -6.819 -17.876  0.00  0.00    -0.271 OA
HETATM    3  N           1     -31.414  -5.169 -16.373  0.00  0.00    -0.345 N 
HETATM    4  C           1     -30.782  -6.223 -16.977  0.00  0.00     0.249 C 
ENDROOT
BRANCH   3   5
HETATM    5  C           1     -32.735  -4.767 -16.813  0.00  0.00     0.187 C 
BRANCH   5   6
HETATM    6  C           1     -33.685  -4.761 -15.623  0.00  0.00     0.066 C 
BRANCH   6   7
HETATM    7  C           1     -32.918  -4.386 -14.361  0.00  0.00     0.273 C 
BRANCH   7   8
HETATM    8  N           1     -33.844  -3.974 -13.341  0.00  0.00     0.098 N 
HETATM    9  H           1     -34.678  -4.560 -13.382  0.00  0.00     0.317 HD
BRANCH   8  10
HETATM   10  C           1     -33.198  -4.147 -12.068  0.00  0.00     0.320 C 
BRANCH  10  11
HETATM   11  C           1     -33.304  -2.857 -11.266  0.00  0.00     0.047 C 
BRANCH  11  12
HETATM   12  C           1     -34.331  -1.938 -11.914  0.00  0.00     0.004 C 
BRANCH  12  13
HETATM   13  C           1     -35.450  -1.647 -10.922  0.00  0.00     0.027 C 
BRANCH  13  14
HETATM   14  C           1     -36.182  -0.379 -11.341  0.00  0.00     0.229 C 
BRANCH  14  15
HETATM   15  N           1     -36.499   0.441 -10.126  0.00  0.00    -0.079 N 
HETATM   16  H           1     -36.587   1.446 -10.398  0.00  0.00     0.274 HD
HETATM   17  H           1     -37.400   0.113  -9.711  0.00  0.00     0.274 HD
HETATM   18  H           1     -35.732   0.336  -9.425  0.00  0.00     0.274 HD
ENDBRANCH  14  15
ENDBRANCH  13  14
ENDBRANCH  12  13
ENDBRANCH  11  12
ENDBRANCH  10  11
BRANCH  10  19
HETATM   19  C           1     -33.872  -5.266 -11.312  0.00  0.00     0.207 C 
HETATM   20  O           1     -33.223  -6.289 -11.000  0.00  0.00    -0.646 OA
HETATM   21  O           1     -35.077  -5.171 -10.996  0.00  0.00    -0.646 OA
ENDBRANCH  10  19
ENDBRANCH   8  10
ENDBRANCH   7   8
ENDBRANCH   6   7
ENDBRANCH   5   6
BRANCH   5  22
HETATM   22  C           1     -32.667  -3.384 -17.410  0.00  0.00     0.196 C 
HETATM   23  O           1     -33.657  -2.625 -17.344  0.00  0.00    -0.646 OA
HETATM   24  O           1     -31.619  -2.997 -17.972  0.00  0.00    -0.646 OA
ENDBRANCH   5  22
ENDBRANCH   3   5
BRANCH   4  25
HETATM   25  C           1     -29.406  -6.642 -16.518  0.00  0.00     0.274 C 
BRANCH  25  26
HETATM   26  C           1     -28.358  -5.767 -17.192  0.00  0.00     0.044 C 
BRANCH  26  27
HETATM   27  C           1     -28.072  -6.300 -18.590  0.00  0.00     0.023 C 
BRANCH  27  28
HETATM   28  C           1     -26.570  -6.276 -18.845  0.00  0.00     0.138 C 
BRANCH  28  29
HETATM   29  N           1     -25.858  -6.680 -17.624  0.00  0.00    -0.227 N 
HETATM   30  C           1     -24.708  -7.203 -17.705  0.00  0.00     0.665 C 
HETATM   31  N           1     -24.095  -7.550 -16.653  0.00  0.00    -0.235 N 
HETATM   32  N           1     -24.156  -7.380 -18.869  0.00  0.00    -0.235 N 
HETATM   33  H           1     -23.141  -7.983 -16.721  0.00  0.00     0.174 HD
HETATM   34  H           1     -24.541  -7.406 -15.713  0.00  0.00     0.174 HD
HETATM   35  H           1     -23.207  -7.812 -18.936  0.00  0.00     0.174 HD
HETATM   36  H           1     -24.662  -7.093 -19.736  0.00  0.00     0.174 HD
HETATM   37  H           1     -26.304  -6.535 -16.684  0.00  0.00     0.177 HD
ENDBRANCH  28  29
ENDBRANCH  27  28
ENDBRANCH  26  27
ENDBRANCH  25  26
BRANCH  25  38
HETATM   38  N           1     -29.172  -8.077 -16.888  0.00  0.00    -0.067 N 
HETATM   39  H           1     -28.149  -8.239 -17.022  0.00  0.00     0.275 HD
HETATM   40  H           1     -29.525  -8.695 -16.125  0.00  0.00     0.275 HD
HETATM   41  H           1     -29.678  -8.294 -17.776  0.00  0.00     0.275 HD
ENDBRANCH  25  38
ENDBRANCH   4  25
TORSDOF 18
ENDMDL
