MODEL 1
REMARK VINA RESULT:      -6.8      0.000      0.000
REMARK  17 active torsions:
REMARK  status: ('A' for Active; 'I' for Inactive)
REMARK    1  A    between atoms: C_2  and  C_12 
REMARK    2  A    between atoms: C_2  and  C_3 
REMARK    3  A    between atoms: C_2  and  N_7 
REMARK    4  A    between atoms: C_6  and  N_7 
REMARK    5  A    between atoms: C_6  and  C_22 
REMARK    6  A    between atoms: N_9  and  C_10 
REMARK    7  A    between atoms: C_10  and  C_11 
REMARK    8  A    between atoms: C_11  and  C_12 
REMARK    9  A    between atoms: C_13  and  C_30 
REMARK   10  A    between atoms: C_13  and  C_20 
REMARK       I    between atoms: N_16  and  C_17 
REMARK       I    between atoms: C_17  and  N_18 
REMARK   11  A    between atoms: N_18  and  C_19 
REMARK   12  A    between atoms: C_19  and  C_20 
REMARK   13  A    between atoms: C_22  and  C_23 
REMARK   14  A    between atoms: C_23  and  C_24 
REMARK   15  A    between atoms: C_23  and  N_27 
REMARK       I    between atoms: N_27  and  C_28 
REMARK   16  A    between atoms: C_28  and  C_30 
REMARK   17  A    between atoms: C_30  and  N_36 
ROOT
HETATM    1  H           1     -34.524  -1.395 -17.216  0.00  0.00     0.163 HD
HETATM    2  N           1     -34.780  -1.847 -16.349  0.00  0.00    -0.345 N 
HETATM    3  C           1     -34.303  -3.098 -16.061  0.00  0.00     0.249 C 
HETATM    4  O           1     -34.609  -3.638 -15.025  0.00  0.00    -0.271 OA
ENDROOT
BRANCH   2   5
HETATM    5  C           1     -35.653  -1.172 -15.409  0.00  0.00     0.187 C 
BRANCH   5   6
HETATM    6  C           1     -34.826  -0.252 -14.520  0.00  0.00     0.066 C 
BRANCH   6   7
HETATM    7  C           1     -35.416  -0.235 -13.116  0.00  0.00     0.273 C 
BRANCH   7   8
HETATM    8  N           1     -34.391  -0.558 -12.161  0.00  0.00     0.098 N 
HETATM    9  H           1     -34.431   0.102 -11.383  0.00  0.00     0.317 HD
BRANCH   8  10
HETATM   10  C           1     -34.648  -1.887 -11.677  0.00  0.00     0.320 C 
BRANCH  10  11
HETATM   11  C           1     -33.394  -2.433 -11.006  0.00  0.00     0.048 C 
BRANCH  11  12
HETATM   12  C           1     -32.909  -3.664 -11.759  0.00  0.00     0.030 C 
BRANCH  12  13
HETATM   13  C           1     -33.677  -4.889 -11.279  0.00  0.00     0.230 C 
BRANCH  13  14
HETATM   14  N           1     -34.572  -5.381 -12.379  0.00  0.00    -0.079 N 
HETATM   15  H           1     -35.416  -4.769 -12.441  0.00  0.00     0.274 HD
HETATM   16  H           1     -34.054  -5.355 -13.287  0.00  0.00     0.274 HD
HETATM   17  H           1     -34.867  -6.362 -12.174  0.00  0.00     0.274 HD
ENDBRANCH  13  14
ENDBRANCH  12  13
ENDBRANCH  11  12
ENDBRANCH  10  11
BRANCH  10  18
HETATM   18  C           1     -35.777  -1.848 -10.677  0.00  0.00     0.207 C 
HETATM   19  O           1     -35.850  -0.911  -9.853  0.00  0.00    -0.646 OA
HETATM   20  O           1     -36.639  -2.752 -10.673  0.00  0.00    -0.646 OA
ENDBRANCH  10  18
ENDBRANCH   8  10
ENDBRANCH   7   8
ENDBRANCH   6   7
ENDBRANCH   5   6
BRANCH   5  21
HETATM   21  C           1     -36.674  -0.357 -16.165  0.00  0.00     0.196 C 
HETATM   22  O           1     -37.597  -0.931 -16.784  0.00  0.00    -0.646 OA
HETATM   23  O           1     -36.597   0.890 -16.173  0.00  0.00    -0.646 OA
ENDBRANCH   5  21
ENDBRANCH   2   5
BRANCH   3  24
HETATM   24  C           1     -33.394  -3.801 -17.039  0.00  0.00     0.274 C 
BRANCH  24  25
HETATM   25  C           1     -32.634  -4.909 -16.321  0.00  0.00     0.044 C 
BRANCH  25  26
HETATM   26  C           1     -31.136  -4.672 -16.467  0.00  0.00     0.023 C 
BRANCH  26  27
HETATM   27  C           1     -30.472  -5.929 -17.014  0.00  0.00     0.138 C 
BRANCH  27  28
HETATM   28  N           1     -29.194  -6.149 -16.324  0.00  0.00    -0.227 N 
HETATM   29  H           1     -28.752  -5.370 -15.776  0.00  0.00     0.177 HD
HETATM   30  C           1     -28.626  -7.279 -16.390  0.00  0.00     0.665 C 
HETATM   31  N           1     -27.524  -7.469 -15.796  0.00  0.00    -0.235 N 
HETATM   32  N           1     -29.174  -8.243 -17.068  0.00  0.00    -0.235 N 
HETATM   33  H           1     -27.053  -8.405 -15.850  0.00  0.00     0.174 HD
HETATM   34  H           1     -27.081  -6.689 -15.248  0.00  0.00     0.174 HD
HETATM   35  H           1     -30.083  -8.087 -17.558  0.00  0.00     0.174 HD
HETATM   36  H           1     -28.705  -9.176 -17.121  0.00  0.00     0.174 HD
ENDBRANCH  27  28
ENDBRANCH  26  27
ENDBRANCH  25  26
ENDBRANCH  24  25
BRANCH  24  37
HETATM   37  N           1     -32.418  -2.815 -17.611  0.00  0.00    -0.067 N 
HETATM   38  H           1     -31.444  -3.157 -17.451  0.00  0.00     0.275 HD
HETATM   39  H           1     -32.587  -2.714 -18.638  0.00  0.00     0.275 HD
HETATM   40  H           1     -32.544  -1.890 -17.143  0.00  0.00     0.275 HD
ENDBRANCH  24  37
ENDBRANCH   3  24
TORSDOF 17
ENDMDL
MODEL 2
REMARK VINA RESULT:      -6.6      2.235      3.486
REMARK  17 active torsions:
REMARK  status: ('A' for Active; 'I' for Inactive)
REMARK    1  A    between atoms: C_2  and  C_12 
REMARK    2  A    between atoms: C_2  and  C_3 
REMARK    3  A    between atoms: C_2  and  N_7 
REMARK    4  A    between atoms: C_6  and  N_7 
REMARK    5  A    between atoms: C_6  and  C_22 
REMARK    6  A    between atoms: N_9  and  C_10 
REMARK    7  A    between atoms: C_10  and  C_11 
REMARK    8  A    between atoms: C_11  and  C_12 
REMARK    9  A    between atoms: C_13  and  C_30 
REMARK   10  A    between atoms: C_13  and  C_20 
REMARK       I    between atoms: N_16  and  C_17 
REMARK       I    between atoms: C_17  and  N_18 
REMARK   11  A    between atoms: N_18  and  C_19 
REMARK   12  A    between atoms: C_19  and  C_20 
REMARK   13  A    between atoms: C_22  and  C_23 
REMARK   14  A    between atoms: C_23  and  C_24 
REMARK   15  A    between atoms: C_23  and  N_27 
REMARK       I    between atoms: N_27  and  C_28 
REMARK   16  A    between atoms: C_28  and  C_30 
REMARK   17  A    between atoms: C_30  and  N_36 
ROOT
HETATM    1  H           1     -31.823  -3.788 -15.280  0.00  0.00     0.163 HD
HETATM    2  N           1     -32.247  -4.447 -15.921  0.00  0.00    -0.345 N 
HETATM    3  C           1     -31.474  -5.391 -16.543  0.00  0.00     0.249 C 
HETATM    4  O           1     -31.979  -6.177 -17.308  0.00  0.00    -0.271 OA
ENDROOT
BRANCH   2   5
HETATM    5  C           1     -33.672  -4.391 -16.181  0.00  0.00     0.187 C 
BRANCH   5   6
HETATM    6  C           1     -34.433  -4.598 -14.877  0.00  0.00     0.066 C 
BRANCH   6   7
HETATM    7  C           1     -33.618  -4.037 -13.719  0.00  0.00     0.273 C 
BRANCH   7   8
HETATM    8  N           1     -34.320  -2.928 -13.131  0.00  0.00     0.098 N 
HETATM    9  H           1     -35.201  -2.783 -13.626  0.00  0.00     0.317 HD
BRANCH   8  10
HETATM   10  C           1     -34.589  -3.258 -11.758  0.00  0.00     0.320 C 
BRANCH  10  11
HETATM   11  C           1     -33.660  -4.382 -11.317  0.00  0.00     0.048 C 
BRANCH  11  12
HETATM   12  C           1     -34.322  -5.179 -10.201  0.00  0.00     0.030 C 
BRANCH  12  13
HETATM   13  C           1     -34.379  -6.650 -10.592  0.00  0.00     0.230 C 
BRANCH  13  14
HETATM   14  N           1     -34.916  -6.776 -11.987  0.00  0.00    -0.079 N 
HETATM   15  H           1     -35.961  -6.792 -11.958  0.00  0.00     0.274 HD
HETATM   16  H           1     -34.595  -5.962 -12.558  0.00  0.00     0.274 HD
HETATM   17  H           1     -34.566  -7.663 -12.415  0.00  0.00     0.274 HD
ENDBRANCH  13  14
ENDBRANCH  12  13
ENDBRANCH  11  12
ENDBRANCH  10  11
BRANCH  10  18
HETATM   18  C           1     -34.355  -2.043 -10.894  0.00  0.00     0.207 C 
HETATM   19  O           1     -33.190  -1.718 -10.575  0.00  0.00    -0.646 OA
HETATM   20  O           1     -35.324  -1.362 -10.498  0.00  0.00    -0.646 OA
ENDBRANCH  10  18
ENDBRANCH   8  10
ENDBRANCH   7   8
ENDBRANCH   6   7
ENDBRANCH   5   6
BRANCH   5  21
HETATM   21  C           1     -34.026  -3.044 -16.762  0.00  0.00     0.196 C 
HETATM   22  O           1     -33.321  -2.552 -17.671  0.00  0.00    -0.646 OA
HETATM   23  O           1     -35.021  -2.421 -16.336  0.00  0.00    -0.646 OA
ENDBRANCH   5  21
ENDBRANCH   2   5
BRANCH   3  24
HETATM   24  C           1     -29.991  -5.448 -16.273  0.00  0.00     0.274 C 
BRANCH  24  25
HETATM   25  C           1     -29.384  -6.633 -17.013  0.00  0.00     0.044 C 
BRANCH  25  26
HETATM   26  C           1     -28.192  -6.160 -17.837  0.00  0.00     0.023 C 
BRANCH  26  27
HETATM   27  C           1     -27.003  -5.916 -16.917  0.00  0.00     0.138 C 
BRANCH  27  28
HETATM   28  N           1     -25.837  -6.658 -17.417  0.00  0.00    -0.227 N 
HETATM   29  H           1     -25.782  -6.931 -18.429  0.00  0.00     0.177 HD
HETATM   30  C           1     -24.897  -6.966 -16.626  0.00  0.00     0.665 C 
HETATM   31  N           1     -23.892  -7.605 -17.056  0.00  0.00    -0.235 N 
HETATM   32  N           1     -24.965  -6.627 -15.373  0.00  0.00    -0.235 N 
HETATM   33  H           1     -23.113  -7.861 -16.401  0.00  0.00     0.174 HD
HETATM   34  H           1     -23.838  -7.879 -18.069  0.00  0.00     0.174 HD
HETATM   35  H           1     -25.794  -6.099 -15.018  0.00  0.00     0.174 HD
HETATM   36  H           1     -24.188  -6.881 -14.720  0.00  0.00     0.174 HD
ENDBRANCH  27  28
ENDBRANCH  26  27
ENDBRANCH  25  26
ENDBRANCH  24  25
BRANCH  24  37
HETATM   37  N           1     -29.758  -5.608 -14.799  0.00  0.00    -0.067 N 
HETATM   38  H           1     -30.657  -5.859 -14.329  0.00  0.00     0.275 HD
HETATM   39  H           1     -29.057  -6.367 -14.638  0.00  0.00     0.275 HD
HETATM   40  H           1     -29.398  -4.711 -14.404  0.00  0.00     0.275 HD
ENDBRANCH  24  37
ENDBRANCH   3  24
TORSDOF 17
ENDMDL
MODEL 3
REMARK VINA RESULT:      -6.5      5.038     10.823
REMARK  17 active torsions:
REMARK  status: ('A' for Active; 'I' for Inactive)
REMARK    1  A    between atoms: C_2  and  C_12 
REMARK    2  A    between atoms: C_2  and  C_3 
REMARK    3  A    between atoms: C_2  and  N_7 
REMARK    4  A    between atoms: C_6  and  N_7 
REMARK    5  A    between atoms: C_6  and  C_22 
REMARK    6  A    between atoms: N_9  and  C_10 
REMARK    7  A    between atoms: C_10  and  C_11 
REMARK    8  A    between atoms: C_11  and  C_12 
REMARK    9  A    between atoms: C_13  and  C_30 
REMARK   10  A    between atoms: C_13  and  C_20 
REMARK       I    between atoms: N_16  and  C_17 
REMARK       I    between atoms: C_17  and  N_18 
REMARK   11  A    between atoms: N_18  and  C_19 
REMARK   12  A    between atoms: C_19  and  C_20 
REMARK   13  A    between atoms: C_22  and  C_23 
REMARK   14  A    between atoms: C_23  and  C_24 
REMARK   15  A    between atoms: C_23  and  N_27 
REMARK       I    between atoms: N_27  and  C_28 
REMARK   16  A    between atoms: C_28  and  C_30 
REMARK   17  A    between atoms: C_30  and  N_36 
ROOT
HETATM    1  H           1     -28.111  -4.638 -15.934  0.00  0.00     0.163 HD
HETATM    2  N           1     -28.402  -5.347 -16.595  0.00  0.00    -0.345 N 
HETATM    3  C           1     -29.618  -5.243 -17.218  0.00  0.00     0.249 C 
HETATM    4  O           1     -29.966  -6.089 -18.006  0.00  0.00    -0.271 OA
ENDROOT
BRANCH   2   5
HETATM    5  C           1     -27.535  -6.472 -16.883  0.00  0.00     0.187 C 
BRANCH   5   6
HETATM    6  C           1     -26.247  -5.967 -17.521  0.00  0.00     0.066 C 
BRANCH   6   7
HETATM    7  C           1     -26.002  -6.710 -18.828  0.00  0.00     0.273 C 
BRANCH   7   8
HETATM    8  N           1     -27.206  -6.709 -19.613  0.00  0.00     0.098 N 
HETATM    9  H           1     -27.455  -5.749 -19.852  0.00  0.00     0.317 HD
BRANCH   8  10
HETATM   10  C           1     -26.945  -7.452 -20.816  0.00  0.00     0.320 C 
BRANCH  10  11
HETATM   11  C           1     -25.502  -7.940 -20.806  0.00  0.00     0.048 C 
BRANCH  11  12
HETATM   12  C           1     -24.766  -7.372 -22.012  0.00  0.00     0.030 C 
BRANCH  12  13
HETATM   13  C           1     -23.543  -8.229 -22.312  0.00  0.00     0.230 C 
BRANCH  13  14
HETATM   14  N           1     -23.063  -8.876 -21.047  0.00  0.00    -0.079 N 
HETATM   15  H           1     -22.904  -8.143 -20.318  0.00  0.00     0.274 HD
HETATM   16  H           1     -23.783  -9.554 -20.708  0.00  0.00     0.274 HD
HETATM   17  H           1     -22.168  -9.382 -21.232  0.00  0.00     0.274 HD
ENDBRANCH  13  14
ENDBRANCH  12  13
ENDBRANCH  11  12
ENDBRANCH  10  11
BRANCH  10  18
HETATM   18  C           1     -27.876  -8.637 -20.887  0.00  0.00     0.207 C 
HETATM   19  O           1     -27.656  -9.557 -21.704  0.00  0.00    -0.646 OA
HETATM   20  O           1     -28.869  -8.698 -20.131  0.00  0.00    -0.646 OA
ENDBRANCH  10  18
ENDBRANCH   8  10
ENDBRANCH   7   8
ENDBRANCH   6   7
ENDBRANCH   5   6
BRANCH   5  21
HETATM   21  C           1     -27.210  -7.198 -15.600  0.00  0.00     0.196 C 
HETATM   22  O           1     -26.018  -7.389 -15.276  0.00  0.00    -0.646 OA
HETATM   23  O           1     -28.132  -7.609 -14.863  0.00  0.00    -0.646 OA
ENDBRANCH   5  21
ENDBRANCH   2   5
BRANCH   3  24
HETATM   24  C           1     -30.521  -4.073 -16.919  0.00  0.00     0.274 C 
BRANCH  24  25
HETATM   25  C           1     -31.949  -4.568 -16.730  0.00  0.00     0.044 C 
BRANCH  25  26
HETATM   26  C           1     -32.915  -3.600 -17.404  0.00  0.00     0.023 C 
BRANCH  26  27
HETATM   27  C           1     -34.078  -3.306 -16.467  0.00  0.00     0.138 C 
BRANCH  27  28
HETATM   28  N           1     -35.015  -2.382 -17.123  0.00  0.00    -0.227 N 
HETATM   29  H           1     -35.335  -2.569 -18.105  0.00  0.00     0.177 HD
HETATM   30  C           1     -35.436  -1.362 -16.502  0.00  0.00     0.665 C 
HETATM   31  N           1     -36.241  -0.566 -17.067  0.00  0.00    -0.235 N 
HETATM   32  N           1     -35.039  -1.132 -15.286  0.00  0.00    -0.235 N 
HETATM   33  H           1     -36.590   0.280 -16.554  0.00  0.00     0.174 HD
HETATM   34  H           1     -36.561  -0.752 -18.051  0.00  0.00     0.174 HD
HETATM   35  H           1     -34.373  -1.789 -14.820  0.00  0.00     0.174 HD
HETATM   36  H           1     -35.386  -0.289 -14.774  0.00  0.00     0.174 HD
ENDBRANCH  27  28
ENDBRANCH  26  27
ENDBRANCH  25  26
ENDBRANCH  24  25
BRANCH  24  37
HETATM   37  N           1     -30.476  -3.102 -18.062  0.00  0.00    -0.067 N 
HETATM   38  H           1     -31.097  -2.288 -17.852  0.00  0.00     0.275 HD
HETATM   39  H           1     -29.495  -2.767 -18.195  0.00  0.00     0.275 HD
HETATM   40  H           1     -30.805  -3.575 -18.933  0.00  0.00     0.275 HD
ENDBRANCH  24  37
ENDBRANCH   3  24
TORSDOF 17
ENDMDL
MODEL 4
REMARK VINA RESULT:      -6.5      2.358      7.146
REMARK  17 active torsions:
REMARK  status: ('A' for Active; 'I' for Inactive)
REMARK    1  A    between atoms: C_2  and  C_12 
REMARK    2  A    between atoms: C_2  and  C_3 
REMARK    3  A    between atoms: C_2  and  N_7 
REMARK    4  A    between atoms: C_6  and  N_7 
REMARK    5  A    between atoms: C_6  and  C_22 
REMARK    6  A    between atoms: N_9  and  C_10 
REMARK    7  A    between atoms: C_10  and  C_11 
REMARK    8  A    between atoms: C_11  and  C_12 
REMARK    9  A    between atoms: C_13  and  C_30 
REMARK   10  A    between atoms: C_13  and  C_20 
REMARK       I    between atoms: N_16  and  C_17 
REMARK       I    between atoms: C_17  and  N_18 
REMARK   11  A    between atoms: N_18  and  C_19 
REMARK   12  A    between atoms: C_19  and  C_20 
REMARK   13  A    between atoms: C_22  and  C_23 
REMARK   14  A    between atoms: C_23  and  C_24 
REMARK   15  A    between atoms: C_23  and  N_27 
REMARK       I    between atoms: N_27  and  C_28 
REMARK   16  A    between atoms: C_28  and  C_30 
REMARK   17  A    between atoms: C_30  and  N_36 
ROOT
HETATM    1  H           1     -33.967  -1.522 -15.108  0.00  0.00     0.163 HD
HETATM    2  N           1     -34.707  -1.693 -15.776  0.00  0.00    -0.345 N 
HETATM    3  C           1     -35.633  -0.719 -16.038  0.00  0.00     0.249 C 
HETATM    4  O           1     -36.516  -0.923 -16.835  0.00  0.00    -0.271 OA
ENDROOT
BRANCH   2   5
HETATM    5  C           1     -34.788  -2.970 -16.459  0.00  0.00     0.187 C 
BRANCH   5   6
HETATM    6  C           1     -33.723  -3.031 -17.547  0.00  0.00     0.066 C 
BRANCH   6   7
HETATM    7  C           1     -32.441  -3.618 -16.972  0.00  0.00     0.273 C 
BRANCH   7   8
HETATM    8  N           1     -31.324  -3.219 -17.785  0.00  0.00     0.098 N 
HETATM    9  H           1     -31.160  -2.219 -17.670  0.00  0.00     0.317 HD
BRANCH   8  10
HETATM   10  C           1     -30.171  -3.950 -17.333  0.00  0.00     0.320 C 
BRANCH  10  11
HETATM   11  C           1     -29.758  -4.955 -18.401  0.00  0.00     0.048 C 
BRANCH  11  12
HETATM   12  C           1     -30.051  -6.367 -17.909  0.00  0.00     0.030 C 
BRANCH  12  13
HETATM   13  C           1     -29.258  -6.637 -16.637  0.00  0.00     0.230 C 
BRANCH  13  14
HETATM   14  N           1     -27.796  -6.701 -16.963  0.00  0.00    -0.079 N 
HETATM   15  H           1     -27.558  -5.949 -17.648  0.00  0.00     0.274 HD
HETATM   16  H           1     -27.238  -6.566 -16.089  0.00  0.00     0.274 HD
HETATM   17  H           1     -27.572  -7.634 -17.379  0.00  0.00     0.274 HD
ENDBRANCH  13  14
ENDBRANCH  12  13
ENDBRANCH  11  12
ENDBRANCH  10  11
BRANCH  10  18
HETATM   18  C           1     -29.035  -2.990 -17.080  0.00  0.00     0.207 C 
HETATM   19  O           1     -27.924  -3.421 -16.701  0.00  0.00    -0.646 OA
HETATM   20  O           1     -29.204  -1.763 -17.249  0.00  0.00    -0.646 OA
ENDBRANCH  10  18
ENDBRANCH   8  10
ENDBRANCH   7   8
ENDBRANCH   6   7
ENDBRANCH   5   6
BRANCH   5  21
HETATM   21  C           1     -34.558  -4.085 -15.468  0.00  0.00     0.196 C 
HETATM   22  O           1     -34.024  -3.840 -14.364  0.00  0.00    -0.646 OA
HETATM   23  O           1     -34.901  -5.254 -15.751  0.00  0.00    -0.646 OA
ENDBRANCH   5  21
ENDBRANCH   2   5
BRANCH   3  24
HETATM   24  C           1     -35.549   0.610 -15.328  0.00  0.00     0.274 C 
BRANCH  24  25
HETATM   25  C           1     -36.127   0.474 -13.925  0.00  0.00     0.044 C 
BRANCH  25  26
HETATM   26  C           1     -34.991   0.330 -12.920  0.00  0.00     0.023 C 
BRANCH  26  27
HETATM   27  C           1     -35.328  -0.772 -11.924  0.00  0.00     0.138 C 
BRANCH  27  28
HETATM   28  N           1     -34.455  -1.930 -12.161  0.00  0.00    -0.227 N 
HETATM   29  H           1     -34.451  -2.402 -13.098  0.00  0.00     0.177 HD
HETATM   30  C           1     -33.708  -2.359 -11.233  0.00  0.00     0.665 C 
HETATM   31  N           1     -32.956  -3.357 -11.436  0.00  0.00    -0.235 N 
HETATM   32  N           1     -33.713  -1.774 -10.072  0.00  0.00    -0.235 N 
HETATM   33  H           1     -32.337  -3.713 -10.667  0.00  0.00     0.174 HD
HETATM   34  H           1     -32.952  -3.829 -12.374  0.00  0.00     0.174 HD
HETATM   35  H           1     -34.334  -0.950  -9.904  0.00  0.00     0.174 HD
HETATM   36  H           1     -33.096  -2.128  -9.306  0.00  0.00     0.174 HD
ENDBRANCH  27  28
ENDBRANCH  26  27
ENDBRANCH  25  26
ENDBRANCH  24  25
BRANCH  24  37
HETATM   37  N           1     -36.332   1.636 -16.094  0.00  0.00    -0.067 N 
HETATM   38  H           1     -35.684   2.186 -16.702  0.00  0.00     0.275 HD
HETATM   39  H           1     -37.045   1.156 -16.689  0.00  0.00     0.275 HD
HETATM   40  H           1     -36.811   2.278 -15.424  0.00  0.00     0.275 HD
ENDBRANCH  24  37
ENDBRANCH   3  24
TORSDOF 17
ENDMDL
MODEL 5
REMARK VINA RESULT:      -6.4      6.123     10.478
REMARK  17 active torsions:
REMARK  status: ('A' for Active; 'I' for Inactive)
REMARK    1  A    between atoms: C_2  and  C_12 
REMARK    2  A    between atoms: C_2  and  C_3 
REMARK    3  A    between atoms: C_2  and  N_7 
REMARK    4  A    between atoms: C_6  and  N_7 
REMARK    5  A    between atoms: C_6  and  C_22 
REMARK    6  A    between atoms: N_9  and  C_10 
REMARK    7  A    between atoms: C_10  and  C_11 
REMARK    8  A    between atoms: C_11  and  C_12 
REMARK    9  A    between atoms: C_13  and  C_30 
REMARK   10  A    between atoms: C_13  and  C_20 
REMARK       I    between atoms: N_16  and  C_17 
REMARK       I    between atoms: C_17  and  N_18 
REMARK   11  A    between atoms: N_18  and  C_19 
REMARK   12  A    between atoms: C_19  and  C_20 
REMARK   13  A    between atoms: C_22  and  C_23 
REMARK   14  A    between atoms: C_23  and  C_24 
REMARK   15  A    between atoms: C_23  and  N_27 
REMARK       I    between atoms: N_27  and  C_28 
REMARK   16  A    between atoms: C_28  and  C_30 
REMARK   17  A    between atoms: C_30  and  N_36 
ROOT
HETATM    1  H           1     -27.764  -4.843 -15.597  0.00  0.00     0.163 HD
HETATM    2  N           1     -27.871  -5.254 -16.515  0.00  0.00    -0.345 N 
HETATM    3  C           1     -28.760  -4.715 -17.407  0.00  0.00     0.249 C 
HETATM    4  O           1     -28.889  -5.205 -18.502  0.00  0.00    -0.271 OA
ENDROOT
BRANCH   2   5
HETATM    5  C           1     -27.086  -6.414 -16.887  0.00  0.00     0.187 C 
BRANCH   5   6
HETATM    6  C           1     -25.795  -5.959 -17.555  0.00  0.00     0.066 C 
BRANCH   6   7
HETATM    7  C           1     -25.610  -6.707 -18.868  0.00  0.00     0.273 C 
BRANCH   7   8
HETATM    8  N           1     -26.846  -6.700 -19.603  0.00  0.00     0.098 N 
HETATM    9  H           1     -27.111  -5.737 -19.812  0.00  0.00     0.317 HD
BRANCH   8  10
HETATM   10  C           1     -26.629  -7.416 -20.830  0.00  0.00     0.320 C 
BRANCH  10  11
HETATM   11  C           1     -25.211  -7.971 -20.849  0.00  0.00     0.048 C 
BRANCH  11  12
HETATM   12  C           1     -24.499  -7.502 -22.111  0.00  0.00     0.030 C 
BRANCH  12  13
HETATM   13  C           1     -23.228  -8.318 -22.312  0.00  0.00     0.230 C 
BRANCH  13  14
HETATM   14  N           1     -22.830  -8.952 -21.012  0.00  0.00    -0.079 N 
HETATM   15  H           1     -22.498  -9.927 -21.186  0.00  0.00     0.274 HD
HETATM   16  H           1     -22.061  -8.395 -20.574  0.00  0.00     0.274 HD
HETATM   17  H           1     -23.654  -8.973 -20.369  0.00  0.00     0.274 HD
ENDBRANCH  13  14
ENDBRANCH  12  13
ENDBRANCH  11  12
ENDBRANCH  10  11
BRANCH  10  18
HETATM   18  C           1     -27.616  -8.554 -20.929  0.00  0.00     0.207 C 
HETATM   19  O           1     -27.413  -9.489 -21.734  0.00  0.00    -0.646 OA
HETATM   20  O           1     -28.636  -8.561 -20.208  0.00  0.00    -0.646 OA
ENDBRANCH  10  18
ENDBRANCH   8  10
ENDBRANCH   7   8
ENDBRANCH   6   7
ENDBRANCH   5   6
BRANCH   5  21
HETATM   21  C           1     -26.758  -7.218 -15.652  0.00  0.00     0.196 C 
HETATM   22  O           1     -25.565  -7.408 -15.331  0.00  0.00    -0.646 OA
HETATM   23  O           1     -27.678  -7.693 -14.952  0.00  0.00    -0.646 OA
ENDBRANCH   5  21
ENDBRANCH   2   5
BRANCH   3  24
HETATM   24  C           1     -29.577  -3.507 -17.020  0.00  0.00     0.274 C 
BRANCH  24  25
HETATM   25  C           1     -30.973  -3.625 -17.619  0.00  0.00     0.044 C 
BRANCH  25  26
HETATM   26  C           1     -31.869  -4.408 -16.668  0.00  0.00     0.023 C 
BRANCH  26  27
HETATM   27  C           1     -32.134  -5.793 -17.243  0.00  0.00     0.138 C 
BRANCH  27  28
HETATM   28  N           1     -31.059  -6.708 -16.833  0.00  0.00    -0.227 N 
HETATM   29  H           1     -30.694  -6.683 -15.850  0.00  0.00     0.177 HD
HETATM   30  C           1     -30.574  -7.528 -17.668  0.00  0.00     0.665 C 
HETATM   31  N           1     -29.648  -8.315 -17.316  0.00  0.00    -0.235 N 
HETATM   32  N           1     -31.027  -7.559 -18.886  0.00  0.00    -0.235 N 
HETATM   33  H           1     -29.245  -8.995 -18.007  0.00  0.00     0.174 HD
HETATM   34  H           1     -29.282  -8.289 -16.331  0.00  0.00     0.174 HD
HETATM   35  H           1     -31.792  -6.909 -19.177  0.00  0.00     0.174 HD
HETATM   36  H           1     -30.626  -8.236 -19.575  0.00  0.00     0.174 HD
ENDBRANCH  27  28
ENDBRANCH  26  27
ENDBRANCH  25  26
ENDBRANCH  24  25
BRANCH  24  37
HETATM   37  N           1     -28.913  -2.267 -17.540  0.00  0.00    -0.067 N 
HETATM   38  H           1     -29.390  -1.958 -18.417  0.00  0.00     0.275 HD
HETATM   39  H           1     -28.979  -1.509 -16.823  0.00  0.00     0.275 HD
HETATM   40  H           1     -27.909  -2.469 -17.743  0.00  0.00     0.275 HD
ENDBRANCH  24  37
ENDBRANCH   3  24
TORSDOF 17
ENDMDL
MODEL 6
REMARK VINA RESULT:      -6.3     14.990     17.567
REMARK  17 active torsions:
REMARK  status: ('A' for Active; 'I' for Inactive)
REMARK    1  A    between atoms: C_2  and  C_12 
REMARK    2  A    between atoms: C_2  and  C_3 
REMARK    3  A    between atoms: C_2  and  N_7 
REMARK    4  A    between atoms: C_6  and  N_7 
REMARK    5  A    between atoms: C_6  and  C_22 
REMARK    6  A    between atoms: N_9  and  C_10 
REMARK    7  A    between atoms: C_10  and  C_11 
REMARK    8  A    between atoms: C_11  and  C_12 
REMARK    9  A    between atoms: C_13  and  C_30 
REMARK   10  A    between atoms: C_13  and  C_20 
REMARK       I    between atoms: N_16  and  C_17 
REMARK       I    between atoms: C_17  and  N_18 
REMARK   11  A    between atoms: N_18  and  C_19 
REMARK   12  A    between atoms: C_19  and  C_20 
REMARK   13  A    between atoms: C_22  and  C_23 
REMARK   14  A    between atoms: C_23  and  C_24 
REMARK   15  A    between atoms: C_23  and  N_27 
REMARK       I    between atoms: N_27  and  C_28 
REMARK   16  A    between atoms: C_28  and  C_30 
REMARK   17  A    between atoms: C_30  and  N_36 
ROOT
HETATM    1  H           1     -21.523  -7.715  -4.092  0.00  0.00     0.163 HD
HETATM    2  N           1     -20.718  -7.851  -4.689  0.00  0.00    -0.345 N 
HETATM    3  C           1     -20.535  -7.051  -5.785  0.00  0.00     0.249 C 
HETATM    4  O           1     -19.574  -7.214  -6.498  0.00  0.00    -0.271 OA
ENDROOT
BRANCH   2   5
HETATM    5  C           1     -19.757  -8.893  -4.384  0.00  0.00     0.187 C 
BRANCH   5   6
HETATM    6  C           1     -19.658  -9.065  -2.874  0.00  0.00     0.066 C 
BRANCH   6   7
HETATM    7  C           1     -20.890  -8.462  -2.212  0.00  0.00     0.273 C 
BRANCH   7   8
HETATM    8  N           1     -21.709  -9.514  -1.673  0.00  0.00     0.098 N 
HETATM    9  H           1     -21.142 -10.352  -1.541  0.00  0.00     0.317 HD
BRANCH   8  10
HETATM   10  C           1     -22.210  -9.070  -0.400  0.00  0.00     0.320 C 
BRANCH  10  11
HETATM   11  C           1     -23.509  -9.801  -0.084  0.00  0.00     0.048 C 
BRANCH  11  12
HETATM   12  C           1     -23.627 -11.033  -0.972  0.00  0.00     0.030 C 
BRANCH  12  13
HETATM   13  C           1     -23.548 -12.288  -0.114  0.00  0.00     0.230 C 
BRANCH  13  14
HETATM   14  N           1     -22.184 -12.899  -0.245  0.00  0.00    -0.079 N 
HETATM   15  H           1     -22.091 -13.692   0.430  0.00  0.00     0.274 HD
HETATM   16  H           1     -22.054 -13.254  -1.220  0.00  0.00     0.274 HD
HETATM   17  H           1     -21.458 -12.178  -0.037  0.00  0.00     0.274 HD
ENDBRANCH  13  14
ENDBRANCH  12  13
ENDBRANCH  11  12
ENDBRANCH  10  11
BRANCH  10  18
HETATM   18  C           1     -21.192  -9.366   0.672  0.00  0.00     0.207 C 
HETATM   19  O           1     -20.559 -10.444   0.653  0.00  0.00    -0.646 OA
HETATM   20  O           1     -20.980  -8.534   1.580  0.00  0.00    -0.646 OA
ENDBRANCH  10  18
ENDBRANCH   8  10
ENDBRANCH   7   8
ENDBRANCH   6   7
ENDBRANCH   5   6
BRANCH   5  21
HETATM   21  C           1     -20.206 -10.191  -5.010  0.00  0.00     0.196 C 
HETATM   22  O           1     -21.120 -10.858  -4.477  0.00  0.00    -0.646 OA
HETATM   23  O           1     -19.665 -10.599  -6.061  0.00  0.00    -0.646 OA
ENDBRANCH   5  21
ENDBRANCH   2   5
BRANCH   3  24
HETATM   24  C           1     -21.534  -5.967  -6.102  0.00  0.00     0.274 C 
BRANCH  24  25
HETATM   25  C           1     -20.816  -4.628  -6.207  0.00  0.00     0.044 C 
BRANCH  25  26
HETATM   26  C           1     -21.585  -3.712  -7.151  0.00  0.00     0.023 C 
BRANCH  26  27
HETATM   27  C           1     -22.355  -4.552  -8.162  0.00  0.00     0.138 C 
BRANCH  27  28
HETATM   28  N           1     -23.696  -3.982  -8.353  0.00  0.00    -0.227 N 
HETATM   29  H           1     -24.182  -3.503  -7.556  0.00  0.00     0.177 HD
HETATM   30  C           1     -24.264  -4.068  -9.482  0.00  0.00     0.665 C 
HETATM   31  N           1     -25.419  -3.577  -9.647  0.00  0.00    -0.235 N 
HETATM   32  N           1     -23.662  -4.661 -10.469  0.00  0.00    -0.235 N 
HETATM   33  H           1     -25.891  -3.649 -10.582  0.00  0.00     0.174 HD
HETATM   34  H           1     -25.906  -3.098  -8.849  0.00  0.00     0.174 HD
HETATM   35  H           1     -22.708  -5.066 -10.332  0.00  0.00     0.174 HD
HETATM   36  H           1     -24.132  -4.732 -11.400  0.00  0.00     0.174 HD
ENDBRANCH  27  28
ENDBRANCH  26  27
ENDBRANCH  25  26
ENDBRANCH  24  25
BRANCH  24  37
HETATM   37  N           1     -22.561  -5.899  -5.010  0.00  0.00    -0.067 N 
HETATM   38  H           1     -23.320  -5.237  -5.286  0.00  0.00     0.275 HD
HETATM   39  H           1     -22.967  -6.850  -4.855  0.00  0.00     0.275 HD
HETATM   40  H           1     -22.110  -5.564  -4.130  0.00  0.00     0.275 HD
ENDBRANCH  24  37
ENDBRANCH   3  24
TORSDOF 17
ENDMDL
MODEL 7
REMARK VINA RESULT:      -6.2      6.131     11.576
REMARK  17 active torsions:
REMARK  status: ('A' for Active; 'I' for Inactive)
REMARK    1  A    between atoms: C_2  and  C_12 
REMARK    2  A    between atoms: C_2  and  C_3 
REMARK    3  A    between atoms: C_2  and  N_7 
REMARK    4  A    between atoms: C_6  and  N_7 
REMARK    5  A    between atoms: C_6  and  C_22 
REMARK    6  A    between atoms: N_9  and  C_10 
REMARK    7  A    between atoms: C_10  and  C_11 
REMARK    8  A    between atoms: C_11  and  C_12 
REMARK    9  A    between atoms: C_13  and  C_30 
REMARK   10  A    between atoms: C_13  and  C_20 
REMARK       I    between atoms: N_16  and  C_17 
REMARK       I    between atoms: C_17  and  N_18 
REMARK   11  A    between atoms: N_18  and  C_19 
REMARK   12  A    between atoms: C_19  and  C_20 
REMARK   13  A    between atoms: C_22  and  C_23 
REMARK   14  A    between atoms: C_23  and  C_24 
REMARK   15  A    between atoms: C_23  and  N_27 
REMARK       I    between atoms: N_27  and  C_28 
REMARK   16  A    between atoms: C_28  and  C_30 
REMARK   17  A    between atoms: C_30  and  N_36 
ROOT
HETATM    1  H           1     -26.566  -5.836 -18.527  0.00  0.00     0.163 HD
HETATM    2  N           1     -26.613  -6.420 -17.702  0.00  0.00    -0.345 N 
HETATM    3  C           1     -27.812  -6.618 -17.070  0.00  0.00     0.249 C 
HETATM    4  O           1     -27.869  -7.314 -16.086  0.00  0.00    -0.271 OA
ENDROOT
BRANCH   2   5
HETATM    5  C           1     -25.412  -7.047 -17.187  0.00  0.00     0.187 C 
BRANCH   5   6
HETATM    6  C           1     -24.231  -6.689 -18.081  0.00  0.00     0.066 C 
BRANCH   6   7
HETATM    7  C           1     -24.338  -7.454 -19.394  0.00  0.00     0.273 C 
BRANCH   7   8
HETATM    8  N           1     -24.735  -6.555 -20.443  0.00  0.00     0.098 N 
HETATM    9  H           1     -23.925  -6.017 -20.753  0.00  0.00     0.317 HD
BRANCH   8  10
HETATM   10  C           1     -25.232  -7.347 -21.534  0.00  0.00     0.320 C 
BRANCH  10  11
HETATM   11  C           1     -24.289  -8.517 -21.782  0.00  0.00     0.048 C 
BRANCH  11  12
HETATM   12  C           1     -23.318  -8.159 -22.899  0.00  0.00     0.030 C 
BRANCH  12  13
HETATM   13  C           1     -22.007  -8.907 -22.694  0.00  0.00     0.230 C 
BRANCH  13  14
HETATM   14  N           1     -21.684  -8.958 -21.230  0.00  0.00    -0.079 N 
HETATM   15  H           1     -22.294  -9.664 -20.761  0.00  0.00     0.274 HD
HETATM   16  H           1     -20.681  -9.226 -21.104  0.00  0.00     0.274 HD
HETATM   17  H           1     -21.849  -8.018 -20.805  0.00  0.00     0.274 HD
ENDBRANCH  13  14
ENDBRANCH  12  13
ENDBRANCH  11  12
ENDBRANCH  10  11
BRANCH  10  18
HETATM   18  C           1     -26.605  -7.872 -21.190  0.00  0.00     0.207 C 
HETATM   19  O           1     -27.364  -7.202 -20.456  0.00  0.00    -0.646 OA
HETATM   20  O           1     -26.983  -8.975 -21.637  0.00  0.00    -0.646 OA
ENDBRANCH  10  18
ENDBRANCH   8  10
ENDBRANCH   7   8
ENDBRANCH   6   7
ENDBRANCH   5   6
BRANCH   5  21
HETATM   21  C           1     -25.148  -6.554 -15.785  0.00  0.00     0.196 C 
HETATM   22  O           1     -25.164  -5.328 -15.541  0.00  0.00    -0.646 OA
HETATM   23  O           1     -24.913  -7.371 -14.868  0.00  0.00    -0.646 OA
ENDBRANCH   5  21
ENDBRANCH   2   5
BRANCH   3  24
HETATM   24  C           1     -29.063  -5.966 -17.606  0.00  0.00     0.274 C 
BRANCH  24  25
HETATM   25  C           1     -30.043  -7.040 -18.058  0.00  0.00     0.044 C 
BRANCH  25  26
HETATM   26  C           1     -31.441  -6.695 -17.557  0.00  0.00     0.023 C 
BRANCH  26  27
HETATM   27  C           1     -31.371  -5.465 -16.661  0.00  0.00     0.138 C 
BRANCH  27  28
HETATM   28  N           1     -32.623  -4.704 -16.775  0.00  0.00    -0.227 N 
HETATM   29  H           1     -33.517  -5.103 -16.397  0.00  0.00     0.177 HD
HETATM   30  C           1     -32.623  -3.566 -17.330  0.00  0.00     0.665 C 
HETATM   31  N           1     -33.700  -2.910 -17.429  0.00  0.00    -0.235 N 
HETATM   32  N           1     -31.515  -3.072 -17.798  0.00  0.00    -0.235 N 
HETATM   33  H           1     -33.701  -1.966 -17.889  0.00  0.00     0.174 HD
HETATM   34  H           1     -34.596  -3.310 -17.051  0.00  0.00     0.174 HD
HETATM   35  H           1     -30.625  -3.613 -17.716  0.00  0.00     0.174 HD
HETATM   36  H           1     -31.515  -2.132 -18.256  0.00  0.00     0.174 HD
ENDBRANCH  27  28
ENDBRANCH  26  27
ENDBRANCH  25  26
ENDBRANCH  24  25
BRANCH  24  37
HETATM   37  N           1     -28.709  -5.090 -18.772  0.00  0.00    -0.067 N 
HETATM   38  H           1     -27.827  -4.570 -18.562  0.00  0.00     0.275 HD
HETATM   39  H           1     -28.570  -5.683 -19.622  0.00  0.00     0.275 HD
HETATM   40  H           1     -29.482  -4.410 -18.943  0.00  0.00     0.275 HD
ENDBRANCH  24  37
ENDBRANCH   3  24
TORSDOF 17
ENDMDL
MODEL 8
REMARK VINA RESULT:      -6.2     14.976     18.034
REMARK  17 active torsions:
REMARK  status: ('A' for Active; 'I' for Inactive)
REMARK    1  A    between atoms: C_2  and  C_12 
REMARK    2  A    between atoms: C_2  and  C_3 
REMARK    3  A    between atoms: C_2  and  N_7 
REMARK    4  A    between atoms: C_6  and  N_7 
REMARK    5  A    between atoms: C_6  and  C_22 
REMARK    6  A    between atoms: N_9  and  C_10 
REMARK    7  A    between atoms: C_10  and  C_11 
REMARK    8  A    between atoms: C_11  and  C_12 
REMARK    9  A    between atoms: C_13  and  C_30 
REMARK   10  A    between atoms: C_13  and  C_20 
REMARK       I    between atoms: N_16  and  C_17 
REMARK       I    between atoms: C_17  and  N_18 
REMARK   11  A    between atoms: N_18  and  C_19 
REMARK   12  A    between atoms: C_19  and  C_20 
REMARK   13  A    between atoms: C_22  and  C_23 
REMARK   14  A    between atoms: C_23  and  C_24 
REMARK   15  A    between atoms: C_23  and  N_27 
REMARK       I    between atoms: N_27  and  C_28 
REMARK   16  A    between atoms: C_28  and  C_30 
REMARK   17  A    between atoms: C_30  and  N_36 
ROOT
HETATM    1  H           1     -19.903  -6.994  -3.683  0.00  0.00     0.163 HD
HETATM    2  N           1     -20.902  -6.954  -3.840  0.00  0.00    -0.345 N 
HETATM    3  C           1     -21.400  -6.252  -4.905  0.00  0.00     0.249 C 
HETATM    4  O           1     -22.592  -6.203  -5.093  0.00  0.00    -0.271 OA
ENDROOT
BRANCH   2   5
HETATM    5  C           1     -21.806  -7.640  -2.938  0.00  0.00     0.187 C 
BRANCH   5   6
HETATM    6  C           1     -21.168  -8.942  -2.474  0.00  0.00     0.066 C 
BRANCH   6   7
HETATM    7  C           1     -19.654  -8.776  -2.420  0.00  0.00     0.273 C 
BRANCH   7   8
HETATM    8  N           1     -19.027  -9.870  -3.111  0.00  0.00     0.098 N 
HETATM    9  H           1     -19.741 -10.437  -3.568  0.00  0.00     0.317 HD
BRANCH   8  10
HETATM   10  C           1     -18.146  -9.314  -4.102  0.00  0.00     0.320 C 
BRANCH  10  11
HETATM   11  C           1     -16.795 -10.012  -4.028  0.00  0.00     0.048 C 
BRANCH  11  12
HETATM   12  C           1     -16.262  -9.939  -2.603  0.00  0.00     0.030 C 
BRANCH  12  13
HETATM   13  C           1     -15.701 -11.296  -2.199  0.00  0.00     0.230 C 
BRANCH  13  14
HETATM   14  N           1     -15.972 -11.536  -0.744  0.00  0.00    -0.079 N 
HETATM   15  H           1     -15.085 -11.811  -0.264  0.00  0.00     0.274 HD
HETATM   16  H           1     -16.346 -10.661  -0.310  0.00  0.00     0.274 HD
HETATM   17  H           1     -16.675 -12.303  -0.643  0.00  0.00     0.274 HD
ENDBRANCH  13  14
ENDBRANCH  12  13
ENDBRANCH  11  12
ENDBRANCH  10  11
BRANCH  10  18
HETATM   18  C           1     -18.743  -9.515  -5.473  0.00  0.00     0.207 C 
HETATM   19  O           1     -18.005  -9.808  -6.439  0.00  0.00    -0.646 OA
HETATM   20  O           1     -19.974  -9.390  -5.644  0.00  0.00    -0.646 OA
ENDBRANCH  10  18
ENDBRANCH   8  10
ENDBRANCH   7   8
ENDBRANCH   6   7
ENDBRANCH   5   6
BRANCH   5  21
HETATM   21  C           1     -22.086  -6.763  -1.743  0.00  0.00     0.196 C 
HETATM   22  O           1     -22.069  -5.518  -1.864  0.00  0.00    -0.646 OA
HETATM   23  O           1     -22.335  -7.279  -0.632  0.00  0.00    -0.646 OA
ENDBRANCH   5  21
ENDBRANCH   2   5
BRANCH   3  24
HETATM   24  C           1     -20.459  -5.538  -5.843  0.00  0.00     0.274 C 
BRANCH  24  25
HETATM   25  C           1     -21.215  -4.448  -6.591  0.00  0.00     0.044 C 
BRANCH  25  26
HETATM   26  C           1     -20.468  -4.099  -7.873  0.00  0.00     0.023 C 
BRANCH  26  27
HETATM   27  C           1     -21.426  -4.167  -9.055  0.00  0.00     0.138 C 
BRANCH  27  28
HETATM   28  N           1     -22.702  -3.537  -8.689  0.00  0.00    -0.227 N 
HETATM   29  H           1     -22.766  -2.942  -7.826  0.00  0.00     0.177 HD
HETATM   30  C           1     -23.725  -3.711  -9.415  0.00  0.00     0.665 C 
HETATM   31  N           1     -24.825  -3.169  -9.099  0.00  0.00    -0.235 N 
HETATM   32  N           1     -23.646  -4.447 -10.483  0.00  0.00    -0.235 N 
HETATM   33  H           1     -25.673  -3.313  -9.701  0.00  0.00     0.174 HD
HETATM   34  H           1     -24.889  -2.575  -8.235  0.00  0.00     0.174 HD
HETATM   35  H           1     -22.738  -4.895 -10.744  0.00  0.00     0.174 HD
HETATM   36  H           1     -24.490  -4.591 -11.083  0.00  0.00     0.174 HD
ENDBRANCH  27  28
ENDBRANCH  26  27
ENDBRANCH  25  26
ENDBRANCH  24  25
BRANCH  24  37
HETATM   37  N           1     -19.895  -6.520  -6.828  0.00  0.00    -0.067 N 
HETATM   38  H           1     -20.506  -7.367  -6.863  0.00  0.00     0.275 HD
HETATM   39  H           1     -19.855  -6.079  -7.775  0.00  0.00     0.275 HD
HETATM   40  H           1     -18.933  -6.797  -6.530  0.00  0.00     0.275 HD
ENDBRANCH  24  37
ENDBRANCH   3  24
TORSDOF 17
ENDMDL
MODEL 9
REMARK VINA RESULT:      -6.2     14.458     17.214
REMARK  17 active torsions:
REMARK  status: ('A' for Active; 'I' for Inactive)
REMARK    1  A    between atoms: C_2  and  C_12 
REMARK    2  A    between atoms: C_2  and  C_3 
REMARK    3  A    between atoms: C_2  and  N_7 
REMARK    4  A    between atoms: C_6  and  N_7 
REMARK    5  A    between atoms: C_6  and  C_22 
REMARK    6  A    between atoms: N_9  and  C_10 
REMARK    7  A    between atoms: C_10  and  C_11 
REMARK    8  A    between atoms: C_11  and  C_12 
REMARK    9  A    between atoms: C_13  and  C_30 
REMARK   10  A    between atoms: C_13  and  C_20 
REMARK       I    between atoms: N_16  and  C_17 
REMARK       I    between atoms: C_17  and  N_18 
REMARK   11  A    between atoms: N_18  and  C_19 
REMARK   12  A    between atoms: C_19  and  C_20 
REMARK   13  A    between atoms: C_22  and  C_23 
REMARK   14  A    between atoms: C_23  and  C_24 
REMARK   15  A    between atoms: C_23  and  N_27 
REMARK       I    between atoms: N_27  and  C_28 
REMARK   16  A    between atoms: C_28  and  C_30 
REMARK   17  A    between atoms: C_30  and  N_36 
ROOT
HETATM    1  H           1     -19.046  -7.922  -6.496  0.00  0.00     0.163 HD
HETATM    2  N           1     -19.716  -7.953  -5.739  0.00  0.00    -0.345 N 
HETATM    3  C           1     -20.542  -6.884  -5.512  0.00  0.00     0.249 C 
HETATM    4  O           1     -21.342  -6.920  -4.608  0.00  0.00    -0.271 OA
ENDROOT
BRANCH   2   5
HETATM    5  C           1     -19.804  -9.128  -4.895  0.00  0.00     0.187 C 
BRANCH   5   6
HETATM    6  C           1     -21.057  -9.916  -5.253  0.00  0.00     0.066 C 
BRANCH   6   7
HETATM    7  C           1     -21.584 -10.625  -4.013  0.00  0.00     0.273 C 
BRANCH   7   8
HETATM    8  N           1     -21.909  -9.652  -3.006  0.00  0.00     0.098 N 
HETATM    9  H           1     -22.886  -9.373  -3.106  0.00  0.00     0.317 HD
BRANCH   8  10
HETATM   10  C           1     -21.715 -10.269  -1.722  0.00  0.00     0.320 C 
BRANCH  10  11
HETATM   11  C           1     -21.176  -9.237  -0.740  0.00  0.00     0.048 C 
BRANCH  11  12
HETATM   12  C           1     -21.043  -7.892  -1.440  0.00  0.00     0.030 C 
BRANCH  12  13
HETATM   13  C           1     -22.143  -6.956  -0.956  0.00  0.00     0.230 C 
BRANCH  13  14
HETATM   14  N           1     -22.354  -5.868  -1.967  0.00  0.00    -0.079 N 
HETATM   15  H           1     -21.822  -6.093  -2.838  0.00  0.00     0.274 HD
HETATM   16  H           1     -23.373  -5.793  -2.191  0.00  0.00     0.274 HD
HETATM   17  H           1     -22.016  -4.960  -1.577  0.00  0.00     0.274 HD
ENDBRANCH  13  14
ENDBRANCH  12  13
ENDBRANCH  11  12
ENDBRANCH  10  11
BRANCH  10  18
HETATM   18  C           1     -23.033 -10.804  -1.217  0.00  0.00     0.207 C 
HETATM   19  O           1     -23.709 -10.135  -0.405  0.00  0.00    -0.646 OA
HETATM   20  O           1     -23.449 -11.914  -1.610  0.00  0.00    -0.646 OA
ENDBRANCH  10  18
ENDBRANCH   8  10
ENDBRANCH   7   8
ENDBRANCH   6   7
ENDBRANCH   5   6
BRANCH   5  21
HETATM   21  C           1     -18.586  -9.993  -5.108  0.00  0.00     0.196 C 
HETATM   22  O           1     -18.114 -10.134  -6.258  0.00  0.00    -0.646 OA
HETATM   23  O           1     -18.050 -10.570  -4.138  0.00  0.00    -0.646 OA
ENDBRANCH   5  21
ENDBRANCH   2   5
BRANCH   3  24
HETATM   24  C           1     -20.451  -5.661  -6.390  0.00  0.00     0.274 C 
BRANCH  24  25
HETATM   25  C           1     -21.852  -5.137  -6.679  0.00  0.00     0.044 C 
BRANCH  25  26
HETATM   26  C           1     -21.755  -3.766  -7.338  0.00  0.00     0.023 C 
BRANCH  26  27
HETATM   27  C           1     -22.290  -3.846  -8.761  0.00  0.00     0.138 C 
BRANCH  27  28
HETATM   28  N           1     -23.707  -3.454  -8.775  0.00  0.00    -0.227 N 
HETATM   29  H           1     -24.089  -2.841  -8.014  0.00  0.00     0.177 HD
HETATM   30  C           1     -24.465  -3.857  -9.706  0.00  0.00     0.665 C 
HETATM   31  N           1     -25.685  -3.521  -9.718  0.00  0.00    -0.235 N 
HETATM   32  N           1     -23.990  -4.616 -10.648  0.00  0.00    -0.235 N 
HETATM   33  H           1     -26.314  -3.854 -10.489  0.00  0.00     0.174 HD
HETATM   34  H           1     -26.069  -2.907  -8.956  0.00  0.00     0.174 HD
HETATM   35  H           1     -22.983  -4.894 -10.638  0.00  0.00     0.174 HD
HETATM   36  H           1     -24.617  -4.949 -11.417  0.00  0.00     0.174 HD
ENDBRANCH  27  28
ENDBRANCH  26  27
ENDBRANCH  25  26
ENDBRANCH  24  25
BRANCH  24  37
HETATM   37  N           1     -19.777  -6.023  -7.681  0.00  0.00    -0.067 N 
HETATM   38  H           1     -20.302  -6.800  -8.142  0.00  0.00     0.275 HD
HETATM   39  H           1     -19.764  -5.189  -8.312  0.00  0.00     0.275 HD
HETATM   40  H           1     -18.798  -6.331  -7.488  0.00  0.00     0.275 HD
ENDBRANCH  24  37
ENDBRANCH   3  24
TORSDOF 17
ENDMDL
