MODEL 1
REMARK VINA RESULT:      -6.5      0.000      0.000
REMARK  11 active torsions:
REMARK  status: ('A' for Active; 'I' for Inactive)
REMARK    1  A    between atoms: O_2  and  P_3 
REMARK    2  A    between atoms: P_3  and  O_4 
REMARK    3  A    between atoms: O_4  and  C_5 
REMARK    4  A    between atoms: C_5  and  C_6 
REMARK    5  A    between atoms: C_6  and  C_7 
REMARK    6  A    between atoms: C_6  and  N_24 
REMARK       I    between atoms: C_7  and  N_8 
REMARK    7  A    between atoms: N_8  and  C_12 
REMARK    8  A    between atoms: C_11  and  C_12 
REMARK    9  A    between atoms: C_12  and  C_13 
REMARK   10  A    between atoms: C_13  and  C_14 
REMARK   11  A    between atoms: C_14  and  C_16 
ROOT
HETATM    1  C           1     -27.140  -6.806 -16.358  0.00  0.00     0.251 C 
HETATM    2  N           1     -28.017  -6.610 -17.391  0.00  0.00    -0.345 N 
HETATM    3  H           1     -27.702  -6.166 -18.244  0.00  0.00     0.163 HD
HETATM    4  O           1     -27.515  -7.334 -15.338  0.00  0.00    -0.271 OA
ENDROOT
BRANCH   1   5
HETATM    5  C           1     -25.704  -6.361 -16.492  0.00  0.00     0.298 C 
BRANCH   5   6
HETATM    6  C           1     -25.091  -6.990 -17.736  0.00  0.00     0.224 C 
BRANCH   6   7
HETATM    7  O           1     -25.605  -6.362 -18.879  0.00  0.00    -0.287 OA
BRANCH   7   8
HETATM    8  P           1     -25.260  -7.068 -20.290  0.00  0.00     0.406 P 
HETATM    9  O           1     -25.145  -6.035 -21.344  0.00  0.00    -0.624 OA
HETATM   10  O           1     -23.980  -7.801 -20.175  0.00  0.00    -0.624 OA
BRANCH   8  11
HETATM   11  O           1     -26.439  -8.102 -20.678  0.00  0.00    -0.300 OA
HETATM   12  H           1     -26.053  -8.684 -21.309  0.00  0.00     0.223 HD
ENDBRANCH   8  11
ENDBRANCH   7   8
ENDBRANCH   6   7
ENDBRANCH   5   6
BRANCH   5  13
HETATM   13  N           1     -24.932  -6.794 -15.281  0.00  0.00    -0.064 N 
HETATM   14  H           1     -25.502  -7.473 -14.729  0.00  0.00     0.275 HD
HETATM   15  H           1     -24.714  -5.959 -14.690  0.00  0.00     0.275 HD
HETATM   16  H           1     -24.041  -7.250 -15.581  0.00  0.00     0.275 HD
ENDBRANCH   5  13
ENDBRANCH   1   5
BRANCH   2  17
HETATM   17  C           1     -29.396  -7.037 -17.261  0.00  0.00     0.186 C 
BRANCH  17  18
HETATM   18  C           1     -29.810  -7.784 -18.505  0.00  0.00     0.196 C 
HETATM   19  O           1     -28.945  -8.159 -19.326  0.00  0.00    -0.646 OA
HETATM   20  O           1     -31.018  -8.027 -18.714  0.00  0.00    -0.646 OA
ENDBRANCH  17  18
BRANCH  17  21
HETATM   21  C           1     -30.289  -5.816 -17.081  0.00  0.00     0.046 C 
BRANCH  21  22
HETATM   22  C           1     -29.845  -4.717 -18.037  0.00  0.00     0.116 C 
BRANCH  22  23
HETATM   23  C           1     -30.429  -3.397 -17.594  0.00  0.00     0.172 C 
HETATM   24  O           1     -29.674  -2.436 -17.331  0.00  0.00    -0.648 OA
HETATM   25  O           1     -31.668  -3.266 -17.491  0.00  0.00    -0.648 OA
ENDBRANCH  22  23
ENDBRANCH  21  22
ENDBRANCH  17  21
ENDBRANCH   2  17
TORSDOF 11
ENDMDL
MODEL 2
REMARK VINA RESULT:      -6.1      1.551      2.082
REMARK  11 active torsions:
REMARK  status: ('A' for Active; 'I' for Inactive)
REMARK    1  A    between atoms: O_2  and  P_3 
REMARK    2  A    between atoms: P_3  and  O_4 
REMARK    3  A    between atoms: O_4  and  C_5 
REMARK    4  A    between atoms: C_5  and  C_6 
REMARK    5  A    between atoms: C_6  and  C_7 
REMARK    6  A    between atoms: C_6  and  N_24 
REMARK       I    between atoms: C_7  and  N_8 
REMARK    7  A    between atoms: N_8  and  C_12 
REMARK    8  A    between atoms: C_11  and  C_12 
REMARK    9  A    between atoms: C_12  and  C_13 
REMARK   10  A    between atoms: C_13  and  C_14 
REMARK   11  A    between atoms: C_14  and  C_16 
ROOT
HETATM    1  C           1     -25.348  -6.472 -16.736  0.00  0.00     0.251 C 
HETATM    2  N           1     -26.510  -6.499 -17.460  0.00  0.00    -0.345 N 
HETATM    3  H           1     -26.519  -6.906 -18.387  0.00  0.00     0.163 HD
HETATM    4  O           1     -25.337  -5.985 -15.631  0.00  0.00    -0.271 OA
ENDROOT
BRANCH   1   5
HETATM    5  C           1     -24.082  -7.050 -17.319  0.00  0.00     0.298 C 
BRANCH   5   6
HETATM    6  C           1     -24.358  -7.565 -18.726  0.00  0.00     0.224 C 
BRANCH   6   7
HETATM    7  O           1     -24.564  -6.479 -19.589  0.00  0.00    -0.287 OA
BRANCH   7   8
HETATM    8  P           1     -25.425  -6.787 -20.920  0.00  0.00     0.406 P 
HETATM    9  O           1     -26.844  -6.444 -20.680  0.00  0.00    -0.624 OA
HETATM   10  O           1     -24.903  -5.974 -22.042  0.00  0.00    -0.624 OA
BRANCH   8  11
HETATM   11  O           1     -25.304  -8.354 -21.290  0.00  0.00    -0.300 OA
HETATM   12  H           1     -24.479  -8.436 -21.737  0.00  0.00     0.223 HD
ENDBRANCH   8  11
ENDBRANCH   7   8
ENDBRANCH   6   7
ENDBRANCH   5   6
BRANCH   5  13
HETATM   13  N           1     -23.608  -8.182 -16.457  0.00  0.00    -0.064 N 
HETATM   14  H           1     -23.111  -7.799 -15.622  0.00  0.00     0.275 HD
HETATM   15  H           1     -22.955  -8.787 -17.006  0.00  0.00     0.275 HD
HETATM   16  H           1     -24.428  -8.750 -16.145  0.00  0.00     0.275 HD
ENDBRANCH   5  13
ENDBRANCH   1   5
BRANCH   2  17
HETATM   17  C           1     -27.726  -5.943 -16.900  0.00  0.00     0.186 C 
BRANCH  17  18
HETATM   18  C           1     -28.543  -7.047 -16.276  0.00  0.00     0.196 C 
HETATM   19  O           1     -28.328  -7.393 -15.094  0.00  0.00    -0.646 OA
HETATM   20  O           1     -29.434  -7.617 -16.941  0.00  0.00    -0.646 OA
ENDBRANCH  17  18
BRANCH  17  21
HETATM   21  C           1     -28.535  -5.277 -18.007  0.00  0.00     0.046 C 
BRANCH  21  22
HETATM   22  C           1     -29.030  -3.919 -17.527  0.00  0.00     0.116 C 
BRANCH  22  23
HETATM   23  C           1     -30.537  -3.931 -17.447  0.00  0.00     0.172 C 
HETATM   24  O           1     -31.206  -3.124 -18.129  0.00  0.00    -0.648 OA
HETATM   25  O           1     -31.116  -4.749 -16.700  0.00  0.00    -0.648 OA
ENDBRANCH  22  23
ENDBRANCH  21  22
ENDBRANCH  17  21
ENDBRANCH   2  17
TORSDOF 11
ENDMDL
MODEL 3
REMARK VINA RESULT:      -6.0     11.600     14.157
REMARK  11 active torsions:
REMARK  status: ('A' for Active; 'I' for Inactive)
REMARK    1  A    between atoms: O_2  and  P_3 
REMARK    2  A    between atoms: P_3  and  O_4 
REMARK    3  A    between atoms: O_4  and  C_5 
REMARK    4  A    between atoms: C_5  and  C_6 
REMARK    5  A    between atoms: C_6  and  C_7 
REMARK    6  A    between atoms: C_6  and  N_24 
REMARK       I    between atoms: C_7  and  N_8 
REMARK    7  A    between atoms: N_8  and  C_12 
REMARK    8  A    between atoms: C_11  and  C_12 
REMARK    9  A    between atoms: C_12  and  C_13 
REMARK   10  A    between atoms: C_13  and  C_14 
REMARK   11  A    between atoms: C_14  and  C_16 
ROOT
HETATM    1  C           1     -20.934  -4.729  -6.449  0.00  0.00     0.251 C 
HETATM    2  N           1     -21.643  -5.780  -5.934  0.00  0.00    -0.345 N 
HETATM    3  H           1     -22.523  -6.052  -6.356  0.00  0.00     0.163 HD
HETATM    4  O           1     -19.885  -4.404  -5.945  0.00  0.00    -0.271 OA
ENDROOT
BRANCH   1   5
HETATM    5  C           1     -21.461  -3.975  -7.644  0.00  0.00     0.298 C 
BRANCH   5   6
HETATM    6  C           1     -22.820  -4.537  -8.041  0.00  0.00     0.224 C 
BRANCH   6   7
HETATM    7  O           1     -23.559  -3.548  -8.706  0.00  0.00    -0.287 OA
BRANCH   7   8
HETATM    8  P           1     -23.801  -3.787 -10.285  0.00  0.00     0.406 P 
HETATM    9  O           1     -25.066  -3.137 -10.694  0.00  0.00    -0.624 OA
HETATM   10  O           1     -22.675  -3.203 -11.049  0.00  0.00    -0.624 OA
BRANCH   8  11
HETATM   11  O           1     -23.888  -5.372 -10.584  0.00  0.00    -0.300 OA
HETATM   12  H           1     -24.153  -5.435 -11.486  0.00  0.00     0.223 HD
ENDBRANCH   8  11
ENDBRANCH   7   8
ENDBRANCH   6   7
ENDBRANCH   5   6
BRANCH   5  13
HETATM   13  N           1     -20.505  -4.124  -8.791  0.00  0.00    -0.064 N 
HETATM   14  H           1     -19.555  -3.807  -8.495  0.00  0.00     0.275 HD
HETATM   15  H           1     -20.834  -3.543  -9.595  0.00  0.00     0.275 HD
HETATM   16  H           1     -20.463  -5.127  -9.080  0.00  0.00     0.275 HD
ENDBRANCH   5  13
ENDBRANCH   1   5
BRANCH   2  17
HETATM   17  C           1     -21.136  -6.504  -4.785  0.00  0.00     0.186 C 
BRANCH  17  18
HETATM   18  C           1     -20.672  -7.873  -5.218  0.00  0.00     0.196 C 
HETATM   19  O           1     -21.285  -8.892  -4.833  0.00  0.00    -0.646 OA
HETATM   20  O           1     -19.674  -7.987  -5.962  0.00  0.00    -0.646 OA
ENDBRANCH  17  18
BRANCH  17  21
HETATM   21  C           1     -22.243  -6.647  -3.748  0.00  0.00     0.046 C 
BRANCH  21  22
HETATM   22  C           1     -21.758  -6.108  -2.409  0.00  0.00     0.116 C 
BRANCH  22  23
HETATM   23  C           1     -21.954  -7.157  -1.342  0.00  0.00     0.172 C 
HETATM   24  O           1     -21.184  -8.141  -1.283  0.00  0.00    -0.648 OA
HETATM   25  O           1     -22.885  -7.042  -0.517  0.00  0.00    -0.648 OA
ENDBRANCH  22  23
ENDBRANCH  21  22
ENDBRANCH  17  21
ENDBRANCH   2  17
TORSDOF 11
ENDMDL
MODEL 4
REMARK VINA RESULT:      -5.8      1.850      2.291
REMARK  11 active torsions:
REMARK  status: ('A' for Active; 'I' for Inactive)
REMARK    1  A    between atoms: O_2  and  P_3 
REMARK    2  A    between atoms: P_3  and  O_4 
REMARK    3  A    between atoms: O_4  and  C_5 
REMARK    4  A    between atoms: C_5  and  C_6 
REMARK    5  A    between atoms: C_6  and  C_7 
REMARK    6  A    between atoms: C_6  and  N_24 
REMARK       I    between atoms: C_7  and  N_8 
REMARK    7  A    between atoms: N_8  and  C_12 
REMARK    8  A    between atoms: C_11  and  C_12 
REMARK    9  A    between atoms: C_12  and  C_13 
REMARK   10  A    between atoms: C_13  and  C_14 
REMARK   11  A    between atoms: C_14  and  C_16 
ROOT
HETATM    1  C           1     -26.271  -6.371 -18.253  0.00  0.00     0.251 C 
HETATM    2  N           1     -27.524  -6.485 -18.792  0.00  0.00    -0.345 N 
HETATM    3  H           1     -27.635  -6.756 -19.761  0.00  0.00     0.163 HD
HETATM    4  O           1     -26.139  -6.047 -17.096  0.00  0.00    -0.271 OA
ENDROOT
BRANCH   1   5
HETATM    5  C           1     -25.055  -6.651 -19.102  0.00  0.00     0.298 C 
BRANCH   5   6
HETATM    6  C           1     -25.496  -7.142 -20.474  0.00  0.00     0.224 C 
BRANCH   6   7
HETATM    7  O           1     -24.780  -8.300 -20.808  0.00  0.00    -0.287 OA
BRANCH   7   8
HETATM    8  P           1     -23.586  -8.111 -21.879  0.00  0.00     0.406 P 
HETATM    9  O           1     -23.799  -6.859 -22.639  0.00  0.00    -0.624 OA
HETATM   10  O           1     -22.290  -8.042 -21.165  0.00  0.00    -0.624 OA
BRANCH   8  11
HETATM   11  O           1     -23.572  -9.364 -22.899  0.00  0.00    -0.300 OA
HETATM   12  H           1     -24.309  -9.222 -23.467  0.00  0.00     0.223 HD
ENDBRANCH   8  11
ENDBRANCH   7   8
ENDBRANCH   6   7
ENDBRANCH   5   6
BRANCH   5  13
HETATM   13  N           1     -24.215  -7.703 -18.440  0.00  0.00    -0.064 N 
HETATM   14  H           1     -24.591  -7.898 -17.485  0.00  0.00     0.275 HD
HETATM   15  H           1     -23.229  -7.364 -18.366  0.00  0.00     0.275 HD
HETATM   16  H           1     -24.241  -8.578 -19.010  0.00  0.00     0.275 HD
ENDBRANCH   5  13
ENDBRANCH   1   5
BRANCH   2  17
HETATM   17  C           1     -28.692  -6.215 -17.976  0.00  0.00     0.186 C 
BRANCH  17  18
HETATM   18  C           1     -29.527  -7.467 -17.866  0.00  0.00     0.196 C 
HETATM   19  O           1     -30.516  -7.627 -18.613  0.00  0.00    -0.646 OA
HETATM   20  O           1     -29.229  -8.344 -17.026  0.00  0.00    -0.646 OA
ENDBRANCH  17  18
BRANCH  17  21
HETATM   21  C           1     -29.517  -5.109 -18.622  0.00  0.00     0.046 C 
BRANCH  21  22
HETATM   22  C           1     -29.734  -3.985 -17.618  0.00  0.00     0.116 C 
BRANCH  22  23
HETATM   23  C           1     -31.195  -3.918 -17.246  0.00  0.00     0.172 C 
HETATM   24  O           1     -31.764  -4.918 -16.756  0.00  0.00    -0.648 OA
HETATM   25  O           1     -31.838  -2.861 -17.428  0.00  0.00    -0.648 OA
ENDBRANCH  22  23
ENDBRANCH  21  22
ENDBRANCH  17  21
ENDBRANCH   2  17
TORSDOF 11
ENDMDL
MODEL 5
REMARK VINA RESULT:      -5.5     11.975     14.434
REMARK  11 active torsions:
REMARK  status: ('A' for Active; 'I' for Inactive)
REMARK    1  A    between atoms: O_2  and  P_3 
REMARK    2  A    between atoms: P_3  and  O_4 
REMARK    3  A    between atoms: O_4  and  C_5 
REMARK    4  A    between atoms: C_5  and  C_6 
REMARK    5  A    between atoms: C_6  and  C_7 
REMARK    6  A    between atoms: C_6  and  N_24 
REMARK       I    between atoms: C_7  and  N_8 
REMARK    7  A    between atoms: N_8  and  C_12 
REMARK    8  A    between atoms: C_11  and  C_12 
REMARK    9  A    between atoms: C_12  and  C_13 
REMARK   10  A    between atoms: C_13  and  C_14 
REMARK   11  A    between atoms: C_14  and  C_16 
ROOT
HETATM    1  C           1     -21.049  -5.436  -6.383  0.00  0.00     0.251 C 
HETATM    2  N           1     -20.983  -6.763  -6.051  0.00  0.00    -0.345 N 
HETATM    3  H           1     -21.314  -7.464  -6.702  0.00  0.00     0.163 HD
HETATM    4  O           1     -20.655  -4.599  -5.606  0.00  0.00    -0.271 OA
ENDROOT
BRANCH   1   5
HETATM    5  C           1     -21.614  -5.020  -7.719  0.00  0.00     0.298 C 
BRANCH   5   6
HETATM    6  C           1     -20.578  -4.199  -8.476  0.00  0.00     0.224 C 
BRANCH   6   7
HETATM    7  O           1     -20.483  -4.667  -9.794  0.00  0.00    -0.287 OA
BRANCH   7   8
HETATM    8  P           1     -21.275  -3.809 -10.909  0.00  0.00     0.406 P 
HETATM    9  O           1     -21.728  -4.707 -11.994  0.00  0.00    -0.624 OA
HETATM   10  O           1     -22.449  -3.156 -10.285  0.00  0.00    -0.624 OA
BRANCH   8  11
HETATM   11  O           1     -20.294  -2.680 -11.518  0.00  0.00    -0.300 OA
HETATM   12  H           1     -20.851  -2.131 -12.043  0.00  0.00     0.223 HD
ENDBRANCH   8  11
ENDBRANCH   7   8
ENDBRANCH   6   7
ENDBRANCH   5   6
BRANCH   5  13
HETATM   13  N           1     -22.846  -4.192  -7.503  0.00  0.00    -0.064 N 
HETATM   14  H           1     -23.472  -4.277  -8.334  0.00  0.00     0.275 HD
HETATM   15  H           1     -22.573  -3.191  -7.371  0.00  0.00     0.275 HD
HETATM   16  H           1     -23.348  -4.530  -6.652  0.00  0.00     0.275 HD
ENDBRANCH   5  13
ENDBRANCH   1   5
BRANCH   2  17
HETATM   17  C           1     -20.441  -7.163  -4.767  0.00  0.00     0.186 C 
BRANCH  17  18
HETATM   18  C           1     -19.617  -8.415  -4.938  0.00  0.00     0.196 C 
HETATM   19  O           1     -19.105  -8.681  -6.047  0.00  0.00    -0.646 OA
HETATM   20  O           1     -19.447  -9.187  -3.969  0.00  0.00    -0.646 OA
ENDBRANCH  17  18
BRANCH  17  21
HETATM   21  C           1     -21.584  -7.435  -3.797  0.00  0.00     0.046 C 
BRANCH  21  22
HETATM   22  C           1     -21.510  -6.452  -2.636  0.00  0.00     0.116 C 
BRANCH  22  23
HETATM   23  C           1     -21.762  -7.183  -1.340  0.00  0.00     0.172 C 
HETATM   24  O           1     -20.933  -8.021  -0.923  0.00  0.00    -0.648 OA
HETATM   25  O           1     -22.800  -6.951  -0.684  0.00  0.00    -0.648 OA
ENDBRANCH  22  23
ENDBRANCH  21  22
ENDBRANCH  17  21
ENDBRANCH   2  17
TORSDOF 11
ENDMDL
MODEL 6
REMARK VINA RESULT:      -5.5     11.516     13.776
REMARK  11 active torsions:
REMARK  status: ('A' for Active; 'I' for Inactive)
REMARK    1  A    between atoms: O_2  and  P_3 
REMARK    2  A    between atoms: P_3  and  O_4 
REMARK    3  A    between atoms: O_4  and  C_5 
REMARK    4  A    between atoms: C_5  and  C_6 
REMARK    5  A    between atoms: C_6  and  C_7 
REMARK    6  A    between atoms: C_6  and  N_24 
REMARK       I    between atoms: C_7  and  N_8 
REMARK    7  A    between atoms: N_8  and  C_12 
REMARK    8  A    between atoms: C_11  and  C_12 
REMARK    9  A    between atoms: C_12  and  C_13 
REMARK   10  A    between atoms: C_13  and  C_14 
REMARK   11  A    between atoms: C_14  and  C_16 
ROOT
HETATM    1  C           1     -21.212  -6.466  -5.954  0.00  0.00     0.251 C 
HETATM    2  N           1     -21.326  -5.198  -6.457  0.00  0.00    -0.345 N 
HETATM    3  H           1     -21.315  -4.402  -5.831  0.00  0.00     0.163 HD
HETATM    4  O           1     -21.228  -7.415  -6.701  0.00  0.00    -0.271 OA
ENDROOT
BRANCH   1   5
HETATM    5  C           1     -21.069  -6.678  -4.468  0.00  0.00     0.298 C 
BRANCH   5   6
HETATM    6  C           1     -20.934  -8.167  -4.177  0.00  0.00     0.224 C 
BRANCH   6   7
HETATM    7  O           1     -19.646  -8.435  -3.692  0.00  0.00    -0.287 OA
BRANCH   7   8
HETATM    8  P           1     -18.790  -9.524  -4.521  0.00  0.00     0.406 P 
HETATM    9  O           1     -17.385  -9.505  -4.056  0.00  0.00    -0.624 OA
HETATM   10  O           1     -19.364 -10.871  -4.304  0.00  0.00    -0.624 OA
BRANCH   8  11
HETATM   11  O           1     -18.840  -9.166  -6.095  0.00  0.00    -0.300 OA
HETATM   12  H           1     -19.100  -8.261  -6.130  0.00  0.00     0.223 HD
ENDBRANCH   8  11
ENDBRANCH   7   8
ENDBRANCH   6   7
ENDBRANCH   5   6
BRANCH   5  13
HETATM   13  N           1     -22.281  -6.141  -3.767  0.00  0.00    -0.064 N 
HETATM   14  H           1     -22.619  -5.285  -4.262  0.00  0.00     0.275 HD
HETATM   15  H           1     -22.035  -5.899  -2.780  0.00  0.00     0.275 HD
HETATM   16  H           1     -23.035  -6.865  -3.770  0.00  0.00     0.275 HD
ENDBRANCH   5  13
ENDBRANCH   1   5
BRANCH   2  17
HETATM   17  C           1     -21.465  -4.994  -7.886  0.00  0.00     0.186 C 
BRANCH  17  18
HETATM   18  C           1     -20.109  -4.722  -8.488  0.00  0.00     0.196 C 
HETATM   19  O           1     -19.923  -4.889  -9.713  0.00  0.00    -0.646 OA
HETATM   20  O           1     -19.171  -4.328  -7.762  0.00  0.00    -0.646 OA
ENDBRANCH  17  18
BRANCH  17  21
HETATM   21  C           1     -22.383  -3.805  -8.141  0.00  0.00     0.046 C 
BRANCH  21  22
HETATM   22  C           1     -23.623  -4.272  -8.890  0.00  0.00     0.116 C 
BRANCH  22  23
HETATM   23  C           1     -23.728  -3.535 -10.203  0.00  0.00     0.172 C 
HETATM   24  O           1     -22.691  -3.198 -10.815  0.00  0.00    -0.648 OA
HETATM   25  O           1     -24.851  -3.261 -10.678  0.00  0.00    -0.648 OA
ENDBRANCH  22  23
ENDBRANCH  21  22
ENDBRANCH  17  21
ENDBRANCH   2  17
TORSDOF 11
ENDMDL
MODEL 7
REMARK VINA RESULT:      -5.5     11.870     14.337
REMARK  11 active torsions:
REMARK  status: ('A' for Active; 'I' for Inactive)
REMARK    1  A    between atoms: O_2  and  P_3 
REMARK    2  A    between atoms: P_3  and  O_4 
REMARK    3  A    between atoms: O_4  and  C_5 
REMARK    4  A    between atoms: C_5  and  C_6 
REMARK    5  A    between atoms: C_6  and  C_7 
REMARK    6  A    between atoms: C_6  and  N_24 
REMARK       I    between atoms: C_7  and  N_8 
REMARK    7  A    between atoms: N_8  and  C_12 
REMARK    8  A    between atoms: C_11  and  C_12 
REMARK    9  A    between atoms: C_12  and  C_13 
REMARK   10  A    between atoms: C_13  and  C_14 
REMARK   11  A    between atoms: C_14  and  C_16 
ROOT
HETATM    1  C           1     -21.215  -6.439  -5.936  0.00  0.00     0.251 C 
HETATM    2  N           1     -21.407  -5.196  -6.477  0.00  0.00    -0.345 N 
HETATM    3  H           1     -21.447  -4.383  -5.875  0.00  0.00     0.163 HD
HETATM    4  O           1     -21.168  -7.409  -6.654  0.00  0.00    -0.271 OA
ENDROOT
BRANCH   1   5
HETATM    5  C           1     -21.064  -6.597  -4.443  0.00  0.00     0.298 C 
BRANCH   5   6
HETATM    6  C           1     -20.831  -8.065  -4.108  0.00  0.00     0.224 C 
BRANCH   6   7
HETATM    7  O           1     -20.344  -8.174  -2.798  0.00  0.00    -0.287 OA
BRANCH   7   8
HETATM    8  P           1     -21.324  -8.894  -1.736  0.00  0.00     0.406 P 
HETATM    9  O           1     -22.148  -9.906  -2.433  0.00  0.00    -0.624 OA
HETATM   10  O           1     -20.514  -9.553  -0.687  0.00  0.00    -0.624 OA
BRANCH   8  11
HETATM   11  O           1     -22.287  -7.790  -1.056  0.00  0.00    -0.300 OA
HETATM   12  H           1     -22.174  -7.907  -0.129  0.00  0.00     0.223 HD
ENDBRANCH   8  11
ENDBRANCH   7   8
ENDBRANCH   6   7
ENDBRANCH   5   6
BRANCH   5  13
HETATM   13  N           1     -22.312  -6.122  -3.762  0.00  0.00    -0.064 N 
HETATM   14  H           1     -23.019  -5.850  -4.481  0.00  0.00     0.275 HD
HETATM   15  H           1     -22.088  -5.295  -3.162  0.00  0.00     0.275 HD
HETATM   16  H           1     -22.698  -6.889  -3.166  0.00  0.00     0.275 HD
ENDBRANCH   5  13
ENDBRANCH   1   5
BRANCH   2  17
HETATM   17  C           1     -21.553  -5.044  -7.912  0.00  0.00     0.186 C 
BRANCH  17  18
HETATM   18  C           1     -20.230  -4.638  -8.511  0.00  0.00     0.196 C 
HETATM   19  O           1     -19.314  -4.209  -7.776  0.00  0.00    -0.646 OA
HETATM   20  O           1     -20.049  -4.729  -9.745  0.00  0.00    -0.646 OA
ENDBRANCH  17  18
BRANCH  17  21
HETATM   21  C           1     -22.595  -3.971  -8.204  0.00  0.00     0.046 C 
BRANCH  21  22
HETATM   22  C           1     -23.633  -4.522  -9.172  0.00  0.00     0.116 C 
BRANCH  22  23
HETATM   23  C           1     -23.814  -3.559 -10.319  0.00  0.00     0.172 C 
HETATM   24  O           1     -22.817  -3.131 -10.940  0.00  0.00    -0.648 OA
HETATM   25  O           1     -24.961  -3.188 -10.648  0.00  0.00    -0.648 OA
ENDBRANCH  22  23
ENDBRANCH  21  22
ENDBRANCH  17  21
ENDBRANCH   2  17
TORSDOF 11
ENDMDL
MODEL 8
REMARK VINA RESULT:      -5.4     19.320     21.451
REMARK  11 active torsions:
REMARK  status: ('A' for Active; 'I' for Inactive)
REMARK    1  A    between atoms: O_2  and  P_3 
REMARK    2  A    between atoms: P_3  and  O_4 
REMARK    3  A    between atoms: O_4  and  C_5 
REMARK    4  A    between atoms: C_5  and  C_6 
REMARK    5  A    between atoms: C_6  and  C_7 
REMARK    6  A    between atoms: C_6  and  N_24 
REMARK       I    between atoms: C_7  and  N_8 
REMARK    7  A    between atoms: N_8  and  C_12 
REMARK    8  A    between atoms: C_11  and  C_12 
REMARK    9  A    between atoms: C_12  and  C_13 
REMARK   10  A    between atoms: C_13  and  C_14 
REMARK   11  A    between atoms: C_14  and  C_16 
ROOT
HETATM    1  C           1     -11.004   5.665 -20.025  0.00  0.00     0.251 C 
HETATM    2  N           1     -10.742   6.937 -20.457  0.00  0.00    -0.345 N 
HETATM    3  H           1     -10.427   7.094 -21.406  0.00  0.00     0.163 HD
HETATM    4  O           1     -11.378   5.477 -18.892  0.00  0.00    -0.271 OA
ENDROOT
BRANCH   1   5
HETATM    5  C           1     -10.824   4.497 -20.963  0.00  0.00     0.298 C 
BRANCH   5   6
HETATM    6  C           1     -11.760   4.653 -22.155  0.00  0.00     0.224 C 
BRANCH   6   7
HETATM    7  O           1     -12.747   5.603 -21.853  0.00  0.00    -0.287 OA
BRANCH   7   8
HETATM    8  P           1     -14.164   5.015 -21.349  0.00  0.00     0.406 P 
HETATM    9  O           1     -15.249   5.538 -22.209  0.00  0.00    -0.624 OA
HETATM   10  O           1     -14.141   3.537 -21.427  0.00  0.00    -0.624 OA
BRANCH   8  11
HETATM   11  O           1     -14.423   5.468 -19.820  0.00  0.00    -0.300 OA
HETATM   12  H           1     -15.071   4.867 -19.495  0.00  0.00     0.223 HD
ENDBRANCH   8  11
ENDBRANCH   7   8
ENDBRANCH   6   7
ENDBRANCH   5   6
BRANCH   5  13
HETATM   13  N           1     -11.144   3.222 -20.241  0.00  0.00    -0.064 N 
HETATM   14  H           1     -10.489   3.104 -19.437  0.00  0.00     0.275 HD
HETATM   15  H           1     -11.042   2.415 -20.897  0.00  0.00     0.275 HD
HETATM   16  H           1     -12.127   3.260 -19.887  0.00  0.00     0.275 HD
ENDBRANCH   5  13
ENDBRANCH   1   5
BRANCH   2  17
HETATM   17  C           1     -10.913   8.059 -19.554  0.00  0.00     0.186 C 
BRANCH  17  18
HETATM   18  C           1     -12.318   8.595 -19.681  0.00  0.00     0.196 C 
HETATM   19  O           1     -12.540   9.611 -20.374  0.00  0.00    -0.646 OA
HETATM   20  O           1     -13.260   8.022 -19.092  0.00  0.00    -0.646 OA
ENDBRANCH  17  18
BRANCH  17  21
HETATM   21  C           1      -9.917   9.155 -19.913  0.00  0.00     0.046 C 
BRANCH  21  22
HETATM   22  C           1      -9.067   8.701 -21.093  0.00  0.00     0.116 C 
BRANCH  22  23
HETATM   23  C           1      -9.531   9.401 -22.347  0.00  0.00     0.172 C 
HETATM   24  O           1     -10.598   9.053 -22.899  0.00  0.00    -0.648 OA
HETATM   25  O           1      -8.848  10.328 -22.834  0.00  0.00    -0.648 OA
ENDBRANCH  22  23
ENDBRANCH  21  22
ENDBRANCH  17  21
ENDBRANCH   2  17
TORSDOF 11
ENDMDL
MODEL 9
REMARK VINA RESULT:      -5.1     13.205     15.554
REMARK  11 active torsions:
REMARK  status: ('A' for Active; 'I' for Inactive)
REMARK    1  A    between atoms: O_2  and  P_3 
REMARK    2  A    between atoms: P_3  and  O_4 
REMARK    3  A    between atoms: O_4  and  C_5 
REMARK    4  A    between atoms: C_5  and  C_6 
REMARK    5  A    between atoms: C_6  and  C_7 
REMARK    6  A    between atoms: C_6  and  N_24 
REMARK       I    between atoms: C_7  and  N_8 
REMARK    7  A    between atoms: N_8  and  C_12 
REMARK    8  A    between atoms: C_11  and  C_12 
REMARK    9  A    between atoms: C_12  and  C_13 
REMARK   10  A    between atoms: C_13  and  C_14 
REMARK   11  A    between atoms: C_14  and  C_16 
ROOT
HETATM    1  C           1     -20.832  -8.055  -4.702  0.00  0.00     0.251 C 
HETATM    2  N           1     -21.701  -8.790  -3.942  0.00  0.00    -0.345 N 
HETATM    3  H           1     -22.699  -8.641  -4.027  0.00  0.00     0.163 HD
HETATM    4  O           1     -19.641  -8.232  -4.600  0.00  0.00    -0.271 OA
ENDROOT
BRANCH   1   5
HETATM    5  C           1     -21.360  -7.022  -5.667  0.00  0.00     0.298 C 
BRANCH   5   6
HETATM    6  C           1     -20.200  -6.212  -6.232  0.00  0.00     0.224 C 
BRANCH   6   7
HETATM    7  O           1     -20.354  -6.081  -7.619  0.00  0.00    -0.287 OA
BRANCH   7   8
HETATM    8  P           1     -20.940  -4.668  -8.135  0.00  0.00     0.406 P 
HETATM    9  O           1     -21.226  -3.798  -6.973  0.00  0.00    -0.624 OA
HETATM   10  O           1     -19.943  -4.011  -9.011  0.00  0.00    -0.624 OA
BRANCH   8  11
HETATM   11  O           1     -22.302  -4.920  -8.967  0.00  0.00    -0.300 OA
HETATM   12  H           1     -22.247  -5.814  -9.257  0.00  0.00     0.223 HD
ENDBRANCH   8  11
ENDBRANCH   7   8
ENDBRANCH   6   7
ENDBRANCH   5   6
BRANCH   5  13
HETATM   13  N           1     -22.305  -6.105  -4.948  0.00  0.00    -0.064 N 
HETATM   14  H           1     -22.101  -6.128  -3.924  0.00  0.00     0.275 HD
HETATM   15  H           1     -23.288  -6.418  -5.116  0.00  0.00     0.275 HD
HETATM   16  H           1     -22.185  -5.131  -5.306  0.00  0.00     0.275 HD
ENDBRANCH   5  13
ENDBRANCH   1   5
BRANCH   2  17
HETATM   17  C           1     -21.192  -9.782  -3.015  0.00  0.00     0.186 C 
BRANCH  17  18
HETATM   18  C           1     -21.556 -11.161  -3.506  0.00  0.00     0.196 C 
HETATM   19  O           1     -20.777 -11.783  -4.262  0.00  0.00    -0.646 OA
HETATM   20  O           1     -22.636 -11.684  -3.156  0.00  0.00    -0.646 OA
ENDBRANCH  17  18
BRANCH  17  21
HETATM   21  C           1     -21.809  -9.553  -1.640  0.00  0.00     0.046 C 
BRANCH  21  22
HETATM   22  C           1     -21.223  -8.289  -1.025  0.00  0.00     0.116 C 
BRANCH  22  23
HETATM   23  C           1     -22.279  -7.212  -0.985  0.00  0.00     0.172 C 
HETATM   24  O           1     -23.123  -7.197  -0.062  0.00  0.00    -0.648 OA
HETATM   25  O           1     -22.310  -6.334  -1.874  0.00  0.00    -0.648 OA
ENDBRANCH  22  23
ENDBRANCH  21  22
ENDBRANCH  17  21
ENDBRANCH   2  17
TORSDOF 11
ENDMDL
