MODEL 1
REMARK VINA RESULT:      -7.6      0.000      0.000
REMARK  11 active torsions:
REMARK  status: ('A' for Active; 'I' for Inactive)
REMARK    1  A    between atoms: N_5  and  C_18 
REMARK    2  A    between atoms: O_10  and  P_11 
REMARK    3  A    between atoms: P_11  and  O_12 
REMARK    4  A    between atoms: O_12  and  C_13 
REMARK    5  A    between atoms: C_16  and  C_17 
REMARK    6  A    between atoms: C_17  and  C_18 
REMARK    7  A    between atoms: C_18  and  C_19 
REMARK       I    between atoms: C_19  and  N_20 
REMARK    8  A    between atoms: N_20  and  C_24 
REMARK    9  A    between atoms: C_23  and  C_24 
REMARK   10  A    between atoms: C_24  and  C_25 
REMARK   11  A    between atoms: C_25  and  C_27 
REMARK       I    between atoms: N_26  and  C_27 
ROOT
HETATM    1  C           1     -21.109  -5.428  -6.444  0.00  0.00     0.278 C 
ENDROOT
BRANCH   1   2
HETATM    2  N           1     -20.137  -4.746  -5.527  0.00  0.00    -0.066 N 
HETATM    3  H           1     -20.352  -3.724  -5.487  0.00  0.00     0.275 HD
HETATM    4  H           1     -20.217  -5.155  -4.569  0.00  0.00     0.275 HD
HETATM    5  H           1     -19.165  -4.883  -5.885  0.00  0.00     0.275 HD
ENDBRANCH   1   2
BRANCH   1   6
HETATM    6  C           1     -22.302  -5.927  -5.638  0.00  0.00     0.081 C 
BRANCH   6   7
HETATM    7  C           1     -21.815  -6.740  -4.478  0.00  0.00    -0.056 A 
HETATM    8  C           1     -21.911  -6.233  -3.182  0.00  0.00     0.010 A 
HETATM    9  C           1     -21.458  -6.992  -2.102  0.00  0.00     0.038 A 
HETATM   10  C           1     -20.909  -8.255  -2.319  0.00  0.00     0.081 A 
HETATM   11  C           1     -20.812  -8.762  -3.615  0.00  0.00     0.038 A 
HETATM   12  C           1     -21.265  -8.004  -4.695  0.00  0.00     0.010 A 
BRANCH  10  13
HETATM   13  O           1     -20.469  -8.992  -1.270  0.00  0.00    -0.247 OA
BRANCH  13  14
HETATM   14  P           1     -21.548  -9.444  -0.155  0.00  0.00     0.411 P 
HETATM   15  O           1     -21.055 -10.650   0.546  0.00  0.00    -0.624 OA
HETATM   16  O           1     -22.837  -9.748  -0.813  0.00  0.00    -0.624 OA
BRANCH  14  17
HETATM   17  O           1     -21.755  -8.249   0.911  0.00  0.00    -0.300 OA
HETATM   18  H           1     -22.666  -8.018   0.842  0.00  0.00     0.223 HD
ENDBRANCH  14  17
ENDBRANCH  13  14
ENDBRANCH  10  13
ENDBRANCH   6   7
ENDBRANCH   1   6
BRANCH   1  19
HETATM   19  C           1     -21.583  -4.448  -7.490  0.00  0.00     0.249 C 
HETATM   20  O           1     -21.361  -3.268  -7.356  0.00  0.00    -0.271 OA
HETATM   21  N           1     -22.266  -4.897  -8.588  0.00  0.00    -0.344 N 
HETATM   22  H           1     -22.453  -5.885  -8.699  0.00  0.00     0.163 HD
BRANCH  21  23
HETATM   23  C           1     -22.723  -3.955  -9.591  0.00  0.00     0.194 C 
BRANCH  23  24
HETATM   24  C           1     -24.233  -3.941  -9.616  0.00  0.00     0.197 C 
HETATM   25  O           1     -24.864  -5.005  -9.796  0.00  0.00    -0.646 OA
HETATM   26  O           1     -24.850  -2.866  -9.457  0.00  0.00    -0.646 OA
ENDBRANCH  23  24
BRANCH  23  27
HETATM   27  C           1     -22.198  -4.375 -10.958  0.00  0.00     0.138 C 
BRANCH  27  28
HETATM   28  C           1     -20.727  -4.053 -11.053  0.00  0.00     0.217 C 
HETATM   29  N           1     -20.322  -2.846 -11.558  0.00  0.00    -0.370 N 
HETATM   30  H           1     -19.336  -2.630 -11.621  0.00  0.00     0.159 HD
HETATM   31  H           1     -21.010  -2.171 -11.867  0.00  0.00     0.159 HD
HETATM   32  O           1     -19.906  -4.859 -10.684  0.00  0.00    -0.274 OA
ENDBRANCH  27  28
ENDBRANCH  23  27
ENDBRANCH  21  23
ENDBRANCH   1  19
TORSDOF 11
ENDMDL
MODEL 2
REMARK VINA RESULT:      -7.6     13.596     15.519
REMARK  11 active torsions:
REMARK  status: ('A' for Active; 'I' for Inactive)
REMARK    1  A    between atoms: N_5  and  C_18 
REMARK    2  A    between atoms: O_10  and  P_11 
REMARK    3  A    between atoms: P_11  and  O_12 
REMARK    4  A    between atoms: O_12  and  C_13 
REMARK    5  A    between atoms: C_16  and  C_17 
REMARK    6  A    between atoms: C_17  and  C_18 
REMARK    7  A    between atoms: C_18  and  C_19 
REMARK       I    between atoms: C_19  and  N_20 
REMARK    8  A    between atoms: N_20  and  C_24 
REMARK    9  A    between atoms: C_23  and  C_24 
REMARK   10  A    between atoms: C_24  and  C_25 
REMARK   11  A    between atoms: C_25  and  C_27 
REMARK       I    between atoms: N_26  and  C_27 
ROOT
HETATM    1  C           1     -33.749  -4.929 -15.439  0.00  0.00     0.278 C 
ENDROOT
BRANCH   1   2
HETATM    2  N           1     -34.903  -5.712 -15.993  0.00  0.00    -0.066 N 
HETATM    3  H           1     -34.680  -6.733 -15.961  0.00  0.00     0.275 HD
HETATM    4  H           1     -35.757  -5.526 -15.420  0.00  0.00     0.275 HD
HETATM    5  H           1     -35.076  -5.425 -16.982  0.00  0.00     0.275 HD
ENDBRANCH   1   2
BRANCH   1   6
HETATM    6  C           1     -33.216  -3.986 -16.510  0.00  0.00     0.081 C 
BRANCH   6   7
HETATM    7  C           1     -31.892  -4.485 -17.001  0.00  0.00    -0.056 A 
HETATM    8  C           1     -31.591  -5.846 -16.933  0.00  0.00     0.010 A 
HETATM    9  C           1     -30.358  -6.310 -17.391  0.00  0.00     0.038 A 
HETATM   10  C           1     -29.427  -5.415 -17.916  0.00  0.00     0.081 A 
HETATM   11  C           1     -29.728  -4.054 -17.984  0.00  0.00     0.038 A 
HETATM   12  C           1     -30.960  -3.590 -17.526  0.00  0.00     0.010 A 
BRANCH  10  13
HETATM   13  O           1     -28.229  -5.866 -18.361  0.00  0.00    -0.247 OA
BRANCH  13  14
HETATM   14  P           1     -27.050  -6.082 -17.277  0.00  0.00     0.411 P 
HETATM   15  O           1     -26.901  -4.857 -16.461  0.00  0.00    -0.624 OA
HETATM   16  O           1     -25.780  -6.365 -17.981  0.00  0.00    -0.624 OA
BRANCH  14  17
HETATM   17  O           1     -27.423  -7.327 -16.317  0.00  0.00    -0.300 OA
HETATM   18  H           1     -26.826  -7.260 -15.590  0.00  0.00     0.223 HD
ENDBRANCH  14  17
ENDBRANCH  13  14
ENDBRANCH  10  13
ENDBRANCH   6   7
ENDBRANCH   1   6
BRANCH   1  19
HETATM   19  C           1     -34.213  -4.127 -14.248  0.00  0.00     0.249 C 
HETATM   20  O           1     -34.611  -2.997 -14.400  0.00  0.00    -0.271 OA
HETATM   21  N           1     -34.182  -4.680 -12.996  0.00  0.00    -0.344 N 
HETATM   22  H           1     -33.848  -5.627 -12.870  0.00  0.00     0.163 HD
BRANCH  21  23
HETATM   23  C           1     -34.627  -3.909 -11.852  0.00  0.00     0.194 C 
BRANCH  23  24
HETATM   24  C           1     -33.525  -2.971 -11.420  0.00  0.00     0.197 C 
HETATM   25  O           1     -32.330  -3.322 -11.527  0.00  0.00    -0.646 OA
HETATM   26  O           1     -33.808  -1.846 -10.956  0.00  0.00    -0.646 OA
ENDBRANCH  23  24
BRANCH  23  27
HETATM   27  C           1     -34.968  -4.851 -10.706  0.00  0.00     0.138 C 
BRANCH  27  28
HETATM   28  C           1     -34.320  -6.192 -10.946  0.00  0.00     0.217 C 
HETATM   29  N           1     -35.096  -7.303 -11.137  0.00  0.00    -0.370 N 
HETATM   30  H           1     -34.662  -8.202 -11.299  0.00  0.00     0.159 HD
HETATM   31  H           1     -36.105  -7.224 -11.118  0.00  0.00     0.159 HD
HETATM   32  O           1     -33.115  -6.285 -10.969  0.00  0.00    -0.274 OA
ENDBRANCH  27  28
ENDBRANCH  23  27
ENDBRANCH  21  23
ENDBRANCH   1  19
TORSDOF 11
ENDMDL
MODEL 3
REMARK VINA RESULT:      -7.4     12.471     14.804
REMARK  11 active torsions:
REMARK  status: ('A' for Active; 'I' for Inactive)
REMARK    1  A    between atoms: N_5  and  C_18 
REMARK    2  A    between atoms: O_10  and  P_11 
REMARK    3  A    between atoms: P_11  and  O_12 
REMARK    4  A    between atoms: O_12  and  C_13 
REMARK    5  A    between atoms: C_16  and  C_17 
REMARK    6  A    between atoms: C_17  and  C_18 
REMARK    7  A    between atoms: C_18  and  C_19 
REMARK       I    between atoms: C_19  and  N_20 
REMARK    8  A    between atoms: N_20  and  C_24 
REMARK    9  A    between atoms: C_23  and  C_24 
REMARK   10  A    between atoms: C_24  and  C_25 
REMARK   11  A    between atoms: C_25  and  C_27 
REMARK       I    between atoms: N_26  and  C_27 
ROOT
HETATM    1  C           1     -32.823  -4.678 -16.939  0.00  0.00     0.278 C 
ENDROOT
BRANCH   1   2
HETATM    2  N           1     -31.797  -3.585 -16.887  0.00  0.00    -0.066 N 
HETATM    3  H           1     -31.651  -3.289 -15.895  0.00  0.00     0.275 HD
HETATM    4  H           1     -30.895  -3.934 -17.282  0.00  0.00     0.275 HD
HETATM    5  H           1     -32.130  -2.767 -17.447  0.00  0.00     0.275 HD
ENDBRANCH   1   2
BRANCH   1   6
HETATM    6  C           1     -32.121  -6.030 -16.965  0.00  0.00     0.081 C 
BRANCH   6   7
HETATM    7  C           1     -30.641  -5.826 -16.864  0.00  0.00    -0.056 A 
HETATM    8  C           1     -29.847  -5.900 -18.009  0.00  0.00     0.010 A 
HETATM    9  C           1     -28.468  -5.709 -17.914  0.00  0.00     0.038 A 
HETATM   10  C           1     -27.884  -5.446 -16.676  0.00  0.00     0.081 A 
HETATM   11  C           1     -28.677  -5.374 -15.531  0.00  0.00     0.038 A 
HETATM   12  C           1     -30.056  -5.564 -15.625  0.00  0.00     0.010 A 
BRANCH  10  13
HETATM   13  O           1     -26.545  -5.262 -16.584  0.00  0.00    -0.247 OA
BRANCH  13  14
HETATM   14  P           1     -25.651  -6.473 -15.996  0.00  0.00     0.411 P 
HETATM   15  O           1     -24.730  -6.961 -17.047  0.00  0.00    -0.624 OA
HETATM   16  O           1     -26.538  -7.576 -15.566  0.00  0.00    -0.624 OA
BRANCH  14  17
HETATM   17  O           1     -24.794  -5.946 -14.732  0.00  0.00    -0.300 OA
HETATM   18  H           1     -24.638  -6.714 -14.207  0.00  0.00     0.223 HD
ENDBRANCH  14  17
ENDBRANCH  13  14
ENDBRANCH  10  13
ENDBRANCH   6   7
ENDBRANCH   1   6
BRANCH   1  19
HETATM   19  C           1     -33.707  -4.594 -15.719  0.00  0.00     0.249 C 
HETATM   20  O           1     -34.861  -4.946 -15.785  0.00  0.00    -0.271 OA
HETATM   21  N           1     -33.203  -4.119 -14.539  0.00  0.00    -0.344 N 
HETATM   22  H           1     -32.236  -3.824 -14.485  0.00  0.00     0.163 HD
BRANCH  21  23
HETATM   23  C           1     -34.053  -4.037 -13.368  0.00  0.00     0.194 C 
BRANCH  23  24
HETATM   24  C           1     -34.509  -2.610 -13.177  0.00  0.00     0.197 C 
HETATM   25  O           1     -34.355  -2.049 -12.071  0.00  0.00    -0.646 OA
HETATM   26  O           1     -35.040  -1.992 -14.124  0.00  0.00    -0.646 OA
ENDBRANCH  23  24
BRANCH  23  27
HETATM   27  C           1     -33.273  -4.488 -12.141  0.00  0.00     0.138 C 
BRANCH  27  28
HETATM   28  C           1     -34.083  -5.504 -11.374  0.00  0.00     0.217 C 
HETATM   29  N           1     -34.823  -6.439 -12.048  0.00  0.00    -0.370 N 
HETATM   30  H           1     -35.365  -7.121 -11.534  0.00  0.00     0.159 HD
HETATM   31  H           1     -34.826  -6.448 -13.060  0.00  0.00     0.159 HD
HETATM   32  O           1     -34.079  -5.494 -10.166  0.00  0.00    -0.274 OA
ENDBRANCH  27  28
ENDBRANCH  23  27
ENDBRANCH  21  23
ENDBRANCH   1  19
TORSDOF 11
ENDMDL
MODEL 4
REMARK VINA RESULT:      -7.4      3.525      9.017
REMARK  11 active torsions:
REMARK  status: ('A' for Active; 'I' for Inactive)
REMARK    1  A    between atoms: N_5  and  C_18 
REMARK    2  A    between atoms: O_10  and  P_11 
REMARK    3  A    between atoms: P_11  and  O_12 
REMARK    4  A    between atoms: O_12  and  C_13 
REMARK    5  A    between atoms: C_16  and  C_17 
REMARK    6  A    between atoms: C_17  and  C_18 
REMARK    7  A    between atoms: C_18  and  C_19 
REMARK       I    between atoms: C_19  and  N_20 
REMARK    8  A    between atoms: N_20  and  C_24 
REMARK    9  A    between atoms: C_23  and  C_24 
REMARK   10  A    between atoms: C_24  and  C_25 
REMARK   11  A    between atoms: C_25  and  C_27 
REMARK       I    between atoms: N_26  and  C_27 
ROOT
HETATM    1  C           1     -20.349  -7.645  -5.221  0.00  0.00     0.278 C 
ENDROOT
BRANCH   1   2
HETATM    2  N           1     -21.395  -8.394  -5.992  0.00  0.00    -0.066 N 
HETATM    3  H           1     -20.972  -8.790  -6.862  0.00  0.00     0.275 HD
HETATM    4  H           1     -21.770  -9.172  -5.403  0.00  0.00     0.275 HD
HETATM    5  H           1     -22.172  -7.744  -6.249  0.00  0.00     0.275 HD
ENDBRANCH   1   2
BRANCH   1   6
HETATM    6  C           1     -20.826  -6.220  -4.972  0.00  0.00     0.081 C 
BRANCH   6   7
HETATM    7  C           1     -21.072  -5.540  -6.284  0.00  0.00    -0.056 A 
HETATM    8  C           1     -20.090  -5.559  -7.274  0.00  0.00     0.010 A 
HETATM    9  C           1     -20.320  -4.925  -8.496  0.00  0.00     0.038 A 
HETATM   10  C           1     -21.530  -4.273  -8.726  0.00  0.00     0.081 A 
HETATM   11  C           1     -22.512  -4.253  -7.735  0.00  0.00     0.038 A 
HETATM   12  C           1     -22.283  -4.886  -6.514  0.00  0.00     0.010 A 
BRANCH  10  13
HETATM   13  O           1     -21.753  -3.657  -9.913  0.00  0.00    -0.247 OA
BRANCH  13  14
HETATM   14  P           1     -23.030  -4.129 -10.783  0.00  0.00     0.411 P 
HETATM   15  O           1     -24.072  -3.079 -10.739  0.00  0.00    -0.624 OA
HETATM   16  O           1     -23.572  -5.386 -10.222  0.00  0.00    -0.624 OA
BRANCH  14  17
HETATM   17  O           1     -22.578  -4.373 -12.315  0.00  0.00    -0.300 OA
HETATM   18  H           1     -21.729  -3.970 -12.384  0.00  0.00     0.223 HD
ENDBRANCH  14  17
ENDBRANCH  13  14
ENDBRANCH  10  13
ENDBRANCH   6   7
ENDBRANCH   1   6
BRANCH   1  19
HETATM   19  C           1     -20.110  -8.334  -3.900  0.00  0.00     0.249 C 
HETATM   20  O           1     -19.038  -8.840  -3.668  0.00  0.00    -0.271 OA
HETATM   21  N           1     -21.109  -8.386  -2.965  0.00  0.00    -0.344 N 
HETATM   22  H           1     -22.007  -7.962  -3.160  0.00  0.00     0.163 HD
BRANCH  21  23
HETATM   23  C           1     -20.880  -9.049  -1.696  0.00  0.00     0.194 C 
BRANCH  23  24
HETATM   24  C           1     -21.891 -10.155  -1.518  0.00  0.00     0.197 C 
HETATM   25  O           1     -22.589 -10.524  -2.488  0.00  0.00    -0.646 OA
HETATM   26  O           1     -22.031 -10.701  -0.403  0.00  0.00    -0.646 OA
ENDBRANCH  23  24
BRANCH  23  27
HETATM   27  C           1     -21.026  -8.042  -0.563  0.00  0.00     0.138 C 
BRANCH  27  28
HETATM   28  C           1     -22.402  -7.424  -0.613  0.00  0.00     0.217 C 
HETATM   29  N           1     -23.379  -7.859   0.243  0.00  0.00    -0.370 N 
HETATM   30  H           1     -24.301  -7.445   0.210  0.00  0.00     0.159 HD
HETATM   31  H           1     -23.177  -8.594   0.909  0.00  0.00     0.159 HD
HETATM   32  O           1     -22.642  -6.546  -1.407  0.00  0.00    -0.274 OA
ENDBRANCH  27  28
ENDBRANCH  23  27
ENDBRANCH  21  23
ENDBRANCH   1  19
TORSDOF 11
ENDMDL
MODEL 5
REMARK VINA RESULT:      -7.4      3.793      8.595
REMARK  11 active torsions:
REMARK  status: ('A' for Active; 'I' for Inactive)
REMARK    1  A    between atoms: N_5  and  C_18 
REMARK    2  A    between atoms: O_10  and  P_11 
REMARK    3  A    between atoms: P_11  and  O_12 
REMARK    4  A    between atoms: O_12  and  C_13 
REMARK    5  A    between atoms: C_16  and  C_17 
REMARK    6  A    between atoms: C_17  and  C_18 
REMARK    7  A    between atoms: C_18  and  C_19 
REMARK       I    between atoms: C_19  and  N_20 
REMARK    8  A    between atoms: N_20  and  C_24 
REMARK    9  A    between atoms: C_23  and  C_24 
REMARK   10  A    between atoms: C_24  and  C_25 
REMARK   11  A    between atoms: C_25  and  C_27 
REMARK       I    between atoms: N_26  and  C_27 
ROOT
HETATM    1  C           1     -21.278  -6.367  -4.990  0.00  0.00     0.278 C 
ENDROOT
BRANCH   1   2
HETATM    2  N           1     -21.424  -5.920  -3.566  0.00  0.00    -0.066 N 
HETATM    3  H           1     -20.705  -6.396  -2.975  0.00  0.00     0.275 HD
HETATM    4  H           1     -21.289  -4.885  -3.510  0.00  0.00     0.275 HD
HETATM    5  H           1     -22.378  -6.167  -3.219  0.00  0.00     0.275 HD
ENDBRANCH   1   2
BRANCH   1   6
HETATM    6  C           1     -20.246  -5.492  -5.692  0.00  0.00     0.081 C 
BRANCH   6   7
HETATM    7  C           1     -20.816  -4.984  -6.980  0.00  0.00    -0.056 A 
HETATM    8  C           1     -20.084  -5.102  -8.162  0.00  0.00     0.010 A 
HETATM    9  C           1     -20.616  -4.628  -9.361  0.00  0.00     0.038 A 
HETATM   10  C           1     -21.879  -4.036  -9.379  0.00  0.00     0.081 A 
HETATM   11  C           1     -22.610  -3.917  -8.197  0.00  0.00     0.038 A 
HETATM   12  C           1     -22.079  -4.390  -6.998  0.00  0.00     0.010 A 
BRANCH  10  13
HETATM   13  O           1     -22.395  -3.576 -10.544  0.00  0.00    -0.247 OA
BRANCH  13  14
HETATM   14  P           1     -23.739  -4.275 -11.107  0.00  0.00     0.411 P 
HETATM   15  O           1     -24.870  -3.328 -10.997  0.00  0.00    -0.624 OA
HETATM   16  O           1     -24.031  -5.489 -10.313  0.00  0.00    -0.624 OA
BRANCH  14  17
HETATM   17  O           1     -23.526  -4.682 -12.656  0.00  0.00    -0.300 OA
HETATM   18  H           1     -23.382  -3.866 -13.104  0.00  0.00     0.223 HD
ENDBRANCH  14  17
ENDBRANCH  13  14
ENDBRANCH  10  13
ENDBRANCH   6   7
ENDBRANCH   1   6
BRANCH   1  19
HETATM   19  C           1     -20.822  -7.805  -5.020  0.00  0.00     0.249 C 
HETATM   20  O           1     -21.268  -8.562  -5.849  0.00  0.00    -0.271 OA
HETATM   21  N           1     -19.905  -8.251  -4.108  0.00  0.00    -0.344 N 
HETATM   22  H           1     -19.532  -7.617  -3.413  0.00  0.00     0.163 HD
BRANCH  21  23
HETATM   23  C           1     -19.469  -9.634  -4.136  0.00  0.00     0.194 C 
BRANCH  23  24
HETATM   24  C           1     -20.008 -10.355  -2.924  0.00  0.00     0.197 C 
HETATM   25  O           1     -19.285 -10.508  -1.916  0.00  0.00    -0.646 OA
HETATM   26  O           1     -21.176 -10.800  -2.930  0.00  0.00    -0.646 OA
ENDBRANCH  23  24
BRANCH  23  27
HETATM   27  C           1     -17.947  -9.687  -4.121  0.00  0.00     0.138 C 
BRANCH  27  28
HETATM   28  C           1     -17.432  -9.775  -5.536  0.00  0.00     0.217 C 
HETATM   29  N           1     -16.090  -9.915  -5.769  0.00  0.00    -0.370 N 
HETATM   30  H           1     -15.745  -9.974  -6.718  0.00  0.00     0.159 HD
HETATM   31  H           1     -15.444  -9.959  -4.991  0.00  0.00     0.159 HD
HETATM   32  O           1     -18.204  -9.722  -6.465  0.00  0.00    -0.274 OA
ENDBRANCH  27  28
ENDBRANCH  23  27
ENDBRANCH  21  23
ENDBRANCH   1  19
TORSDOF 11
ENDMDL
MODEL 6
REMARK VINA RESULT:      -7.1      3.863      8.808
REMARK  11 active torsions:
REMARK  status: ('A' for Active; 'I' for Inactive)
REMARK    1  A    between atoms: N_5  and  C_18 
REMARK    2  A    between atoms: O_10  and  P_11 
REMARK    3  A    between atoms: P_11  and  O_12 
REMARK    4  A    between atoms: O_12  and  C_13 
REMARK    5  A    between atoms: C_16  and  C_17 
REMARK    6  A    between atoms: C_17  and  C_18 
REMARK    7  A    between atoms: C_18  and  C_19 
REMARK       I    between atoms: C_19  and  N_20 
REMARK    8  A    between atoms: N_20  and  C_24 
REMARK    9  A    between atoms: C_23  and  C_24 
REMARK   10  A    between atoms: C_24  and  C_25 
REMARK   11  A    between atoms: C_25  and  C_27 
REMARK       I    between atoms: N_26  and  C_27 
ROOT
HETATM    1  C           1     -21.520  -6.521  -4.934  0.00  0.00     0.278 C 
ENDROOT
BRANCH   1   2
HETATM    2  N           1     -21.985  -6.081  -3.577  0.00  0.00    -0.066 N 
HETATM    3  H           1     -21.710  -6.796  -2.865  0.00  0.00     0.275 HD
HETATM    4  H           1     -21.543  -5.165  -3.338  0.00  0.00     0.275 HD
HETATM    5  H           1     -23.025  -5.977  -3.581  0.00  0.00     0.275 HD
ENDBRANCH   1   2
BRANCH   1   6
HETATM    6  C           1     -20.536  -5.499  -5.488  0.00  0.00     0.081 C 
BRANCH   6   7
HETATM    7  C           1     -21.017  -5.013  -6.821  0.00  0.00    -0.056 A 
HETATM    8  C           1     -20.178  -5.083  -7.933  0.00  0.00     0.010 A 
HETATM    9  C           1     -20.627  -4.631  -9.174  0.00  0.00     0.038 A 
HETATM   10  C           1     -21.914  -4.108  -9.302  0.00  0.00     0.081 A 
HETATM   11  C           1     -22.752  -4.037  -8.190  0.00  0.00     0.038 A 
HETATM   12  C           1     -22.304  -4.489  -6.949  0.00  0.00     0.010 A 
BRANCH  10  13
HETATM   13  O           1     -22.349  -3.668 -10.507  0.00  0.00    -0.247 OA
BRANCH  13  14
HETATM   14  P           1     -23.702  -4.318 -11.108  0.00  0.00     0.411 P 
HETATM   15  O           1     -24.813  -3.349 -10.977  0.00  0.00    -0.624 OA
HETATM   16  O           1     -24.031  -5.551 -10.359  0.00  0.00    -0.624 OA
BRANCH  14  17
HETATM   17  O           1     -23.481  -4.677 -12.667  0.00  0.00    -0.300 OA
HETATM   18  H           1     -24.350  -4.753 -13.024  0.00  0.00     0.223 HD
ENDBRANCH  14  17
ENDBRANCH  13  14
ENDBRANCH  10  13
ENDBRANCH   6   7
ENDBRANCH   1   6
BRANCH   1  19
HETATM   19  C           1     -20.841  -7.864  -4.821  0.00  0.00     0.249 C 
HETATM   20  O           1     -19.689  -7.988  -5.162  0.00  0.00    -0.271 OA
HETATM   21  N           1     -21.531  -8.941  -4.334  0.00  0.00    -0.344 N 
HETATM   22  H           1     -22.497  -8.836  -4.050  0.00  0.00     0.163 HD
BRANCH  21  23
HETATM   23  C           1     -20.879 -10.231  -4.227  0.00  0.00     0.194 C 
BRANCH  23  24
HETATM   24  C           1     -21.387 -11.143  -5.319  0.00  0.00     0.197 C 
HETATM   25  O           1     -21.025 -10.961  -6.501  0.00  0.00    -0.646 OA
HETATM   26  O           1     -22.168 -12.077  -5.039  0.00  0.00    -0.646 OA
ENDBRANCH  23  24
BRANCH  23  27
HETATM   27  C           1     -21.189 -10.846  -2.869  0.00  0.00     0.138 C 
BRANCH  27  28
HETATM   28  C           1     -20.167 -10.382  -1.861  0.00  0.00     0.217 C 
HETATM   29  N           1     -20.129 -10.947  -0.614  0.00  0.00    -0.370 N 
HETATM   30  H           1     -19.444 -10.636   0.061  0.00  0.00     0.159 HD
HETATM   31  H           1     -20.787 -11.677  -0.370  0.00  0.00     0.159 HD
HETATM   32  O           1     -19.382  -9.511  -2.153  0.00  0.00    -0.274 OA
ENDBRANCH  27  28
ENDBRANCH  23  27
ENDBRANCH  21  23
ENDBRANCH   1  19
TORSDOF 11
ENDMDL
MODEL 7
REMARK VINA RESULT:      -6.9      1.598      2.956
REMARK  11 active torsions:
REMARK  status: ('A' for Active; 'I' for Inactive)
REMARK    1  A    between atoms: N_5  and  C_18 
REMARK    2  A    between atoms: O_10  and  P_11 
REMARK    3  A    between atoms: P_11  and  O_12 
REMARK    4  A    between atoms: O_12  and  C_13 
REMARK    5  A    between atoms: C_16  and  C_17 
REMARK    6  A    between atoms: C_17  and  C_18 
REMARK    7  A    between atoms: C_18  and  C_19 
REMARK       I    between atoms: C_19  and  N_20 
REMARK    8  A    between atoms: N_20  and  C_24 
REMARK    9  A    between atoms: C_23  and  C_24 
REMARK   10  A    between atoms: C_24  and  C_25 
REMARK   11  A    between atoms: C_25  and  C_27 
REMARK       I    between atoms: N_26  and  C_27 
ROOT
HETATM    1  C           1     -20.279  -5.440  -6.849  0.00  0.00     0.278 C 
ENDROOT
BRANCH   1   2
HETATM    2  N           1     -19.093  -4.547  -7.067  0.00  0.00    -0.066 N 
HETATM    3  H           1     -19.396  -3.677  -7.562  0.00  0.00     0.275 HD
HETATM    4  H           1     -18.675  -4.293  -6.143  0.00  0.00     0.275 HD
HETATM    5  H           1     -18.381  -5.046  -7.647  0.00  0.00     0.275 HD
ENDBRANCH   1   2
BRANCH   1   6
HETATM    6  C           1     -20.923  -5.109  -5.509  0.00  0.00     0.081 C 
BRANCH   6   7
HETATM    7  C           1     -20.847  -6.305  -4.610  0.00  0.00    -0.056 A 
HETATM    8  C           1     -20.253  -7.482  -5.065  0.00  0.00     0.010 A 
HETATM    9  C           1     -20.182  -8.596  -4.227  0.00  0.00     0.038 A 
HETATM   10  C           1     -20.706  -8.531  -2.937  0.00  0.00     0.081 A 
HETATM   11  C           1     -21.302  -7.355  -2.482  0.00  0.00     0.038 A 
HETATM   12  C           1     -21.372  -6.241  -3.319  0.00  0.00     0.010 A 
BRANCH  10  13
HETATM   13  O           1     -20.638  -9.613  -2.123  0.00  0.00    -0.247 OA
BRANCH  13  14
HETATM   14  P           1     -21.963 -10.525  -1.961  0.00  0.00     0.411 P 
HETATM   15  O           1     -22.648 -10.634  -3.268  0.00  0.00    -0.624 OA
HETATM   16  O           1     -22.873  -9.900  -0.976  0.00  0.00    -0.624 OA
BRANCH  14  17
HETATM   17  O           1     -21.543 -11.998  -1.448  0.00  0.00    -0.300 OA
HETATM   18  H           1     -21.786 -12.016  -0.537  0.00  0.00     0.223 HD
ENDBRANCH  14  17
ENDBRANCH  13  14
ENDBRANCH  10  13
ENDBRANCH   6   7
ENDBRANCH   1   6
BRANCH   1  19
HETATM   19  C           1     -21.281  -5.221  -7.956  0.00  0.00     0.249 C 
HETATM   20  O           1     -22.323  -5.831  -7.956  0.00  0.00    -0.271 OA
HETATM   21  N           1     -21.007  -4.333  -8.961  0.00  0.00    -0.344 N 
HETATM   22  H           1     -20.133  -3.822  -8.961  0.00  0.00     0.163 HD
BRANCH  21  23
HETATM   23  C           1     -21.970  -4.124 -10.025  0.00  0.00     0.194 C 
BRANCH  23  24
HETATM   24  C           1     -21.277  -3.498 -11.212  0.00  0.00     0.197 C 
HETATM   25  O           1     -20.163  -3.928 -11.582  0.00  0.00    -0.646 OA
HETATM   26  O           1     -21.817  -2.551 -11.823  0.00  0.00    -0.646 OA
ENDBRANCH  23  24
BRANCH  23  27
HETATM   27  C           1     -23.074  -3.196  -9.537  0.00  0.00     0.138 C 
BRANCH  27  28
HETATM   28  C           1     -24.411  -3.713 -10.008  0.00  0.00     0.217 C 
HETATM   29  N           1     -24.954  -4.830  -9.432  0.00  0.00    -0.370 N 
HETATM   30  H           1     -25.851  -5.177  -9.747  0.00  0.00     0.159 HD
HETATM   31  H           1     -24.459  -5.308  -8.690  0.00  0.00     0.159 HD
HETATM   32  O           1     -25.002  -3.142 -10.894  0.00  0.00    -0.274 OA
ENDBRANCH  27  28
ENDBRANCH  23  27
ENDBRANCH  21  23
ENDBRANCH   1  19
TORSDOF 11
ENDMDL
MODEL 8
REMARK VINA RESULT:      -6.9      4.138      8.570
REMARK  11 active torsions:
REMARK  status: ('A' for Active; 'I' for Inactive)
REMARK    1  A    between atoms: N_5  and  C_18 
REMARK    2  A    between atoms: O_10  and  P_11 
REMARK    3  A    between atoms: P_11  and  O_12 
REMARK    4  A    between atoms: O_12  and  C_13 
REMARK    5  A    between atoms: C_16  and  C_17 
REMARK    6  A    between atoms: C_17  and  C_18 
REMARK    7  A    between atoms: C_18  and  C_19 
REMARK       I    between atoms: C_19  and  N_20 
REMARK    8  A    between atoms: N_20  and  C_24 
REMARK    9  A    between atoms: C_23  and  C_24 
REMARK   10  A    between atoms: C_24  and  C_25 
REMARK   11  A    between atoms: C_25  and  C_27 
REMARK       I    between atoms: N_26  and  C_27 
ROOT
HETATM    1  C           1     -21.647  -6.690  -4.742  0.00  0.00     0.278 C 
ENDROOT
BRANCH   1   2
HETATM    2  N           1     -21.763  -5.998  -3.416  0.00  0.00    -0.066 N 
HETATM    3  H           1     -22.650  -6.289  -2.947  0.00  0.00     0.275 HD
HETATM    4  H           1     -20.949  -6.260  -2.815  0.00  0.00     0.275 HD
HETATM    5  H           1     -21.770  -4.963  -3.562  0.00  0.00     0.275 HD
ENDBRANCH   1   2
BRANCH   1   6
HETATM    6  C           1     -20.492  -6.084  -5.531  0.00  0.00     0.081 C 
BRANCH   6   7
HETATM    7  C           1     -21.024  -5.408  -6.757  0.00  0.00    -0.056 A 
HETATM    8  C           1     -22.281  -4.804  -6.730  0.00  0.00     0.010 A 
HETATM    9  C           1     -22.776  -4.174  -7.872  0.00  0.00     0.038 A 
HETATM   10  C           1     -22.014  -4.150  -9.040  0.00  0.00     0.081 A 
HETATM   11  C           1     -20.758  -4.755  -9.067  0.00  0.00     0.038 A 
HETATM   12  C           1     -20.263  -5.384  -7.926  0.00  0.00     0.010 A 
BRANCH  10  13
HETATM   13  O           1     -22.496  -3.538 -10.150  0.00  0.00    -0.247 OA
BRANCH  13  14
HETATM   14  P           1     -23.729  -4.237 -10.926  0.00  0.00     0.411 P 
HETATM   15  O           1     -24.893  -3.324 -10.921  0.00  0.00    -0.624 OA
HETATM   16  O           1     -24.088  -5.500 -10.244  0.00  0.00    -0.624 OA
BRANCH  14  17
HETATM   17  O           1     -23.297  -4.551 -12.451  0.00  0.00    -0.300 OA
HETATM   18  H           1     -24.094  -4.815 -12.879  0.00  0.00     0.223 HD
ENDBRANCH  14  17
ENDBRANCH  13  14
ENDBRANCH  10  13
ENDBRANCH   6   7
ENDBRANCH   1   6
BRANCH   1  19
HETATM   19  C           1     -21.389  -8.159  -4.520  0.00  0.00     0.249 C 
HETATM   20  O           1     -21.523  -8.636  -3.418  0.00  0.00    -0.271 OA
HETATM   21  N           1     -21.000  -8.952  -5.566  0.00  0.00    -0.344 N 
HETATM   22  H           1     -20.887  -8.552  -6.489  0.00  0.00     0.163 HD
BRANCH  21  23
HETATM   23  C           1     -20.751 -10.364  -5.352  0.00  0.00     0.194 C 
BRANCH  23  24
HETATM   24  C           1     -19.264 -10.623  -5.392  0.00  0.00     0.197 C 
HETATM   25  O           1     -18.635 -10.487  -6.464  0.00  0.00    -0.646 OA
HETATM   26  O           1     -18.663 -10.972  -4.353  0.00  0.00    -0.646 OA
ENDBRANCH  23  24
BRANCH  23  27
HETATM   27  C           1     -21.435 -11.173  -6.446  0.00  0.00     0.138 C 
BRANCH  27  28
HETATM   28  C           1     -21.711 -12.568  -5.942  0.00  0.00     0.217 C 
HETATM   29  N           1     -22.636 -12.768  -4.952  0.00  0.00    -0.370 N 
HETATM   30  H           1     -22.822 -13.703  -4.615  0.00  0.00     0.159 HD
HETATM   31  H           1     -23.133 -11.979  -4.558  0.00  0.00     0.159 HD
HETATM   32  O           1     -21.118 -13.509  -6.413  0.00  0.00    -0.274 OA
ENDBRANCH  27  28
ENDBRANCH  23  27
ENDBRANCH  21  23
ENDBRANCH   1  19
TORSDOF 11
ENDMDL
MODEL 9
REMARK VINA RESULT:      -6.8      3.467      9.030
REMARK  11 active torsions:
REMARK  status: ('A' for Active; 'I' for Inactive)
REMARK    1  A    between atoms: N_5  and  C_18 
REMARK    2  A    between atoms: O_10  and  P_11 
REMARK    3  A    between atoms: P_11  and  O_12 
REMARK    4  A    between atoms: O_12  and  C_13 
REMARK    5  A    between atoms: C_16  and  C_17 
REMARK    6  A    between atoms: C_17  and  C_18 
REMARK    7  A    between atoms: C_18  and  C_19 
REMARK       I    between atoms: C_19  and  N_20 
REMARK    8  A    between atoms: N_20  and  C_24 
REMARK    9  A    between atoms: C_23  and  C_24 
REMARK   10  A    between atoms: C_24  and  C_25 
REMARK   11  A    between atoms: C_25  and  C_27 
REMARK       I    between atoms: N_26  and  C_27 
ROOT
HETATM    1  C           1     -20.641  -7.354  -5.039  0.00  0.00     0.278 C 
ENDROOT
BRANCH   1   2
HETATM    2  N           1     -21.231  -7.844  -6.328  0.00  0.00    -0.066 N 
HETATM    3  H           1     -22.265  -7.955  -6.219  0.00  0.00     0.275 HD
HETATM    4  H           1     -21.035  -7.151  -7.086  0.00  0.00     0.275 HD
HETATM    5  H           1     -20.807  -8.765  -6.578  0.00  0.00     0.275 HD
ENDBRANCH   1   2
BRANCH   1   6
HETATM    6  C           1     -20.932  -5.866  -4.882  0.00  0.00     0.081 C 
BRANCH   6   7
HETATM    7  C           1     -21.169  -5.259  -6.230  0.00  0.00    -0.056 A 
HETATM    8  C           1     -22.439  -4.795  -6.572  0.00  0.00     0.010 A 
HETATM    9  C           1     -22.659  -4.228  -7.828  0.00  0.00     0.038 A 
HETATM   10  C           1     -21.609  -4.126  -8.740  0.00  0.00     0.081 A 
HETATM   11  C           1     -20.339  -4.591  -8.399  0.00  0.00     0.038 A 
HETATM   12  C           1     -20.119  -5.157  -7.143  0.00  0.00     0.010 A 
BRANCH  10  13
HETATM   13  O           1     -21.824  -3.576  -9.960  0.00  0.00    -0.247 OA
BRANCH  13  14
HETATM   14  P           1     -23.087  -4.103 -10.818  0.00  0.00     0.411 P 
HETATM   15  O           1     -24.159  -3.083 -10.793  0.00  0.00    -0.624 OA
HETATM   16  O           1     -23.591  -5.364 -10.230  0.00  0.00    -0.624 OA
BRANCH  14  17
HETATM   17  O           1     -22.630  -4.365 -12.345  0.00  0.00    -0.300 OA
HETATM   18  H           1     -23.367  -4.098 -12.869  0.00  0.00     0.223 HD
ENDBRANCH  14  17
ENDBRANCH  13  14
ENDBRANCH  10  13
ENDBRANCH   6   7
ENDBRANCH   1   6
BRANCH   1  19
HETATM   19  C           1     -21.254  -8.111  -3.887  0.00  0.00     0.249 C 
HETATM   20  O           1     -21.895  -9.113  -4.097  0.00  0.00    -0.271 OA
HETATM   21  N           1     -21.085  -7.662  -2.605  0.00  0.00    -0.344 N 
HETATM   22  H           1     -20.548  -6.822  -2.430  0.00  0.00     0.163 HD
BRANCH  21  23
HETATM   23  C           1     -21.675  -8.389  -1.499  0.00  0.00     0.194 C 
BRANCH  23  24
HETATM   24  C           1     -22.464  -7.434  -0.635  0.00  0.00     0.197 C 
HETATM   25  O           1     -23.037  -7.852   0.395  0.00  0.00    -0.646 OA
HETATM   26  O           1     -22.544  -6.227  -0.949  0.00  0.00    -0.646 OA
ENDBRANCH  23  24
BRANCH  23  27
HETATM   27  C           1     -20.573  -9.032  -0.667  0.00  0.00     0.138 C 
BRANCH  27  28
HETATM   28  C           1     -20.620 -10.530  -0.840  0.00  0.00     0.217 C 
HETATM   29  N           1     -21.456 -11.085  -1.772  0.00  0.00    -0.370 N 
HETATM   30  H           1     -21.487 -12.089  -1.889  0.00  0.00     0.159 HD
HETATM   31  H           1     -22.041 -10.490  -2.345  0.00  0.00     0.159 HD
HETATM   32  O           1     -19.921 -11.240  -0.157  0.00  0.00    -0.274 OA
ENDBRANCH  27  28
ENDBRANCH  23  27
ENDBRANCH  21  23
ENDBRANCH   1  19
TORSDOF 11
ENDMDL
