MODEL 1
REMARK VINA RESULT:      -7.5      0.000      0.000
REMARK  11 active torsions:
REMARK  status: ('A' for Active; 'I' for Inactive)
REMARK    1  A    between atoms: N_3  and  C_6 
REMARK    2  A    between atoms: Se_4  and  C_5 
REMARK    3  A    between atoms: C_5  and  C_6 
REMARK    4  A    between atoms: C_6  and  C_7 
REMARK       I    between atoms: C_7  and  N_8 
REMARK    5  A    between atoms: N_8  and  C_21 
REMARK    6  A    between atoms: O_12  and  P_14 
REMARK    7  A    between atoms: P_14  and  O_15 
REMARK    8  A    between atoms: O_15  and  C_16 
REMARK    9  A    between atoms: C_19  and  C_20 
REMARK   10  A    between atoms: C_20  and  C_21 
REMARK   11  A    between atoms: C_21  and  C_23 
ROOT
HETATM    1  C           1     -32.489  -4.340 -16.237  0.00  0.00     0.189 C 
ENDROOT
BRANCH   1   2
HETATM    2  N           1     -33.807  -4.559 -15.673  0.00  0.00    -0.344 N 
HETATM    3  C           1     -34.153  -3.961 -14.491  0.00  0.00     0.249 C 
HETATM    4  O           1     -34.669  -2.868 -14.495  0.00  0.00    -0.271 OA
HETATM    5  H           1     -34.470  -5.154 -16.153  0.00  0.00     0.163 HD
BRANCH   3   6
HETATM    6  C           1     -33.893  -4.668 -13.183  0.00  0.00     0.274 C 
BRANCH   6   7
HETATM    7  N           1     -32.455  -4.484 -12.796  0.00  0.00    -0.067 N 
HETATM    8  H           1     -32.212  -5.152 -12.029  0.00  0.00     0.275 HD
HETATM    9  H           1     -31.845  -4.670 -13.624  0.00  0.00     0.275 HD
HETATM   10  H           1     -32.305  -3.504 -12.464  0.00  0.00     0.275 HD
ENDBRANCH   6   7
BRANCH   6  11
HETATM   11  C           1     -34.787  -4.078 -12.100  0.00  0.00     0.045 C 
BRANCH  11  12
HETATM   12 Se           1     -33.722  -2.962 -10.911  0.00  0.00     0.000 Se
HETATM   13  H           1     -32.826  -4.055 -10.498  0.00  0.00     0.000 HD
ENDBRANCH  11  12
ENDBRANCH   6  11
ENDBRANCH   3   6
ENDBRANCH   1   2
BRANCH   1  14
HETATM   14  C           1     -31.965  -5.645 -16.823  0.00  0.00     0.074 C 
BRANCH  14  15
HETATM   15  C           1     -30.468  -5.627 -16.821  0.00  0.00    -0.056 A 
HETATM   16  C           1     -29.765  -6.039 -17.954  0.00  0.00     0.010 A 
HETATM   17  C           1     -28.370  -6.022 -17.952  0.00  0.00     0.038 A 
HETATM   18  C           1     -27.679  -5.595 -16.818  0.00  0.00     0.081 A 
HETATM   19  C           1     -28.382  -5.182 -15.686  0.00  0.00     0.038 A 
HETATM   20  C           1     -29.777  -5.199 -15.688  0.00  0.00     0.010 A 
BRANCH  18  21
HETATM   21  O           1     -26.324  -5.578 -16.817  0.00  0.00    -0.247 OA
BRANCH  21  22
HETATM   22  P           1     -25.553  -6.679 -15.923  0.00  0.00     0.411 P 
HETATM   23  O           1     -26.532  -7.650 -15.384  0.00  0.00    -0.624 OA
HETATM   24  O           1     -24.562  -7.392 -16.760  0.00  0.00    -0.624 OA
BRANCH  22  25
HETATM   25  O           1     -24.795  -5.944 -14.701  0.00  0.00    -0.300 OA
HETATM   26  H           1     -24.465  -5.140 -15.066  0.00  0.00     0.223 HD
ENDBRANCH  22  25
ENDBRANCH  21  22
ENDBRANCH  18  21
ENDBRANCH  14  15
ENDBRANCH   1  14
BRANCH   1  27
HETATM   27  C           1     -32.576  -3.298 -17.326  0.00  0.00     0.197 C 
HETATM   28  O           1     -33.668  -2.742 -17.573  0.00  0.00    -0.646 OA
HETATM   29  O           1     -31.556  -2.993 -17.980  0.00  0.00    -0.646 OA
ENDBRANCH   1  27
TORSDOF 11
ENDMDL
MODEL 2
REMARK VINA RESULT:      -6.8     11.814     14.261
REMARK  11 active torsions:
REMARK  status: ('A' for Active; 'I' for Inactive)
REMARK    1  A    between atoms: N_3  and  C_6 
REMARK    2  A    between atoms: Se_4  and  C_5 
REMARK    3  A    between atoms: C_5  and  C_6 
REMARK    4  A    between atoms: C_6  and  C_7 
REMARK       I    between atoms: C_7  and  N_8 
REMARK    5  A    between atoms: N_8  and  C_21 
REMARK    6  A    between atoms: O_12  and  P_14 
REMARK    7  A    between atoms: P_14  and  O_15 
REMARK    8  A    between atoms: O_15  and  C_16 
REMARK    9  A    between atoms: C_19  and  C_20 
REMARK   10  A    between atoms: C_20  and  C_21 
REMARK   11  A    between atoms: C_21  and  C_23 
ROOT
HETATM    1  C           1     -21.524  -7.269  -5.205  0.00  0.00     0.189 C 
ENDROOT
BRANCH   1   2
HETATM    2  N           1     -22.384  -6.939  -4.085  0.00  0.00    -0.344 N 
HETATM    3  C           1     -21.836  -6.652  -2.863  0.00  0.00     0.249 C 
HETATM    4  O           1     -21.543  -5.514  -2.584  0.00  0.00    -0.271 OA
HETATM    5  H           1     -23.388  -6.919  -4.206  0.00  0.00     0.163 HD
BRANCH   3   6
HETATM    6  C           1     -21.599  -7.759  -1.864  0.00  0.00     0.274 C 
BRANCH   6   7
HETATM    7  N           1     -20.125  -7.911  -1.629  0.00  0.00    -0.067 N 
HETATM    8  H           1     -19.704  -8.471  -2.404  0.00  0.00     0.275 HD
HETATM    9  H           1     -19.679  -6.966  -1.602  0.00  0.00     0.275 HD
HETATM   10  H           1     -19.966  -8.399  -0.720  0.00  0.00     0.275 HD
ENDBRANCH   6   7
BRANCH   6  11
HETATM   11  C           1     -22.288  -7.413  -0.550  0.00  0.00     0.045 C 
BRANCH  11  12
HETATM   12 Se           1     -21.529  -8.489   0.886  0.00  0.00     0.000 Se
HETATM   13  H           1     -22.832  -8.796   1.500  0.00  0.00     0.000 HD
ENDBRANCH  11  12
ENDBRANCH   6  11
ENDBRANCH   3   6
ENDBRANCH   1   2
BRANCH   1  14
HETATM   14  C           1     -20.629  -6.079  -5.525  0.00  0.00     0.074 C 
BRANCH  14  15
HETATM   15  C           1     -21.097  -5.427  -6.789  0.00  0.00    -0.056 A 
HETATM   16  C           1     -22.339  -4.793  -6.827  0.00  0.00     0.010 A 
HETATM   17  C           1     -22.775  -4.186  -8.006  0.00  0.00     0.038 A 
HETATM   18  C           1     -21.969  -4.214  -9.144  0.00  0.00     0.081 A 
HETATM   19  C           1     -20.728  -4.848  -9.105  0.00  0.00     0.038 A 
HETATM   20  C           1     -20.292  -5.455  -7.927  0.00  0.00     0.010 A 
BRANCH  18  21
HETATM   21  O           1     -22.393  -3.624 -10.288  0.00  0.00    -0.247 OA
BRANCH  21  22
HETATM   22  P           1     -23.672  -4.259 -11.041  0.00  0.00     0.411 P 
HETATM   23  O           1     -24.077  -5.508 -10.356  0.00  0.00    -0.624 OA
HETATM   24  O           1     -24.794  -3.295 -11.010  0.00  0.00    -0.624 OA
BRANCH  22  25
HETATM   25  O           1     -23.285  -4.587 -12.574  0.00  0.00    -0.300 OA
HETATM   26  H           1     -22.678  -5.306 -12.525  0.00  0.00     0.223 HD
ENDBRANCH  22  25
ENDBRANCH  21  22
ENDBRANCH  18  21
ENDBRANCH  14  15
ENDBRANCH   1  14
BRANCH   1  27
HETATM   27  C           1     -20.669  -8.460  -4.847  0.00  0.00     0.197 C 
HETATM   28  O           1     -19.444  -8.312  -4.644  0.00  0.00    -0.646 OA
HETATM   29  O           1     -21.185  -9.595  -4.753  0.00  0.00    -0.646 OA
ENDBRANCH   1  27
TORSDOF 11
ENDMDL
MODEL 3
REMARK VINA RESULT:      -6.7     11.813     14.307
REMARK  11 active torsions:
REMARK  status: ('A' for Active; 'I' for Inactive)
REMARK    1  A    between atoms: N_3  and  C_6 
REMARK    2  A    between atoms: Se_4  and  C_5 
REMARK    3  A    between atoms: C_5  and  C_6 
REMARK    4  A    between atoms: C_6  and  C_7 
REMARK       I    between atoms: C_7  and  N_8 
REMARK    5  A    between atoms: N_8  and  C_21 
REMARK    6  A    between atoms: O_12  and  P_14 
REMARK    7  A    between atoms: P_14  and  O_15 
REMARK    8  A    between atoms: O_15  and  C_16 
REMARK    9  A    between atoms: C_19  and  C_20 
REMARK   10  A    between atoms: C_20  and  C_21 
REMARK   11  A    between atoms: C_21  and  C_23 
ROOT
HETATM    1  C           1     -21.099  -7.811  -5.465  0.00  0.00     0.189 C 
ENDROOT
BRANCH   1   2
HETATM    2  N           1     -22.134  -7.638  -4.464  0.00  0.00    -0.344 N 
HETATM    3  C           1     -21.819  -7.124  -3.235  0.00  0.00     0.249 C 
HETATM    4  O           1     -21.862  -5.931  -3.050  0.00  0.00    -0.271 OA
HETATM    5  H           1     -23.090  -7.896  -4.675  0.00  0.00     0.163 HD
BRANCH   3   6
HETATM    6  C           1     -21.418  -8.048  -2.112  0.00  0.00     0.274 C 
BRANCH   6   7
HETATM    7  N           1     -19.939  -7.941  -1.883  0.00  0.00    -0.067 N 
HETATM    8  H           1     -19.454  -8.735  -2.359  0.00  0.00     0.275 HD
HETATM    9  H           1     -19.591  -7.037  -2.274  0.00  0.00     0.275 HD
HETATM   10  H           1     -19.741  -7.977  -0.857  0.00  0.00     0.275 HD
ENDBRANCH   6   7
BRANCH   6  11
HETATM   11  C           1     -22.156  -7.651  -0.840  0.00  0.00     0.045 C 
BRANCH  11  12
HETATM   12 Se           1     -22.898  -9.241   0.006  0.00  0.00     0.000 Se
HETATM   13  H           1     -24.113  -8.562   0.485  0.00  0.00     0.000 HD
ENDBRANCH  11  12
ENDBRANCH   6  11
ENDBRANCH   3   6
ENDBRANCH   1   2
BRANCH   1  14
HETATM   14  C           1     -20.309  -6.517  -5.605  0.00  0.00     0.074 C 
BRANCH  14  15
HETATM   15  C           1     -20.902  -5.686  -6.702  0.00  0.00    -0.056 A 
HETATM   16  C           1     -20.218  -5.533  -7.908  0.00  0.00     0.010 A 
HETATM   17  C           1     -20.771  -4.760  -8.929  0.00  0.00     0.038 A 
HETATM   18  C           1     -22.007  -4.140  -8.743  0.00  0.00     0.081 A 
HETATM   19  C           1     -22.691  -4.294  -7.538  0.00  0.00     0.038 A 
HETATM   20  C           1     -22.137  -5.067  -6.516  0.00  0.00     0.010 A 
BRANCH  18  21
HETATM   21  O           1     -22.544  -3.389  -9.736  0.00  0.00    -0.247 OA
BRANCH  21  22
HETATM   22  P           1     -23.567  -4.106 -10.759  0.00  0.00     0.411 P 
HETATM   23  O           1     -22.929  -4.230 -12.089  0.00  0.00    -0.624 OA
HETATM   24  O           1     -23.913  -5.452 -10.251  0.00  0.00    -0.624 OA
BRANCH  22  25
HETATM   25  O           1     -24.909  -3.217 -10.887  0.00  0.00    -0.300 OA
HETATM   26  H           1     -24.721  -2.585 -11.560  0.00  0.00     0.223 HD
ENDBRANCH  22  25
ENDBRANCH  21  22
ENDBRANCH  18  21
ENDBRANCH  14  15
ENDBRANCH   1  14
BRANCH   1  27
HETATM   27  C           1     -20.171  -8.923  -5.040  0.00  0.00     0.197 C 
HETATM   28  O           1     -18.983  -8.669  -4.748  0.00  0.00    -0.646 OA
HETATM   29  O           1     -20.592 -10.099  -4.980  0.00  0.00    -0.646 OA
ENDBRANCH   1  27
TORSDOF 11
ENDMDL
MODEL 4
REMARK VINA RESULT:      -6.2     12.685     15.302
REMARK  11 active torsions:
REMARK  status: ('A' for Active; 'I' for Inactive)
REMARK    1  A    between atoms: N_3  and  C_6 
REMARK    2  A    between atoms: Se_4  and  C_5 
REMARK    3  A    between atoms: C_5  and  C_6 
REMARK    4  A    between atoms: C_6  and  C_7 
REMARK       I    between atoms: C_7  and  N_8 
REMARK    5  A    between atoms: N_8  and  C_21 
REMARK    6  A    between atoms: O_12  and  P_14 
REMARK    7  A    between atoms: P_14  and  O_15 
REMARK    8  A    between atoms: O_15  and  C_16 
REMARK    9  A    between atoms: C_19  and  C_20 
REMARK   10  A    between atoms: C_20  and  C_21 
REMARK   11  A    between atoms: C_21  and  C_23 
ROOT
HETATM    1  C           1     -20.901  -7.421  -3.705  0.00  0.00     0.189 C 
ENDROOT
BRANCH   1   2
HETATM    2  N           1     -20.467  -8.785  -3.477  0.00  0.00    -0.344 N 
HETATM    3  C           1     -19.301  -9.235  -4.038  0.00  0.00     0.249 C 
HETATM    4  O           1     -18.259  -9.123  -3.438  0.00  0.00    -0.271 OA
HETATM    5  H           1     -21.024  -9.405  -2.903  0.00  0.00     0.163 HD
BRANCH   3   6
HETATM    6  C           1     -19.319  -9.871  -5.406  0.00  0.00     0.274 C 
BRANCH   6   7
HETATM    7  N           1     -18.144  -9.380  -6.200  0.00  0.00    -0.067 N 
HETATM    8  H           1     -17.667 -10.191  -6.654  0.00  0.00     0.275 HD
HETATM    9  H           1     -18.475  -8.716  -6.935  0.00  0.00     0.275 HD
HETATM   10  H           1     -17.474  -8.892  -5.564  0.00  0.00     0.275 HD
ENDBRANCH   6   7
BRANCH   6  11
HETATM   11  C           1     -19.235 -11.386  -5.263  0.00  0.00     0.045 C 
BRANCH  11  12
HETATM   12 Se           1     -18.306 -12.135  -6.802  0.00  0.00     0.000 Se
HETATM   13  H           1     -17.535 -10.911  -7.079  0.00  0.00     0.000 HD
ENDBRANCH  11  12
ENDBRANCH   6  11
ENDBRANCH   3   6
ENDBRANCH   1   2
BRANCH   1  14
HETATM   14  C           1     -21.953  -7.402  -4.807  0.00  0.00     0.074 C 
BRANCH  14  15
HETATM   15  C           1     -21.555  -6.413  -5.859  0.00  0.00    -0.056 A 
HETATM   16  C           1     -20.268  -6.446  -6.396  0.00  0.00     0.010 A 
HETATM   17  C           1     -19.899  -5.525  -7.377  0.00  0.00     0.038 A 
HETATM   18  C           1     -20.816  -4.572  -7.819  0.00  0.00     0.081 A 
HETATM   19  C           1     -22.103  -4.540  -7.283  0.00  0.00     0.038 A 
HETATM   20  C           1     -22.472  -5.461  -6.302  0.00  0.00     0.010 A 
BRANCH  18  21
HETATM   21  O           1     -20.457  -3.677  -8.772  0.00  0.00    -0.247 OA
BRANCH  21  22
HETATM   22  P           1     -20.666  -4.092 -10.318  0.00  0.00     0.411 P 
HETATM   23  O           1     -19.739  -5.192 -10.665  0.00  0.00    -0.624 OA
HETATM   24  O           1     -22.062  -4.541 -10.526  0.00  0.00    -0.624 OA
BRANCH  22  25
HETATM   25  O           1     -20.366  -2.817 -11.262  0.00  0.00    -0.300 OA
HETATM   26  H           1     -19.479  -2.935 -11.558  0.00  0.00     0.223 HD
ENDBRANCH  22  25
ENDBRANCH  21  22
ENDBRANCH  18  21
ENDBRANCH  14  15
ENDBRANCH   1  14
BRANCH   1  27
HETATM   27  C           1     -21.495  -6.864  -2.434  0.00  0.00     0.197 C 
HETATM   28  O           1     -22.280  -5.893  -2.484  0.00  0.00    -0.646 OA
HETATM   29  O           1     -21.201  -7.375  -1.331  0.00  0.00    -0.646 OA
ENDBRANCH   1  27
TORSDOF 11
ENDMDL
MODEL 5
REMARK VINA RESULT:      -6.1     11.700     14.263
REMARK  11 active torsions:
REMARK  status: ('A' for Active; 'I' for Inactive)
REMARK    1  A    between atoms: N_3  and  C_6 
REMARK    2  A    between atoms: Se_4  and  C_5 
REMARK    3  A    between atoms: C_5  and  C_6 
REMARK    4  A    between atoms: C_6  and  C_7 
REMARK       I    between atoms: C_7  and  N_8 
REMARK    5  A    between atoms: N_8  and  C_21 
REMARK    6  A    between atoms: O_12  and  P_14 
REMARK    7  A    between atoms: P_14  and  O_15 
REMARK    8  A    between atoms: O_15  and  C_16 
REMARK    9  A    between atoms: C_19  and  C_20 
REMARK   10  A    between atoms: C_20  and  C_21 
REMARK   11  A    between atoms: C_21  and  C_23 
ROOT
HETATM    1  C           1     -20.674  -6.375  -4.778  0.00  0.00     0.189 C 
ENDROOT
BRANCH   1   2
HETATM    2  N           1     -20.626  -7.337  -5.862  0.00  0.00    -0.344 N 
HETATM    3  C           1     -20.548  -8.676  -5.586  0.00  0.00     0.249 C 
HETATM    4  O           1     -21.558  -9.326  -5.458  0.00  0.00    -0.271 OA
HETATM    5  H           1     -20.651  -7.018  -6.822  0.00  0.00     0.163 HD
BRANCH   3   6
HETATM    6  C           1     -19.200  -9.339  -5.445  0.00  0.00     0.274 C 
BRANCH   6   7
HETATM    7  N           1     -18.232  -8.709  -6.403  0.00  0.00    -0.067 N 
HETATM    8  H           1     -18.757  -8.270  -7.192  0.00  0.00     0.275 HD
HETATM    9  H           1     -17.679  -7.975  -5.905  0.00  0.00     0.275 HD
HETATM   10  H           1     -17.586  -9.440  -6.777  0.00  0.00     0.275 HD
ENDBRANCH   6   7
BRANCH   6  11
HETATM   11  C           1     -18.692  -9.160  -4.021  0.00  0.00     0.045 C 
BRANCH  11  12
HETATM   12 Se           1     -16.894  -9.897  -3.872  0.00  0.00     0.000 Se
HETATM   13  H           1     -17.255 -10.874  -2.832  0.00  0.00     0.000 HD
ENDBRANCH  11  12
ENDBRANCH   6  11
ENDBRANCH   3   6
ENDBRANCH   1   2
BRANCH   1  14
HETATM   14  C           1     -20.137  -5.035  -5.265  0.00  0.00     0.074 C 
BRANCH  14  15
HETATM   15  C           1     -20.602  -4.792  -6.668  0.00  0.00    -0.056 A 
HETATM   16  C           1     -21.671  -3.928  -6.908  0.00  0.00     0.010 A 
HETATM   17  C           1     -22.103  -3.701  -8.215  0.00  0.00     0.038 A 
HETATM   18  C           1     -21.467  -4.339  -9.281  0.00  0.00     0.081 A 
HETATM   19  C           1     -20.398  -5.202  -9.040  0.00  0.00     0.038 A 
HETATM   20  C           1     -19.966  -5.429  -7.733  0.00  0.00     0.010 A 
BRANCH  18  21
HETATM   21  O           1     -21.887  -4.118 -10.550  0.00  0.00    -0.247 OA
BRANCH  21  22
HETATM   22  P           1     -23.446  -4.369 -10.887  0.00  0.00     0.411 P 
HETATM   23  O           1     -23.969  -5.453 -10.026  0.00  0.00    -0.624 OA
HETATM   24  O           1     -24.213  -3.128 -10.637  0.00  0.00    -0.624 OA
BRANCH  22  25
HETATM   25  O           1     -23.599  -4.792 -12.438  0.00  0.00    -0.300 OA
HETATM   26  H           1     -24.411  -5.268 -12.483  0.00  0.00     0.223 HD
ENDBRANCH  22  25
ENDBRANCH  21  22
ENDBRANCH  18  21
ENDBRANCH  14  15
ENDBRANCH   1  14
BRANCH   1  27
HETATM   27  C           1     -22.101  -6.208  -4.317  0.00  0.00     0.197 C 
HETATM   28  O           1     -22.347  -5.981  -3.113  0.00  0.00    -0.646 OA
HETATM   29  O           1     -23.038  -6.298  -5.140  0.00  0.00    -0.646 OA
ENDBRANCH   1  27
TORSDOF 11
ENDMDL
MODEL 6
REMARK VINA RESULT:      -5.8     16.637     18.696
REMARK  11 active torsions:
REMARK  status: ('A' for Active; 'I' for Inactive)
REMARK    1  A    between atoms: N_3  and  C_6 
REMARK    2  A    between atoms: Se_4  and  C_5 
REMARK    3  A    between atoms: C_5  and  C_6 
REMARK    4  A    between atoms: C_6  and  C_7 
REMARK       I    between atoms: C_7  and  N_8 
REMARK    5  A    between atoms: N_8  and  C_21 
REMARK    6  A    between atoms: O_12  and  P_14 
REMARK    7  A    between atoms: P_14  and  O_15 
REMARK    8  A    between atoms: O_15  and  C_16 
REMARK    9  A    between atoms: C_19  and  C_20 
REMARK   10  A    between atoms: C_20  and  C_21 
REMARK   11  A    between atoms: C_21  and  C_23 
ROOT
HETATM    1  C           1     -21.567  -7.858  -1.880  0.00  0.00     0.189 C 
ENDROOT
BRANCH   1   2
HETATM    2  N           1     -20.157  -8.018  -2.177  0.00  0.00    -0.344 N 
HETATM    3  C           1     -19.753  -8.942  -3.103  0.00  0.00     0.249 C 
HETATM    4  O           1     -19.652  -8.628  -4.266  0.00  0.00    -0.271 OA
HETATM    5  H           1     -19.471  -7.445  -1.700  0.00  0.00     0.163 HD
BRANCH   3   6
HETATM    6  C           1     -19.431 -10.351  -2.671  0.00  0.00     0.274 C 
BRANCH   6   7
HETATM    7  N           1     -20.606 -11.240  -2.958  0.00  0.00    -0.067 N 
HETATM    8  H           1     -20.266 -12.196  -3.212  0.00  0.00     0.275 HD
HETATM    9  H           1     -21.211 -11.301  -2.109  0.00  0.00     0.275 HD
HETATM   10  H           1     -21.157 -10.844  -3.753  0.00  0.00     0.275 HD
ENDBRANCH   6   7
BRANCH   6  11
HETATM   11  C           1     -18.217 -10.854  -3.440  0.00  0.00     0.045 C 
BRANCH  11  12
HETATM   12 Se           1     -16.630  -9.886  -2.858  0.00  0.00     0.000 Se
HETATM   13  H           1     -15.999  -9.886  -4.188  0.00  0.00     0.000 HD
ENDBRANCH  11  12
ENDBRANCH   6  11
ENDBRANCH   3   6
ENDBRANCH   1   2
BRANCH   1  14
HETATM   14  C           1     -21.792  -8.033  -0.383  0.00  0.00     0.074 C 
BRANCH  14  15
HETATM   15  C           1     -22.133  -9.462  -0.093  0.00  0.00    -0.056 A 
HETATM   16  C           1     -21.174 -10.309   0.462  0.00  0.00     0.010 A 
HETATM   17  C           1     -21.493 -11.640   0.732  0.00  0.00     0.038 A 
HETATM   18  C           1     -22.770 -12.123   0.448  0.00  0.00     0.081 A 
HETATM   19  C           1     -23.729 -11.275  -0.105  0.00  0.00     0.038 A 
HETATM   20  C           1     -23.410  -9.944  -0.376  0.00  0.00     0.010 A 
BRANCH  18  21
HETATM   21  O           1     -23.079 -13.416   0.712  0.00  0.00    -0.247 OA
BRANCH  21  22
HETATM   22  P           1     -23.126 -14.452  -0.526  0.00  0.00     0.411 P 
HETATM   23  O           1     -22.623 -15.772  -0.084  0.00  0.00    -0.624 OA
HETATM   24  O           1     -24.520 -14.589  -1.004  0.00  0.00    -0.624 OA
BRANCH  22  25
HETATM   25  O           1     -22.198 -13.896  -1.726  0.00  0.00    -0.300 OA
HETATM   26  H           1     -22.797 -13.493  -2.332  0.00  0.00     0.223 HD
ENDBRANCH  22  25
ENDBRANCH  21  22
ENDBRANCH  18  21
ENDBRANCH  14  15
ENDBRANCH   1  14
BRANCH   1  27
HETATM   27  C           1     -22.016  -6.479  -2.298  0.00  0.00     0.197 C 
HETATM   28  O           1     -21.999  -6.156  -3.506  0.00  0.00    -0.646 OA
HETATM   29  O           1     -22.404  -5.661  -1.438  0.00  0.00    -0.646 OA
ENDBRANCH   1  27
TORSDOF 11
ENDMDL
MODEL 7
REMARK VINA RESULT:      -5.7     16.178     17.721
REMARK  11 active torsions:
REMARK  status: ('A' for Active; 'I' for Inactive)
REMARK    1  A    between atoms: N_3  and  C_6 
REMARK    2  A    between atoms: Se_4  and  C_5 
REMARK    3  A    between atoms: C_5  and  C_6 
REMARK    4  A    between atoms: C_6  and  C_7 
REMARK       I    between atoms: C_7  and  N_8 
REMARK    5  A    between atoms: N_8  and  C_21 
REMARK    6  A    between atoms: O_12  and  P_14 
REMARK    7  A    between atoms: P_14  and  O_15 
REMARK    8  A    between atoms: O_15  and  C_16 
REMARK    9  A    between atoms: C_19  and  C_20 
REMARK   10  A    between atoms: C_20  and  C_21 
REMARK   11  A    between atoms: C_21  and  C_23 
ROOT
HETATM    1  C           1     -20.938  -7.786  -2.563  0.00  0.00     0.189 C 
ENDROOT
BRANCH   1   2
HETATM    2  N           1     -21.824  -8.388  -1.586  0.00  0.00    -0.344 N 
HETATM    3  C           1     -21.305  -8.970  -0.460  0.00  0.00     0.249 C 
HETATM    4  O           1     -21.144  -8.312   0.541  0.00  0.00    -0.271 OA
HETATM    5  H           1     -22.824  -8.378  -1.736  0.00  0.00     0.163 HD
BRANCH   3   6
HETATM    6  C           1     -20.938 -10.434  -0.468  0.00  0.00     0.274 C 
BRANCH   6   7
HETATM    7  N           1     -20.889 -10.942   0.943  0.00  0.00    -0.067 N 
HETATM    8  H           1     -21.291 -10.224   1.587  0.00  0.00     0.275 HD
HETATM    9  H           1     -21.446 -11.823   1.015  0.00  0.00     0.275 HD
HETATM   10  H           1     -19.897 -11.133   1.210  0.00  0.00     0.275 HD
ENDBRANCH   6   7
BRANCH   6  11
HETATM   11  C           1     -21.985 -11.216  -1.250  0.00  0.00     0.045 C 
BRANCH  11  12
HETATM   12 Se           1     -23.608 -11.379  -0.185  0.00  0.00     0.000 Se
HETATM   13  H           1     -23.250 -12.695   0.370  0.00  0.00     0.000 HD
ENDBRANCH  11  12
ENDBRANCH   6  11
ENDBRANCH   3   6
ENDBRANCH   1   2
BRANCH   1  14
HETATM   14  C           1     -20.868  -8.674  -3.799  0.00  0.00     0.074 C 
BRANCH  14  15
HETATM   15  C           1     -19.446  -9.074  -4.047  0.00  0.00    -0.056 A 
HETATM   16  C           1     -18.570  -9.234  -2.973  0.00  0.00     0.010 A 
HETATM   17  C           1     -17.245  -9.606  -3.205  0.00  0.00     0.038 A 
HETATM   18  C           1     -16.798  -9.818  -4.509  0.00  0.00     0.081 A 
HETATM   19  C           1     -17.675  -9.659  -5.582  0.00  0.00     0.038 A 
HETATM   20  C           1     -18.999  -9.286  -5.350  0.00  0.00     0.010 A 
BRANCH  18  21
HETATM   21  O           1     -15.512 -10.181  -4.733  0.00  0.00    -0.247 OA
BRANCH  21  22
HETATM   22  P           1     -15.223 -11.700  -5.200  0.00  0.00     0.411 P 
HETATM   23  O           1     -13.868 -12.102  -4.759  0.00  0.00    -0.624 OA
HETATM   24  O           1     -16.227 -12.603  -4.594  0.00  0.00    -0.624 OA
BRANCH  22  25
HETATM   25  O           1     -15.316 -11.794  -6.809  0.00  0.00    -0.300 OA
HETATM   26  H           1     -16.232 -11.696  -7.007  0.00  0.00     0.223 HD
ENDBRANCH  22  25
ENDBRANCH  21  22
ENDBRANCH  18  21
ENDBRANCH  14  15
ENDBRANCH   1  14
BRANCH   1  27
HETATM   27  C           1     -21.468  -6.426  -2.950  0.00  0.00     0.197 C 
HETATM   28  O           1     -22.270  -5.831  -2.199  0.00  0.00    -0.646 OA
HETATM   29  O           1     -21.104  -5.896  -4.022  0.00  0.00    -0.646 OA
ENDBRANCH   1  27
TORSDOF 11
ENDMDL
MODEL 8
REMARK VINA RESULT:      -5.7     14.868     17.066
REMARK  11 active torsions:
REMARK  status: ('A' for Active; 'I' for Inactive)
REMARK    1  A    between atoms: N_3  and  C_6 
REMARK    2  A    between atoms: Se_4  and  C_5 
REMARK    3  A    between atoms: C_5  and  C_6 
REMARK    4  A    between atoms: C_6  and  C_7 
REMARK       I    between atoms: C_7  and  N_8 
REMARK    5  A    between atoms: N_8  and  C_21 
REMARK    6  A    between atoms: O_12  and  P_14 
REMARK    7  A    between atoms: P_14  and  O_15 
REMARK    8  A    between atoms: O_15  and  C_16 
REMARK    9  A    between atoms: C_19  and  C_20 
REMARK   10  A    between atoms: C_20  and  C_21 
REMARK   11  A    between atoms: C_21  and  C_23 
ROOT
HETATM    1  C           1     -20.691  -8.554  -2.872  0.00  0.00     0.189 C 
ENDROOT
BRANCH   1   2
HETATM    2  N           1     -20.796  -7.118  -3.049  0.00  0.00    -0.344 N 
HETATM    3  C           1     -21.315  -6.609  -4.209  0.00  0.00     0.249 C 
HETATM    4  O           1     -22.502  -6.402  -4.300  0.00  0.00    -0.271 OA
HETATM    5  H           1     -20.487  -6.494  -2.315  0.00  0.00     0.163 HD
BRANCH   3   6
HETATM    6  C           1     -20.404  -6.303  -5.372  0.00  0.00     0.274 C 
BRANCH   6   7
HETATM    7  N           1     -20.896  -7.023  -6.593  0.00  0.00    -0.067 N 
HETATM    8  H           1     -21.733  -7.598  -6.345  0.00  0.00     0.275 HD
HETATM    9  H           1     -21.159  -6.325  -7.325  0.00  0.00     0.275 HD
HETATM   10  H           1     -20.141  -7.646  -6.958  0.00  0.00     0.275 HD
ENDBRANCH   6   7
BRANCH   6  11
HETATM   11  C           1     -20.403  -4.802  -5.636  0.00  0.00     0.045 C 
BRANCH  11  12
HETATM   12 Se           1     -20.007  -4.472  -7.514  0.00  0.00     0.000 Se
HETATM   13  H           1     -18.661  -3.934  -7.256  0.00  0.00     0.000 HD
ENDBRANCH  11  12
ENDBRANCH   6  11
ENDBRANCH   3   6
ENDBRANCH   1   2
BRANCH   1  14
HETATM   14  C           1     -19.367  -8.884  -2.194  0.00  0.00     0.074 C 
BRANCH  14  15
HETATM   15  C           1     -18.372  -9.319  -3.226  0.00  0.00    -0.056 A 
HETATM   16  C           1     -17.021  -9.416  -2.895  0.00  0.00     0.010 A 
HETATM   17  C           1     -16.095  -9.821  -3.857  0.00  0.00     0.038 A 
HETATM   18  C           1     -16.521 -10.129  -5.149  0.00  0.00     0.081 A 
HETATM   19  C           1     -17.873 -10.033  -5.480  0.00  0.00     0.038 A 
HETATM   20  C           1     -18.799  -9.628  -4.518  0.00  0.00     0.010 A 
BRANCH  18  21
HETATM   21  O           1     -15.622 -10.523  -6.083  0.00  0.00    -0.247 OA
BRANCH  21  22
HETATM   22  P           1     -15.427 -12.108  -6.326  0.00  0.00     0.411 P 
HETATM   23  O           1     -15.744 -12.841  -5.079  0.00  0.00    -0.624 OA
HETATM   24  O           1     -16.333 -12.559  -7.406  0.00  0.00    -0.624 OA
BRANCH  22  25
HETATM   25  O           1     -13.897 -12.402  -6.750  0.00  0.00    -0.300 OA
HETATM   26  H           1     -13.389 -11.748  -6.300  0.00  0.00     0.223 HD
ENDBRANCH  22  25
ENDBRANCH  21  22
ENDBRANCH  18  21
ENDBRANCH  14  15
ENDBRANCH   1  14
BRANCH   1  27
HETATM   27  C           1     -21.831  -9.038  -2.010  0.00  0.00     0.197 C 
HETATM   28  O           1     -22.280  -8.310  -1.099  0.00  0.00    -0.646 OA
HETATM   29  O           1     -22.327 -10.169  -2.208  0.00  0.00    -0.646 OA
ENDBRANCH   1  27
TORSDOF 11
ENDMDL
MODEL 9
REMARK VINA RESULT:      -5.6     16.679     18.625
REMARK  11 active torsions:
REMARK  status: ('A' for Active; 'I' for Inactive)
REMARK    1  A    between atoms: N_3  and  C_6 
REMARK    2  A    between atoms: Se_4  and  C_5 
REMARK    3  A    between atoms: C_5  and  C_6 
REMARK    4  A    between atoms: C_6  and  C_7 
REMARK       I    between atoms: C_7  and  N_8 
REMARK    5  A    between atoms: N_8  and  C_21 
REMARK    6  A    between atoms: O_12  and  P_14 
REMARK    7  A    between atoms: P_14  and  O_15 
REMARK    8  A    between atoms: O_15  and  C_16 
REMARK    9  A    between atoms: C_19  and  C_20 
REMARK   10  A    between atoms: C_20  and  C_21 
REMARK   11  A    between atoms: C_21  and  C_23 
ROOT
HETATM    1  C           1     -21.441  -8.155  -1.809  0.00  0.00     0.189 C 
ENDROOT
BRANCH   1   2
HETATM    2  N           1     -20.169  -8.241  -2.500  0.00  0.00    -0.344 N 
HETATM    3  C           1     -20.027  -9.085  -3.569  0.00  0.00     0.249 C 
HETATM    4  O           1     -20.263  -8.691  -4.686  0.00  0.00    -0.271 OA
HETATM    5  H           1     -19.387  -7.676  -2.193  0.00  0.00     0.163 HD
BRANCH   3   6
HETATM    6  C           1     -19.572 -10.507  -3.351  0.00  0.00     0.274 C 
BRANCH   6   7
HETATM    7  N           1     -18.751 -10.581  -2.096  0.00  0.00    -0.067 N 
HETATM    8  H           1     -17.736 -10.606  -2.345  0.00  0.00     0.275 HD
HETATM    9  H           1     -18.943  -9.741  -1.506  0.00  0.00     0.275 HD
HETATM   10  H           1     -19.002 -11.446  -1.566  0.00  0.00     0.275 HD
ENDBRANCH   6   7
BRANCH   6  11
HETATM   11  C           1     -20.788 -11.414  -3.213  0.00  0.00     0.045 C 
BRANCH  11  12
HETATM   12 Se           1     -20.542 -13.005  -4.309  0.00  0.00     0.000 Se
HETATM   13  H           1     -19.624 -13.658  -3.361  0.00  0.00     0.000 HD
ENDBRANCH  11  12
ENDBRANCH   6  11
ENDBRANCH   3   6
ENDBRANCH   1   2
BRANCH   1  14
HETATM   14  C           1     -21.243  -8.502  -0.339  0.00  0.00     0.074 C 
BRANCH  14  15
HETATM   15  C           1     -21.849  -9.843  -0.057  0.00  0.00    -0.056 A 
HETATM   16  C           1     -23.180 -10.090  -0.393  0.00  0.00     0.010 A 
HETATM   17  C           1     -23.744 -11.339  -0.130  0.00  0.00     0.038 A 
HETATM   18  C           1     -22.977 -12.339   0.468  0.00  0.00     0.081 A 
HETATM   19  C           1     -21.646 -12.091   0.803  0.00  0.00     0.038 A 
HETATM   20  C           1     -21.082 -10.842   0.540  0.00  0.00     0.010 A 
BRANCH  18  21
HETATM   21  O           1     -23.525 -13.552   0.723  0.00  0.00    -0.247 OA
BRANCH  21  22
HETATM   22  P           1     -23.575 -14.628  -0.480  0.00  0.00     0.411 P 
HETATM   23  O           1     -24.898 -14.568  -1.140  0.00  0.00    -0.624 OA
HETATM   24  O           1     -22.517 -14.317  -1.467  0.00  0.00    -0.624 OA
BRANCH  22  25
HETATM   25  O           1     -23.337 -16.110   0.115  0.00  0.00    -0.300 OA
HETATM   26  H           1     -22.407 -16.169   0.258  0.00  0.00     0.223 HD
ENDBRANCH  22  25
ENDBRANCH  21  22
ENDBRANCH  18  21
ENDBRANCH  14  15
ENDBRANCH   1  14
BRANCH   1  27
HETATM   27  C           1     -21.982  -6.750  -1.926  0.00  0.00     0.197 C 
HETATM   28  O           1     -22.558  -6.220  -0.951  0.00  0.00    -0.646 OA
HETATM   29  O           1     -21.854  -6.119  -2.997  0.00  0.00    -0.646 OA
ENDBRANCH   1  27
TORSDOF 11
ENDMDL
