MODEL 1
REMARK VINA RESULT:      -7.1      0.000      0.000
REMARK  8 active torsions:
REMARK  status: ('A' for Active; 'I' for Inactive)
REMARK    1  A    between atoms: C_1  and  C_3 
REMARK    2  A    between atoms: C_3  and  C_4 
REMARK    3  A    between atoms: C_4  and  C_16 
REMARK    4  A    between atoms: C_4  and  N_10 
REMARK    5  A    between atoms: C_12  and  C_21 
REMARK    6  A    between atoms: C_12  and  C_13 
REMARK    7  A    between atoms: C_13  and  C_14 
REMARK    8  A    between atoms: C_13  and  N_18 
REMARK       I    between atoms: C_16  and  N_18 
REMARK       I    between atoms: N_20  and  C_21 
ROOT
HETATM    1  O           1     -36.458  -1.324 -12.585  0.00  0.00    -0.271 OA
HETATM    2  H           1     -33.830  -0.986 -14.264  0.00  0.00     0.163 HD
HETATM    3  C           1     -35.282  -1.401 -12.849  0.00  0.00     0.249 C 
HETATM    4  N           1     -34.816  -0.922 -14.043  0.00  0.00    -0.344 N 
ENDROOT
BRANCH   4   5
HETATM    5  C           1     -35.734  -0.324 -14.992  0.00  0.00     0.194 C 
BRANCH   5   6
HETATM    6  C           1     -35.375   1.143 -15.189  0.00  0.00     0.138 C 
BRANCH   6   7
HETATM    7  C           1     -36.469   1.829 -15.970  0.00  0.00     0.217 C 
HETATM    8  O           1     -36.199   2.739 -16.717  0.00  0.00    -0.274 OA
HETATM    9  N           1     -37.769   1.419 -15.832  0.00  0.00    -0.370 N 
HETATM   10  H           1     -37.995   0.656 -15.207  0.00  0.00     0.159 HD
HETATM   11  H           1     -38.502   1.879 -16.356  0.00  0.00     0.159 HD
ENDBRANCH   6   7
ENDBRANCH   5   6
BRANCH   5  12
HETATM   12  C           1     -35.635  -1.048 -16.313  0.00  0.00     0.197 C 
HETATM   13  O           1     -36.580  -0.992 -17.128  0.00  0.00    -0.646 OA
HETATM   14  O           1     -34.607  -1.702 -16.591  0.00  0.00    -0.646 OA
ENDBRANCH   5  12
ENDBRANCH   4   5
BRANCH   3  15
HETATM   15  C           1     -34.327  -2.024 -11.861  0.00  0.00     0.278 C 
BRANCH  15  16
HETATM   16  C           1     -34.306  -3.534 -12.057  0.00  0.00     0.021 C 
HETATM   17  C           1     -32.869  -4.035 -11.995  0.00  0.00     0.012 C 
BRANCH  16  18
HETATM   18  C           1     -35.123  -4.199 -10.957  0.00  0.00     0.002 C 
HETATM   19  C           1     -34.436  -5.486 -10.520  0.00  0.00     0.005 C 
ENDBRANCH  16  18
ENDBRANCH  15  16
BRANCH  15  20
HETATM   20  N           1     -34.776  -1.708 -10.465  0.00  0.00    -0.066 N 
HETATM   21  H           1     -34.291  -2.342  -9.791  0.00  0.00     0.275 HD
HETATM   22  H           1     -35.810  -1.846 -10.392  0.00  0.00     0.275 HD
HETATM   23  H           1     -34.541  -0.715 -10.240  0.00  0.00     0.275 HD
ENDBRANCH  15  20
ENDBRANCH   3  15
TORSDOF 8
ENDMDL
MODEL 2
REMARK VINA RESULT:      -6.7      9.836     11.449
REMARK  8 active torsions:
REMARK  status: ('A' for Active; 'I' for Inactive)
REMARK    1  A    between atoms: C_1  and  C_3 
REMARK    2  A    between atoms: C_3  and  C_4 
REMARK    3  A    between atoms: C_4  and  C_16 
REMARK    4  A    between atoms: C_4  and  N_10 
REMARK    5  A    between atoms: C_12  and  C_21 
REMARK    6  A    between atoms: C_12  and  C_13 
REMARK    7  A    between atoms: C_13  and  C_14 
REMARK    8  A    between atoms: C_13  and  N_18 
REMARK       I    between atoms: C_16  and  N_18 
REMARK       I    between atoms: N_20  and  C_21 
ROOT
HETATM    1  O           1     -26.023  -6.046 -16.901  0.00  0.00    -0.271 OA
HETATM    2  H           1     -27.546  -6.682 -19.569  0.00  0.00     0.163 HD
HETATM    3  C           1     -26.168  -6.348 -18.062  0.00  0.00     0.249 C 
HETATM    4  N           1     -27.425  -6.430 -18.596  0.00  0.00    -0.344 N 
ENDROOT
BRANCH   4   5
HETATM    5  C           1     -28.584  -6.156 -17.769  0.00  0.00     0.194 C 
BRANCH   5   6
HETATM    6  C           1     -29.336  -4.958 -18.333  0.00  0.00     0.138 C 
BRANCH   6   7
HETATM    7  C           1     -29.032  -3.735 -17.501  0.00  0.00     0.217 C 
HETATM    8  O           1     -28.083  -3.733 -16.755  0.00  0.00    -0.274 OA
HETATM    9  N           1     -29.834  -2.629 -17.593  0.00  0.00    -0.370 N 
HETATM   10  H           1     -30.630  -2.630 -18.219  0.00  0.00     0.159 HD
HETATM   11  H           1     -29.630  -1.809 -17.036  0.00  0.00     0.159 HD
ENDBRANCH   6   7
ENDBRANCH   5   6
BRANCH   5  12
HETATM   12  C           1     -29.491  -7.362 -17.760  0.00  0.00     0.197 C 
HETATM   13  O           1     -30.433  -7.441 -18.577  0.00  0.00    -0.646 OA
HETATM   14  O           1     -29.300  -8.282 -16.936  0.00  0.00    -0.646 OA
ENDBRANCH   5  12
ENDBRANCH   4   5
BRANCH   3  15
HETATM   15  C           1     -24.961  -6.634 -18.922  0.00  0.00     0.278 C 
BRANCH  15  16
HETATM   16  C           1     -25.417  -7.125 -20.290  0.00  0.00     0.021 C 
HETATM   17  C           1     -25.531  -5.942 -21.242  0.00  0.00     0.012 C 
BRANCH  16  18
HETATM   18  C           1     -24.400  -8.119 -20.835  0.00  0.00     0.002 C 
HETATM   19  C           1     -24.114  -7.803 -22.297  0.00  0.00     0.005 C 
ENDBRANCH  16  18
ENDBRANCH  15  16
BRANCH  15  20
HETATM   20  N           1     -24.120  -7.689 -18.267  0.00  0.00    -0.066 N 
HETATM   21  H           1     -24.560  -8.626 -18.414  0.00  0.00     0.275 HD
HETATM   22  H           1     -24.050  -7.493 -17.243  0.00  0.00     0.275 HD
HETATM   23  H           1     -23.164  -7.684 -18.688  0.00  0.00     0.275 HD
ENDBRANCH  15  20
ENDBRANCH   3  15
TORSDOF 8
ENDMDL
MODEL 3
REMARK VINA RESULT:      -6.6      1.745      2.283
REMARK  8 active torsions:
REMARK  status: ('A' for Active; 'I' for Inactive)
REMARK    1  A    between atoms: C_1  and  C_3 
REMARK    2  A    between atoms: C_3  and  C_4 
REMARK    3  A    between atoms: C_4  and  C_16 
REMARK    4  A    between atoms: C_4  and  N_10 
REMARK    5  A    between atoms: C_12  and  C_21 
REMARK    6  A    between atoms: C_12  and  C_13 
REMARK    7  A    between atoms: C_13  and  C_14 
REMARK    8  A    between atoms: C_13  and  N_18 
REMARK       I    between atoms: C_16  and  N_18 
REMARK       I    between atoms: N_20  and  C_21 
ROOT
HETATM    1  O           1     -34.700  -3.159 -13.755  0.00  0.00    -0.271 OA
HETATM    2  H           1     -35.536  -0.726 -11.961  0.00  0.00     0.163 HD
HETATM    3  C           1     -34.869  -2.522 -12.743  0.00  0.00     0.249 C 
HETATM    4  N           1     -35.394  -1.260 -12.809  0.00  0.00    -0.344 N 
ENDROOT
BRANCH   4   5
HETATM    5  C           1     -35.748  -0.688 -14.093  0.00  0.00     0.194 C 
BRANCH   5   6
HETATM    6  C           1     -37.185  -0.185 -14.046  0.00  0.00     0.138 C 
BRANCH   6   7
HETATM    7  C           1     -37.728  -0.079 -15.450  0.00  0.00     0.217 C 
HETATM    8  O           1     -37.858  -1.073 -16.124  0.00  0.00    -0.274 OA
HETATM    9  N           1     -38.074   1.144 -15.959  0.00  0.00    -0.370 N 
HETATM   10  H           1     -37.965   1.977 -15.394  0.00  0.00     0.159 HD
HETATM   11  H           1     -38.438   1.216 -16.900  0.00  0.00     0.159 HD
ENDBRANCH   6   7
ENDBRANCH   5   6
BRANCH   5  12
HETATM   12  C           1     -34.822   0.462 -14.403  0.00  0.00     0.197 C 
HETATM   13  O           1     -34.133   0.446 -15.446  0.00  0.00    -0.646 OA
HETATM   14  O           1     -34.745   1.432 -13.619  0.00  0.00    -0.646 OA
ENDBRANCH   5  12
ENDBRANCH   4   5
BRANCH   3  15
HETATM   15  C           1     -34.500  -3.117 -11.407  0.00  0.00     0.278 C 
BRANCH  15  16
HETATM   16  C           1     -33.888  -4.496 -11.615  0.00  0.00     0.021 C 
HETATM   17  C           1     -32.408  -4.351 -11.943  0.00  0.00     0.012 C 
BRANCH  16  18
HETATM   18  C           1     -34.049  -5.319 -10.344  0.00  0.00     0.002 C 
HETATM   19  C           1     -34.647  -6.677 -10.690  0.00  0.00     0.005 C 
ENDBRANCH  16  18
ENDBRANCH  15  16
BRANCH  15  20
HETATM   20  N           1     -35.731  -3.241 -10.559  0.00  0.00    -0.066 N 
HETATM   21  H           1     -36.578  -3.219 -11.169  0.00  0.00     0.275 HD
HETATM   22  H           1     -35.768  -2.445  -9.881  0.00  0.00     0.275 HD
HETATM   23  H           1     -35.703  -4.143 -10.033  0.00  0.00     0.275 HD
ENDBRANCH  15  20
ENDBRANCH   3  15
TORSDOF 8
ENDMDL
MODEL 4
REMARK VINA RESULT:      -6.1     10.303     12.179
REMARK  8 active torsions:
REMARK  status: ('A' for Active; 'I' for Inactive)
REMARK    1  A    between atoms: C_1  and  C_3 
REMARK    2  A    between atoms: C_3  and  C_4 
REMARK    3  A    between atoms: C_4  and  C_16 
REMARK    4  A    between atoms: C_4  and  N_10 
REMARK    5  A    between atoms: C_12  and  C_21 
REMARK    6  A    between atoms: C_12  and  C_13 
REMARK    7  A    between atoms: C_13  and  C_14 
REMARK    8  A    between atoms: C_13  and  N_18 
REMARK       I    between atoms: C_16  and  N_18 
REMARK       I    between atoms: N_20  and  C_21 
ROOT
HETATM    1  O           1     -27.027  -6.651 -20.479  0.00  0.00    -0.271 OA
HETATM    2  H           1     -26.223  -6.212 -17.479  0.00  0.00     0.163 HD
HETATM    3  C           1     -26.304  -6.579 -19.514  0.00  0.00     0.249 C 
HETATM    4  N           1     -26.829  -6.271 -18.288  0.00  0.00    -0.344 N 
ENDROOT
BRANCH   4   5
HETATM    5  C           1     -28.252  -6.031 -18.147  0.00  0.00     0.194 C 
BRANCH   5   6
HETATM    6  C           1     -28.882  -7.170 -17.356  0.00  0.00     0.138 C 
BRANCH   6   7
HETATM    7  C           1     -30.279  -7.426 -17.868  0.00  0.00     0.217 C 
HETATM    8  O           1     -30.452  -8.175 -18.800  0.00  0.00    -0.274 OA
HETATM    9  N           1     -31.349  -6.809 -17.276  0.00  0.00    -0.370 N 
HETATM   10  H           1     -31.203  -6.182 -16.496  0.00  0.00     0.159 HD
HETATM   11  H           1     -32.285  -6.981 -17.620  0.00  0.00     0.159 HD
ENDBRANCH   6   7
ENDBRANCH   5   6
BRANCH   5  12
HETATM   12  C           1     -28.472  -4.729 -17.418  0.00  0.00     0.197 C 
HETATM   13  O           1     -29.528  -4.084 -17.594  0.00  0.00    -0.646 OA
HETATM   14  O           1     -27.599  -4.295 -16.636  0.00  0.00    -0.646 OA
ENDBRANCH   5  12
ENDBRANCH   4   5
BRANCH   3  15
HETATM   15  C           1     -24.824  -6.829 -19.660  0.00  0.00     0.278 C 
BRANCH  15  16
HETATM   16  C           1     -24.575  -7.716 -20.873  0.00  0.00     0.021 C 
HETATM   17  C           1     -24.528  -6.857 -22.130  0.00  0.00     0.012 C 
BRANCH  16  18
HETATM   18  C           1     -23.247  -8.443 -20.705  0.00  0.00     0.002 C 
HETATM   19  C           1     -22.576  -8.597 -22.064  0.00  0.00     0.005 C 
ENDBRANCH  16  18
ENDBRANCH  15  16
BRANCH  15  20
HETATM   20  N           1     -24.308  -7.512 -18.428  0.00  0.00    -0.066 N 
HETATM   21  H           1     -24.594  -6.968 -17.583  0.00  0.00     0.275 HD
HETATM   22  H           1     -23.265  -7.569 -18.472  0.00  0.00     0.275 HD
HETATM   23  H           1     -24.707  -8.477 -18.372  0.00  0.00     0.275 HD
ENDBRANCH  15  20
ENDBRANCH   3  15
TORSDOF 8
ENDMDL
MODEL 5
REMARK VINA RESULT:      -6.0      2.104      3.249
REMARK  8 active torsions:
REMARK  status: ('A' for Active; 'I' for Inactive)
REMARK    1  A    between atoms: C_1  and  C_3 
REMARK    2  A    between atoms: C_3  and  C_4 
REMARK    3  A    between atoms: C_4  and  C_16 
REMARK    4  A    between atoms: C_4  and  N_10 
REMARK    5  A    between atoms: C_12  and  C_21 
REMARK    6  A    between atoms: C_12  and  C_13 
REMARK    7  A    between atoms: C_13  and  C_14 
REMARK    8  A    between atoms: C_13  and  N_18 
REMARK       I    between atoms: C_16  and  N_18 
REMARK       I    between atoms: N_20  and  C_21 
ROOT
HETATM    1  O           1     -34.120  -3.446 -14.089  0.00  0.00    -0.271 OA
HETATM    2  H           1     -35.822  -1.898 -11.957  0.00  0.00     0.163 HD
HETATM    3  C           1     -34.757  -3.274 -13.077  0.00  0.00     0.249 C 
HETATM    4  N           1     -35.288  -2.042 -12.804  0.00  0.00    -0.344 N 
ENDROOT
BRANCH   4   5
HETATM    5  C           1     -35.085  -0.944 -13.729  0.00  0.00     0.194 C 
BRANCH   5   6
HETATM    6  C           1     -36.282  -0.840 -14.664  0.00  0.00     0.138 C 
BRANCH   6   7
HETATM    7  C           1     -35.814  -0.939 -16.095  0.00  0.00     0.217 C 
HETATM    8  O           1     -36.306  -0.233 -16.942  0.00  0.00    -0.274 OA
HETATM    9  N           1     -34.830  -1.830 -16.433  0.00  0.00    -0.370 N 
HETATM   10  H           1     -34.418  -2.422 -15.723  0.00  0.00     0.159 HD
HETATM   11  H           1     -34.516  -1.897 -17.392  0.00  0.00     0.159 HD
ENDBRANCH   6   7
ENDBRANCH   5   6
BRANCH   5  12
HETATM   12  C           1     -34.937   0.343 -12.955  0.00  0.00     0.197 C 
HETATM   13  O           1     -34.454   1.354 -13.509  0.00  0.00    -0.646 OA
HETATM   14  O           1     -35.300   0.400 -11.760  0.00  0.00    -0.646 OA
ENDBRANCH   5  12
ENDBRANCH   4   5
BRANCH   3  15
HETATM   15  C           1     -34.968  -4.417 -12.116  0.00  0.00     0.278 C 
BRANCH  15  16
HETATM   16  C           1     -33.893  -4.379 -11.037  0.00  0.00     0.021 C 
HETATM   17  C           1     -33.015  -5.618 -11.152  0.00  0.00     0.012 C 
BRANCH  16  18
HETATM   18  C           1     -33.038  -3.132 -11.217  0.00  0.00     0.002 C 
HETATM   19  C           1     -33.420  -2.098 -10.166  0.00  0.00     0.005 C 
ENDBRANCH  16  18
ENDBRANCH  15  16
BRANCH  15  20
HETATM   20  N           1     -34.884  -5.716 -12.860  0.00  0.00    -0.066 N 
HETATM   21  H           1     -33.920  -6.109 -12.767  0.00  0.00     0.275 HD
HETATM   22  H           1     -35.099  -5.554 -13.870  0.00  0.00     0.275 HD
HETATM   23  H           1     -35.575  -6.392 -12.461  0.00  0.00     0.275 HD
ENDBRANCH  15  20
ENDBRANCH   3  15
TORSDOF 8
ENDMDL
MODEL 6
REMARK VINA RESULT:      -5.8      9.381     11.297
REMARK  8 active torsions:
REMARK  status: ('A' for Active; 'I' for Inactive)
REMARK    1  A    between atoms: C_1  and  C_3 
REMARK    2  A    between atoms: C_3  and  C_4 
REMARK    3  A    between atoms: C_4  and  C_16 
REMARK    4  A    between atoms: C_4  and  N_10 
REMARK    5  A    between atoms: C_12  and  C_21 
REMARK    6  A    between atoms: C_12  and  C_13 
REMARK    7  A    between atoms: C_13  and  C_14 
REMARK    8  A    between atoms: C_13  and  N_18 
REMARK       I    between atoms: C_16  and  N_18 
REMARK       I    between atoms: N_20  and  C_21 
ROOT
HETATM    1  O           1     -29.201  -8.019 -18.631  0.00  0.00    -0.271 OA
HETATM    2  H           1     -27.819  -5.206 -18.507  0.00  0.00     0.163 HD
HETATM    3  C           1     -29.107  -6.825 -18.470  0.00  0.00     0.249 C 
HETATM    4  N           1     -27.898  -6.206 -18.641  0.00  0.00    -0.344 N 
ENDROOT
BRANCH   4   5
HETATM    5  C           1     -26.732  -6.982 -19.015  0.00  0.00     0.194 C 
BRANCH   5   6
HETATM    6  C           1     -26.395  -6.719 -20.477  0.00  0.00     0.138 C 
BRANCH   6   7
HETATM    7  C           1     -26.066  -8.023 -21.160  0.00  0.00     0.217 C 
HETATM    8  O           1     -26.955  -8.751 -21.534  0.00  0.00    -0.274 OA
HETATM    9  N           1     -24.759  -8.382 -21.357  0.00  0.00    -0.370 N 
HETATM   10  H           1     -24.014  -7.773 -21.043  0.00  0.00     0.159 HD
HETATM   11  H           1     -24.538  -9.257 -21.815  0.00  0.00     0.159 HD
ENDBRANCH   6   7
ENDBRANCH   5   6
BRANCH   5  12
HETATM   12  C           1     -25.563  -6.581 -18.149  0.00  0.00     0.197 C 
HETATM   13  O           1     -24.395  -6.748 -18.559  0.00  0.00    -0.646 OA
HETATM   14  O           1     -25.763  -6.080 -17.021  0.00  0.00    -0.646 OA
ENDBRANCH   5  12
ENDBRANCH   4   5
BRANCH   3  15
HETATM   15  C           1     -30.321  -6.018 -18.081  0.00  0.00     0.278 C 
BRANCH  15  16
HETATM   16  C           1     -29.896  -4.855 -17.195  0.00  0.00     0.021 C 
HETATM   17  C           1     -30.730  -3.627 -17.534  0.00  0.00     0.012 C 
BRANCH  16  18
HETATM   18  C           1     -30.109  -5.227 -15.734  0.00  0.00     0.002 C 
HETATM   19  C           1     -28.780  -5.633 -15.112  0.00  0.00     0.005 C 
ENDBRANCH  16  18
ENDBRANCH  15  16
BRANCH  15  20
HETATM   20  N           1     -31.281  -6.892 -17.331  0.00  0.00    -0.066 N 
HETATM   21  H           1     -31.455  -7.767 -17.876  0.00  0.00     0.275 HD
HETATM   22  H           1     -32.183  -6.381 -17.193  0.00  0.00     0.275 HD
HETATM   23  H           1     -30.875  -7.138 -16.400  0.00  0.00     0.275 HD
ENDBRANCH  15  20
ENDBRANCH   3  15
TORSDOF 8
ENDMDL
MODEL 7
REMARK VINA RESULT:      -5.8     14.847     17.029
REMARK  8 active torsions:
REMARK  status: ('A' for Active; 'I' for Inactive)
REMARK    1  A    between atoms: C_1  and  C_3 
REMARK    2  A    between atoms: C_3  and  C_4 
REMARK    3  A    between atoms: C_4  and  C_16 
REMARK    4  A    between atoms: C_4  and  N_10 
REMARK    5  A    between atoms: C_12  and  C_21 
REMARK    6  A    between atoms: C_12  and  C_13 
REMARK    7  A    between atoms: C_13  and  C_14 
REMARK    8  A    between atoms: C_13  and  N_18 
REMARK       I    between atoms: C_16  and  N_18 
REMARK       I    between atoms: N_20  and  C_21 
ROOT
HETATM    1  O           1     -21.000  -7.787  -6.305  0.00  0.00    -0.271 OA
HETATM    2  H           1     -22.207  -5.200  -5.005  0.00  0.00     0.163 HD
HETATM    3  C           1     -21.529  -7.101  -5.463  0.00  0.00     0.249 C 
HETATM    4  N           1     -21.764  -5.775  -5.710  0.00  0.00    -0.344 N 
ENDROOT
BRANCH   4   5
HETATM    5  C           1     -21.378  -5.195  -6.982  0.00  0.00     0.194 C 
BRANCH   5   6
HETATM    6  C           1     -22.271  -4.000  -7.285  0.00  0.00     0.138 C 
BRANCH   6   7
HETATM    7  C           1     -22.994  -4.230  -8.591  0.00  0.00     0.217 C 
HETATM    8  O           1     -22.464  -4.867  -9.470  0.00  0.00    -0.274 OA
HETATM    9  N           1     -24.249  -3.717  -8.778  0.00  0.00    -0.370 N 
HETATM   10  H           1     -24.693  -3.183  -8.041  0.00  0.00     0.159 HD
HETATM   11  H           1     -24.734  -3.871  -9.652  0.00  0.00     0.159 HD
ENDBRANCH   6   7
ENDBRANCH   5   6
BRANCH   5  12
HETATM   12  C           1     -19.939  -4.744  -6.912  0.00  0.00     0.197 C 
HETATM   13  O           1     -19.405  -4.531  -5.803  0.00  0.00    -0.646 OA
HETATM   14  O           1     -19.282  -4.585  -7.963  0.00  0.00    -0.646 OA
ENDBRANCH   5  12
ENDBRANCH   4   5
BRANCH   3  15
HETATM   15  C           1     -21.930  -7.705  -4.140  0.00  0.00     0.278 C 
BRANCH  15  16
HETATM   16  C           1     -21.134  -7.050  -3.019  0.00  0.00     0.021 C 
HETATM   17  C           1     -22.055  -6.163  -2.193  0.00  0.00     0.012 C 
BRANCH  16  18
HETATM   18  C           1     -20.533  -8.128  -2.128  0.00  0.00     0.002 C 
HETATM   19  C           1     -21.171  -8.060  -0.746  0.00  0.00     0.005 C 
ENDBRANCH  16  18
ENDBRANCH  15  16
BRANCH  15  20
HETATM   20  N           1     -21.647  -9.178  -4.158  0.00  0.00    -0.066 N 
HETATM   21  H           1     -22.549  -9.706  -4.132  0.00  0.00     0.275 HD
HETATM   22  H           1     -21.069  -9.432  -3.325  0.00  0.00     0.275 HD
HETATM   23  H           1     -21.126  -9.422  -5.030  0.00  0.00     0.275 HD
ENDBRANCH  15  20
ENDBRANCH   3  15
TORSDOF 8
ENDMDL
MODEL 8
REMARK VINA RESULT:      -5.7      9.686     11.649
REMARK  8 active torsions:
REMARK  status: ('A' for Active; 'I' for Inactive)
REMARK    1  A    between atoms: C_1  and  C_3 
REMARK    2  A    between atoms: C_3  and  C_4 
REMARK    3  A    between atoms: C_4  and  C_16 
REMARK    4  A    between atoms: C_4  and  N_10 
REMARK    5  A    between atoms: C_12  and  C_21 
REMARK    6  A    between atoms: C_12  and  C_13 
REMARK    7  A    between atoms: C_13  and  C_14 
REMARK    8  A    between atoms: C_13  and  N_18 
REMARK       I    between atoms: C_16  and  N_18 
REMARK       I    between atoms: N_20  and  C_21 
ROOT
HETATM    1  O           1     -28.442  -6.989 -18.708  0.00  0.00    -0.271 OA
HETATM    2  H           1     -26.128  -5.503 -17.200  0.00  0.00     0.163 HD
HETATM    3  C           1     -27.924  -6.202 -17.951  0.00  0.00     0.249 C 
HETATM    4  N           1     -26.561  -6.162 -17.833  0.00  0.00    -0.344 N 
ENDROOT
BRANCH   4   5
HETATM    5  C           1     -25.738  -7.064 -18.615  0.00  0.00     0.194 C 
BRANCH   5   6
HETATM    6  C           1     -25.676  -6.573 -20.055  0.00  0.00     0.138 C 
BRANCH   6   7
HETATM    7  C           1     -25.873  -7.739 -20.994  0.00  0.00     0.217 C 
HETATM    8  O           1     -24.985  -8.068 -21.743  0.00  0.00    -0.274 OA
HETATM    9  N           1     -27.060  -8.424 -20.995  0.00  0.00    -0.370 N 
HETATM   10  H           1     -27.804  -8.148 -20.367  0.00  0.00     0.159 HD
HETATM   11  H           1     -27.192  -9.205 -21.624  0.00  0.00     0.159 HD
ENDBRANCH   6   7
ENDBRANCH   5   6
BRANCH   5  12
HETATM   12  C           1     -24.346  -7.103 -18.036  0.00  0.00     0.197 C 
HETATM   13  O           1     -24.165  -7.515 -16.870  0.00  0.00    -0.646 OA
HETATM   14  O           1     -23.372  -6.726 -18.722  0.00  0.00    -0.646 OA
ENDBRANCH   5  12
ENDBRANCH   4   5
BRANCH   3  15
HETATM   15  C           1     -28.780  -5.264 -17.137  0.00  0.00     0.278 C 
BRANCH  15  16
HETATM   16  C           1     -30.145  -5.119 -17.798  0.00  0.00     0.021 C 
HETATM   17  C           1     -31.143  -6.041 -17.111  0.00  0.00     0.012 C 
BRANCH  16  18
HETATM   18  C           1     -30.617  -3.676 -17.672  0.00  0.00     0.002 C 
HETATM   19  C           1     -32.111  -3.654 -17.378  0.00  0.00     0.005 C 
ENDBRANCH  16  18
ENDBRANCH  15  16
BRANCH  15  20
HETATM   20  N           1     -28.117  -3.921 -17.062  0.00  0.00    -0.066 N 
HETATM   21  H           1     -27.099  -4.047 -16.862  0.00  0.00     0.275 HD
HETATM   22  H           1     -28.556  -3.358 -16.298  0.00  0.00     0.275 HD
HETATM   23  H           1     -28.234  -3.423 -17.973  0.00  0.00     0.275 HD
ENDBRANCH  15  20
ENDBRANCH   3  15
TORSDOF 8
ENDMDL
MODEL 9
REMARK VINA RESULT:      -5.7     15.027     17.745
REMARK  8 active torsions:
REMARK  status: ('A' for Active; 'I' for Inactive)
REMARK    1  A    between atoms: C_1  and  C_3 
REMARK    2  A    between atoms: C_3  and  C_4 
REMARK    3  A    between atoms: C_4  and  C_16 
REMARK    4  A    between atoms: C_4  and  N_10 
REMARK    5  A    between atoms: C_12  and  C_21 
REMARK    6  A    between atoms: C_12  and  C_13 
REMARK    7  A    between atoms: C_13  and  C_14 
REMARK    8  A    between atoms: C_13  and  N_18 
REMARK       I    between atoms: C_16  and  N_18 
REMARK       I    between atoms: N_20  and  C_21 
ROOT
HETATM    1  O           1     -21.168  -4.242  -6.104  0.00  0.00    -0.271 OA
HETATM    2  H           1     -21.865  -7.184  -6.939  0.00  0.00     0.163 HD
HETATM    3  C           1     -21.606  -5.137  -6.787  0.00  0.00     0.249 C 
HETATM    4  N           1     -21.498  -6.435  -6.366  0.00  0.00    -0.344 N 
ENDROOT
BRANCH   4   5
HETATM    5  C           1     -20.858  -6.736  -5.101  0.00  0.00     0.194 C 
BRANCH   5   6
HETATM    6  C           1     -21.899  -7.252  -4.116  0.00  0.00     0.138 C 
BRANCH   6   7
HETATM    7  C           1     -21.580  -6.742  -2.732  0.00  0.00     0.217 C 
HETATM    8  O           1     -21.974  -5.655  -2.383  0.00  0.00    -0.274 OA
HETATM    9  N           1     -20.842  -7.511  -1.872  0.00  0.00    -0.370 N 
HETATM   10  H           1     -20.511  -8.422  -2.165  0.00  0.00     0.159 HD
HETATM   11  H           1     -20.628  -7.169  -0.944  0.00  0.00     0.159 HD
ENDBRANCH   6   7
ENDBRANCH   5   6
BRANCH   5  12
HETATM   12  C           1     -19.798  -7.789  -5.312  0.00  0.00     0.197 C 
HETATM   13  O           1     -19.098  -7.773  -6.347  0.00  0.00    -0.646 OA
HETATM   14  O           1     -19.619  -8.678  -4.451  0.00  0.00    -0.646 OA
ENDBRANCH   5  12
ENDBRANCH   4   5
BRANCH   3  15
HETATM   15  C           1     -22.272  -4.823  -8.104  0.00  0.00     0.278 C 
BRANCH  15  16
HETATM   16  C           1     -21.339  -3.973  -8.956  0.00  0.00     0.021 C 
HETATM   17  C           1     -20.059  -4.749  -9.238  0.00  0.00     0.012 C 
BRANCH  16  18
HETATM   18  C           1     -22.025  -3.631 -10.272  0.00  0.00     0.002 C 
HETATM   19  C           1     -20.988  -3.573 -11.386  0.00  0.00     0.005 C 
ENDBRANCH  16  18
ENDBRANCH  15  16
BRANCH  15  20
HETATM   20  N           1     -23.544  -4.069  -7.853  0.00  0.00    -0.066 N 
HETATM   21  H           1     -24.326  -4.522  -8.377  0.00  0.00     0.275 HD
HETATM   22  H           1     -23.432  -3.081  -8.175  0.00  0.00     0.275 HD
HETATM   23  H           1     -23.759  -4.079  -6.830  0.00  0.00     0.275 HD
ENDBRANCH  15  20
ENDBRANCH   3  15
TORSDOF 8
ENDMDL
