MODEL 1
REMARK VINA RESULT:      -7.1      0.000      0.000
REMARK  9 active torsions:
REMARK  status: ('A' for Active; 'I' for Inactive)
REMARK    1  A    between atoms: C_3  and  Se_16 
REMARK    2  A    between atoms: C_3  and  C_10 
REMARK    3  A    between atoms: C_7  and  C_8 
REMARK    4  A    between atoms: C_8  and  C_9 
REMARK    5  A    between atoms: C_9  and  C_11 
REMARK    6  A    between atoms: C_9  and  N_24 
REMARK    7  A    between atoms: C_10  and  C_20 
REMARK       I    between atoms: C_11  and  N_15 
REMARK    8  A    between atoms: N_15  and  C_20 
REMARK    9  A    between atoms: C_20  and  C_26 
ROOT
HETATM    1  C           1     -21.281  -6.062  -5.337  0.00  0.00     0.278 C 
ENDROOT
BRANCH   1   2
HETATM    2  C           1     -20.728  -4.958  -6.228  0.00  0.00     0.083 C 
BRANCH   2   3
HETATM    3  C           1     -21.736  -4.613  -7.280  0.00  0.00    -0.028 A 
HETATM    4  C           1     -23.087  -4.434  -7.082  0.00  0.00     0.096 A 
HETATM    5  N           1     -23.650  -4.132  -8.293  0.00  0.00    -0.365 N 
HETATM    6  H           1     -24.671  -3.943  -8.450  0.00  0.00     0.165 HD
HETATM    7  C           1     -22.687  -4.112  -9.276  0.00  0.00     0.042 A 
HETATM    8  C           1     -22.797  -3.853 -10.647  0.00  0.00     0.030 A 
HETATM    9  C           1     -21.470  -4.412  -8.662  0.00  0.00    -0.002 A 
HETATM   10  C           1     -21.628  -3.903 -11.411  0.00  0.00     0.002 A 
HETATM   11  C           1     -20.399  -4.201 -10.826  0.00  0.00     0.001 A 
HETATM   12  C           1     -20.305  -4.457  -9.453  0.00  0.00     0.014 A 
ENDBRANCH   2   3
ENDBRANCH   1   2
BRANCH   1  13
HETATM   13  C           1     -20.449  -7.311  -5.508  0.00  0.00     0.249 C 
HETATM   14  N           1     -20.580  -8.347  -4.624  0.00  0.00    -0.345 N 
HETATM   15  H           1     -21.235  -8.277  -3.855  0.00  0.00     0.163 HD
HETATM   16  O           1     -19.667  -7.394  -6.425  0.00  0.00    -0.271 OA
BRANCH  14  17
HETATM   17  C           1     -19.781  -9.546  -4.787  0.00  0.00     0.185 C 
BRANCH  17  18
HETATM   18  C           1     -19.247  -9.989  -3.432  0.00  0.00     0.036 C 
BRANCH  18  19
HETATM   19  C           1     -19.617  -8.957  -2.375  0.00  0.00     0.003 C 
BRANCH  19  20
HETATM   20 Se           1     -21.011  -9.679  -1.220  0.00  0.00     0.000 Se
HETATM   21  C           1     -21.834  -7.949  -0.859  0.00  0.00     0.000 C 
ENDBRANCH  19  20
ENDBRANCH  18  19
ENDBRANCH  17  18
BRANCH  17  22
HETATM   22  C           1     -20.634 -10.642  -5.374  0.00  0.00     0.196 C 
HETATM   23  O           1     -21.573 -11.130  -4.707  0.00  0.00    -0.646 OA
HETATM   24  O           1     -20.403 -11.065  -6.528  0.00  0.00    -0.646 OA
ENDBRANCH  17  22
ENDBRANCH  14  17
ENDBRANCH   1  13
BRANCH   1  25
HETATM   25  N           1     -21.230  -5.621  -3.905  0.00  0.00    -0.066 N 
HETATM   26  H           1     -20.811  -4.665  -3.849  0.00  0.00     0.275 HD
HETATM   27  H           1     -20.645  -6.289  -3.354  0.00  0.00     0.275 HD
HETATM   28  H           1     -22.199  -5.600  -3.513  0.00  0.00     0.275 HD
ENDBRANCH   1  25
TORSDOF 9
ENDMDL
MODEL 2
REMARK VINA RESULT:      -7.1      1.613      1.795
REMARK  9 active torsions:
REMARK  status: ('A' for Active; 'I' for Inactive)
REMARK    1  A    between atoms: C_3  and  Se_16 
REMARK    2  A    between atoms: C_3  and  C_10 
REMARK    3  A    between atoms: C_7  and  C_8 
REMARK    4  A    between atoms: C_8  and  C_9 
REMARK    5  A    between atoms: C_9  and  C_11 
REMARK    6  A    between atoms: C_9  and  N_24 
REMARK    7  A    between atoms: C_10  and  C_20 
REMARK       I    between atoms: C_11  and  N_15 
REMARK    8  A    between atoms: N_15  and  C_20 
REMARK    9  A    between atoms: C_20  and  C_26 
ROOT
HETATM    1  C           1     -21.289  -6.199  -5.433  0.00  0.00     0.278 C 
ENDROOT
BRANCH   1   2
HETATM    2  C           1     -20.868  -4.903  -6.114  0.00  0.00     0.083 C 
BRANCH   2   3
HETATM    3  C           1     -21.816  -4.596  -7.232  0.00  0.00    -0.028 A 
HETATM    4  C           1     -23.172  -4.393  -7.113  0.00  0.00     0.096 A 
HETATM    5  N           1     -23.669  -4.141  -8.364  0.00  0.00    -0.365 N 
HETATM    6  H           1     -24.677  -3.948  -8.583  0.00  0.00     0.165 HD
HETATM    7  C           1     -22.655  -4.177  -9.296  0.00  0.00     0.042 A 
HETATM    8  C           1     -22.692  -3.981 -10.681  0.00  0.00     0.030 A 
HETATM    9  C           1     -21.476  -4.463  -8.606  0.00  0.00    -0.002 A 
HETATM   10  C           1     -21.485  -4.081 -11.379  0.00  0.00     0.002 A 
HETATM   11  C           1     -20.292  -4.365 -10.718  0.00  0.00     0.001 A 
HETATM   12  C           1     -20.273  -4.558  -9.332  0.00  0.00     0.014 A 
ENDBRANCH   2   3
ENDBRANCH   1   2
BRANCH   1  13
HETATM   13  C           1     -20.205  -7.235  -5.610  0.00  0.00     0.249 C 
HETATM   14  N           1     -20.036  -8.216  -4.671  0.00  0.00    -0.345 N 
HETATM   15  H           1     -20.639  -8.248  -3.858  0.00  0.00     0.163 HD
HETATM   16  O           1     -19.487  -7.198  -6.581  0.00  0.00    -0.271 OA
BRANCH  14  17
HETATM   17  C           1     -18.996  -9.212  -4.841  0.00  0.00     0.185 C 
BRANCH  17  18
HETATM   18  C           1     -18.234  -9.378  -3.534  0.00  0.00     0.036 C 
BRANCH  18  19
HETATM   19  C           1     -16.779  -9.716  -3.831  0.00  0.00     0.003 C 
BRANCH  19  20
HETATM   20 Se           1     -16.018 -10.697  -2.328  0.00  0.00     0.000 Se
HETATM   21  C           1     -17.734 -11.364  -1.685  0.00  0.00     0.000 C 
ENDBRANCH  19  20
ENDBRANCH  18  19
ENDBRANCH  17  18
BRANCH  17  22
HETATM   22  C           1     -19.619 -10.529  -5.231  0.00  0.00     0.196 C 
HETATM   23  O           1     -20.113 -11.271  -4.354  0.00  0.00    -0.646 OA
HETATM   24  O           1     -19.641 -10.880  -6.430  0.00  0.00    -0.646 OA
ENDBRANCH  17  22
ENDBRANCH  14  17
ENDBRANCH   1  13
BRANCH   1  25
HETATM   25  N           1     -21.504  -5.947  -3.971  0.00  0.00    -0.066 N 
HETATM   26  H           1     -21.803  -6.833  -3.504  0.00  0.00     0.275 HD
HETATM   27  H           1     -22.245  -5.221  -3.846  0.00  0.00     0.275 HD
HETATM   28  H           1     -20.612  -5.612  -3.540  0.00  0.00     0.275 HD
ENDBRANCH   1  25
TORSDOF 9
ENDMDL
MODEL 3
REMARK VINA RESULT:      -6.9      2.106      2.876
REMARK  9 active torsions:
REMARK  status: ('A' for Active; 'I' for Inactive)
REMARK    1  A    between atoms: C_3  and  Se_16 
REMARK    2  A    between atoms: C_3  and  C_10 
REMARK    3  A    between atoms: C_7  and  C_8 
REMARK    4  A    between atoms: C_8  and  C_9 
REMARK    5  A    between atoms: C_9  and  C_11 
REMARK    6  A    between atoms: C_9  and  N_24 
REMARK    7  A    between atoms: C_10  and  C_20 
REMARK       I    between atoms: C_11  and  N_15 
REMARK    8  A    between atoms: N_15  and  C_20 
REMARK    9  A    between atoms: C_20  and  C_26 
ROOT
HETATM    1  C           1     -21.244  -5.470  -5.328  0.00  0.00     0.278 C 
ENDROOT
BRANCH   1   2
HETATM    2  C           1     -21.006  -5.855  -6.782  0.00  0.00     0.083 C 
BRANCH   2   3
HETATM    3  C           1     -21.869  -5.012  -7.669  0.00  0.00    -0.028 A 
HETATM    4  C           1     -23.138  -4.565  -7.378  0.00  0.00     0.096 A 
HETATM    5  N           1     -23.577  -3.829  -8.447  0.00  0.00    -0.365 N 
HETATM    6  H           1     -24.515  -3.361  -8.510  0.00  0.00     0.165 HD
HETATM    7  C           1     -22.612  -3.791  -9.429  0.00  0.00     0.042 A 
HETATM    8  C           1     -22.618  -3.165 -10.681  0.00  0.00     0.030 A 
HETATM    9  C           1     -21.524  -4.530  -8.961  0.00  0.00    -0.002 A 
HETATM   10  C           1     -21.477  -3.301 -11.477  0.00  0.00     0.002 A 
HETATM   11  C           1     -20.376  -4.033 -11.038  0.00  0.00     0.001 A 
HETATM   12  C           1     -20.386  -4.652  -9.782  0.00  0.00     0.014 A 
ENDBRANCH   2   3
ENDBRANCH   1   2
BRANCH   1  13
HETATM   13  C           1     -21.442  -6.718  -4.503  0.00  0.00     0.249 C 
HETATM   14  N           1     -21.118  -6.719  -3.173  0.00  0.00    -0.345 N 
HETATM   15  H           1     -20.747  -5.881  -2.742  0.00  0.00     0.163 HD
HETATM   16  O           1     -21.887  -7.717  -5.016  0.00  0.00    -0.271 OA
BRANCH  14  17
HETATM   17  C           1     -21.309  -7.917  -2.380  0.00  0.00     0.185 C 
BRANCH  17  18
HETATM   18  C           1     -19.977  -8.636  -2.217  0.00  0.00     0.036 C 
BRANCH  18  19
HETATM   19  C           1     -20.162 -10.122  -2.497  0.00  0.00     0.003 C 
BRANCH  19  20
HETATM   20 Se           1     -18.437 -11.023  -2.394  0.00  0.00     0.000 Se
HETATM   21  C           1     -17.397  -9.435  -2.836  0.00  0.00     0.000 C 
ENDBRANCH  19  20
ENDBRANCH  18  19
ENDBRANCH  17  18
BRANCH  17  22
HETATM   22  C           1     -21.846  -7.541  -1.021  0.00  0.00     0.196 C 
HETATM   23  O           1     -21.497  -8.189  -0.010  0.00  0.00    -0.646 OA
HETATM   24  O           1     -22.641  -6.584  -0.905  0.00  0.00    -0.646 OA
ENDBRANCH  17  22
ENDBRANCH  14  17
ENDBRANCH   1  13
BRANCH   1  25
HETATM   25  N           1     -20.056  -4.714  -4.811  0.00  0.00    -0.066 N 
HETATM   26  H           1     -19.273  -5.380  -4.625  0.00  0.00     0.275 HD
HETATM   27  H           1     -20.313  -4.223  -3.926  0.00  0.00     0.275 HD
HETATM   28  H           1     -19.753  -4.012  -5.524  0.00  0.00     0.275 HD
ENDBRANCH   1  25
TORSDOF 9
ENDMDL
MODEL 4
REMARK VINA RESULT:      -6.9      2.208      2.906
REMARK  9 active torsions:
REMARK  status: ('A' for Active; 'I' for Inactive)
REMARK    1  A    between atoms: C_3  and  Se_16 
REMARK    2  A    between atoms: C_3  and  C_10 
REMARK    3  A    between atoms: C_7  and  C_8 
REMARK    4  A    between atoms: C_8  and  C_9 
REMARK    5  A    between atoms: C_9  and  C_11 
REMARK    6  A    between atoms: C_9  and  N_24 
REMARK    7  A    between atoms: C_10  and  C_20 
REMARK       I    between atoms: C_11  and  N_15 
REMARK    8  A    between atoms: N_15  and  C_20 
REMARK    9  A    between atoms: C_20  and  C_26 
ROOT
HETATM    1  C           1     -20.374  -6.236  -5.809  0.00  0.00     0.278 C 
ENDROOT
BRANCH   1   2
HETATM    2  C           1     -20.729  -4.756  -5.860  0.00  0.00     0.083 C 
BRANCH   2   3
HETATM    3  C           1     -21.720  -4.517  -6.957  0.00  0.00    -0.028 A 
HETATM    4  C           1     -23.090  -4.525  -6.828  0.00  0.00     0.096 A 
HETATM    5  N           1     -23.627  -4.265  -8.061  0.00  0.00    -0.365 N 
HETATM    6  H           1     -24.655  -4.209  -8.269  0.00  0.00     0.165 HD
HETATM    7  C           1     -22.626  -4.088  -8.990  0.00  0.00     0.042 A 
HETATM    8  C           1     -22.701  -3.806 -10.359  0.00  0.00     0.030 A 
HETATM    9  C           1     -21.413  -4.242  -8.318  0.00  0.00    -0.002 A 
HETATM   10  C           1     -21.498  -3.678 -11.059  0.00  0.00     0.002 A 
HETATM   11  C           1     -20.271  -3.827 -10.416  0.00  0.00     0.001 A 
HETATM   12  C           1     -20.214  -4.109  -9.046  0.00  0.00     0.014 A 
ENDBRANCH   2   3
ENDBRANCH   1   2
BRANCH   1  13
HETATM   13  C           1     -21.194  -6.914  -4.737  0.00  0.00     0.249 C 
HETATM   14  N           1     -20.696  -7.034  -3.468  0.00  0.00    -0.345 N 
HETATM   15  H           1     -19.779  -6.668  -3.248  0.00  0.00     0.163 HD
HETATM   16  O           1     -22.289  -7.349  -5.001  0.00  0.00    -0.271 OA
BRANCH  14  17
HETATM   17  C           1     -21.483  -7.684  -2.439  0.00  0.00     0.185 C 
BRANCH  17  18
HETATM   18  C           1     -20.569  -8.517  -1.551  0.00  0.00     0.036 C 
BRANCH  18  19
HETATM   19  C           1     -20.994  -9.979  -1.610  0.00  0.00     0.003 C 
BRANCH  19  20
HETATM   20 Se           1     -21.629 -10.544   0.144  0.00  0.00     0.000 Se
HETATM   21  C           1     -23.518 -10.422  -0.320  0.00  0.00     0.000 C 
ENDBRANCH  19  20
ENDBRANCH  18  19
ENDBRANCH  17  18
BRANCH  17  22
HETATM   22  C           1     -22.180  -6.640  -1.603  0.00  0.00     0.196 C 
HETATM   23  O           1     -22.109  -5.433  -1.923  0.00  0.00    -0.646 OA
HETATM   24  O           1     -22.829  -6.979  -0.590  0.00  0.00    -0.646 OA
ENDBRANCH  17  22
ENDBRANCH  14  17
ENDBRANCH   1  13
BRANCH   1  25
HETATM   25  N           1     -20.671  -6.866  -7.137  0.00  0.00    -0.066 N 
HETATM   26  H           1     -21.678  -6.720  -7.375  0.00  0.00     0.275 HD
HETATM   27  H           1     -20.469  -7.890  -7.090  0.00  0.00     0.275 HD
HETATM   28  H           1     -20.073  -6.426  -7.873  0.00  0.00     0.275 HD
ENDBRANCH   1  25
TORSDOF 9
ENDMDL
MODEL 5
REMARK VINA RESULT:      -6.6      1.984      2.704
REMARK  9 active torsions:
REMARK  status: ('A' for Active; 'I' for Inactive)
REMARK    1  A    between atoms: C_3  and  Se_16 
REMARK    2  A    between atoms: C_3  and  C_10 
REMARK    3  A    between atoms: C_7  and  C_8 
REMARK    4  A    between atoms: C_8  and  C_9 
REMARK    5  A    between atoms: C_9  and  C_11 
REMARK    6  A    between atoms: C_9  and  N_24 
REMARK    7  A    between atoms: C_10  and  C_20 
REMARK       I    between atoms: C_11  and  N_15 
REMARK    8  A    between atoms: N_15  and  C_20 
REMARK    9  A    between atoms: C_20  and  C_26 
ROOT
HETATM    1  C           1     -21.502  -6.416  -5.195  0.00  0.00     0.278 C 
ENDROOT
BRANCH   1   2
HETATM    2  C           1     -20.738  -5.628  -6.251  0.00  0.00     0.083 C 
BRANCH   2   3
HETATM    3  C           1     -21.709  -4.996  -7.200  0.00  0.00    -0.028 A 
HETATM    4  C           1     -23.020  -4.676  -6.926  0.00  0.00     0.096 A 
HETATM    5  N           1     -23.558  -4.117  -8.055  0.00  0.00    -0.365 N 
HETATM    6  H           1     -24.547  -3.775  -8.144  0.00  0.00     0.165 HD
HETATM    7  C           1     -22.616  -4.069  -9.059  0.00  0.00     0.042 A 
HETATM    8  C           1     -22.714  -3.587 -10.370  0.00  0.00     0.030 A 
HETATM    9  C           1     -21.441  -4.618  -8.544  0.00  0.00    -0.002 A 
HETATM   10  C           1     -21.575  -3.670 -11.175  0.00  0.00     0.002 A 
HETATM   11  C           1     -20.387  -4.212 -10.689  0.00  0.00     0.001 A 
HETATM   12  C           1     -20.306  -4.689  -9.375  0.00  0.00     0.014 A 
ENDBRANCH   2   3
ENDBRANCH   1   2
BRANCH   1  13
HETATM   13  C           1     -20.952  -7.821  -5.120  0.00  0.00     0.249 C 
HETATM   14  N           1     -20.277  -8.233  -4.003  0.00  0.00    -0.345 N 
HETATM   15  H           1     -20.147  -7.596  -3.227  0.00  0.00     0.163 HD
HETATM   16  O           1     -21.109  -8.581  -6.046  0.00  0.00    -0.271 OA
BRANCH  14  17
HETATM   17  C           1     -19.750  -9.581  -3.930  0.00  0.00     0.185 C 
BRANCH  17  18
HETATM   18  C           1     -18.236  -9.527  -3.778  0.00  0.00     0.036 C 
BRANCH  18  19
HETATM   19  C           1     -17.576 -10.000  -5.066  0.00  0.00     0.003 C 
BRANCH  19  20
HETATM   20 Se           1     -16.834 -11.783  -4.801  0.00  0.00     0.000 Se
HETATM   21  C           1     -15.114 -11.366  -5.619  0.00  0.00     0.000 C 
ENDBRANCH  19  20
ENDBRANCH  18  19
ENDBRANCH  17  18
BRANCH  17  22
HETATM   22  C           1     -20.349 -10.293  -2.743  0.00  0.00     0.196 C 
HETATM   23  O           1     -20.867  -9.634  -1.815  0.00  0.00    -0.646 OA
HETATM   24  O           1     -20.328 -11.541  -2.685  0.00  0.00    -0.646 OA
ENDBRANCH  17  22
ENDBRANCH  14  17
ENDBRANCH   1  13
BRANCH   1  25
HETATM   25  N           1     -21.345  -5.748  -3.862  0.00  0.00    -0.066 N 
HETATM   26  H           1     -20.575  -6.211  -3.328  0.00  0.00     0.275 HD
HETATM   27  H           1     -22.237  -5.826  -3.325  0.00  0.00     0.275 HD
HETATM   28  H           1     -21.111  -4.738  -4.005  0.00  0.00     0.275 HD
ENDBRANCH   1  25
TORSDOF 9
ENDMDL
MODEL 6
REMARK VINA RESULT:      -6.4      2.732      4.387
REMARK  9 active torsions:
REMARK  status: ('A' for Active; 'I' for Inactive)
REMARK    1  A    between atoms: C_3  and  Se_16 
REMARK    2  A    between atoms: C_3  and  C_10 
REMARK    3  A    between atoms: C_7  and  C_8 
REMARK    4  A    between atoms: C_8  and  C_9 
REMARK    5  A    between atoms: C_9  and  C_11 
REMARK    6  A    between atoms: C_9  and  N_24 
REMARK    7  A    between atoms: C_10  and  C_20 
REMARK       I    between atoms: C_11  and  N_15 
REMARK    8  A    between atoms: N_15  and  C_20 
REMARK    9  A    between atoms: C_20  and  C_26 
ROOT
HETATM    1  C           1     -19.634  -8.481  -3.667  0.00  0.00     0.278 C 
ENDROOT
BRANCH   1   2
HETATM    2  C           1     -20.233  -8.588  -5.062  0.00  0.00     0.083 C 
BRANCH   2   3
HETATM    3  C           1     -21.049  -7.365  -5.351  0.00  0.00    -0.028 A 
HETATM    4  C           1     -22.304  -7.093  -4.856  0.00  0.00     0.096 A 
HETATM    5  N           1     -22.696  -5.880  -5.358  0.00  0.00    -0.365 N 
HETATM    6  H           1     -23.614  -5.413  -5.153  0.00  0.00     0.165 HD
HETATM    7  C           1     -21.714  -5.360  -6.172  0.00  0.00     0.042 A 
HETATM    8  C           1     -21.676  -4.160  -6.891  0.00  0.00     0.030 A 
HETATM    9  C           1     -20.664  -6.279  -6.183  0.00  0.00    -0.002 A 
HETATM   10  C           1     -20.528  -3.894  -7.643  0.00  0.00     0.002 A 
HETATM   11  C           1     -19.463  -4.792  -7.674  0.00  0.00     0.001 A 
HETATM   12  C           1     -19.518  -5.988  -6.949  0.00  0.00     0.014 A 
ENDBRANCH   2   3
ENDBRANCH   1   2
BRANCH   1  13
HETATM   13  C           1     -20.623  -9.003  -2.652  0.00  0.00     0.249 C 
HETATM   14  N           1     -20.751  -8.383  -1.439  0.00  0.00    -0.345 N 
HETATM   15  H           1     -20.183  -7.574  -1.222  0.00  0.00     0.163 HD
HETATM   16  O           1     -21.302  -9.968  -2.912  0.00  0.00    -0.271 OA
BRANCH  14  17
HETATM   17  C           1     -21.701  -8.884  -0.465  0.00  0.00     0.185 C 
BRANCH  17  18
HETATM   18  C           1     -20.963  -9.286   0.805  0.00  0.00     0.036 C 
BRANCH  18  19
HETATM   19  C           1     -20.583 -10.759   0.728  0.00  0.00     0.003 C 
BRANCH  19  20
HETATM   20 Se           1     -22.143 -11.809   0.218  0.00  0.00     0.000 Se
HETATM   21  C           1     -21.133 -13.102  -0.833  0.00  0.00     0.000 C 
ENDBRANCH  19  20
ENDBRANCH  18  19
ENDBRANCH  17  18
BRANCH  17  22
HETATM   22  C           1     -22.706  -7.806  -0.141  0.00  0.00     0.196 C 
HETATM   23  O           1     -22.746  -6.762  -0.828  0.00  0.00    -0.646 OA
HETATM   24  O           1     -23.498  -7.955   0.814  0.00  0.00    -0.646 OA
ENDBRANCH  17  22
ENDBRANCH  14  17
ENDBRANCH   1  13
BRANCH   1  25
HETATM   25  N           1     -18.376  -9.294  -3.600  0.00  0.00    -0.066 N 
HETATM   26  H           1     -18.167  -9.691  -4.544  0.00  0.00     0.275 HD
HETATM   27  H           1     -18.499 -10.073  -2.915  0.00  0.00     0.275 HD
HETATM   28  H           1     -17.583  -8.684  -3.296  0.00  0.00     0.275 HD
ENDBRANCH   1  25
TORSDOF 9
ENDMDL
MODEL 7
REMARK VINA RESULT:      -6.4      1.784      2.371
REMARK  9 active torsions:
REMARK  status: ('A' for Active; 'I' for Inactive)
REMARK    1  A    between atoms: C_3  and  Se_16 
REMARK    2  A    between atoms: C_3  and  C_10 
REMARK    3  A    between atoms: C_7  and  C_8 
REMARK    4  A    between atoms: C_8  and  C_9 
REMARK    5  A    between atoms: C_9  and  C_11 
REMARK    6  A    between atoms: C_9  and  N_24 
REMARK    7  A    between atoms: C_10  and  C_20 
REMARK       I    between atoms: C_11  and  N_15 
REMARK    8  A    between atoms: N_15  and  C_20 
REMARK    9  A    between atoms: C_20  and  C_26 
ROOT
HETATM    1  C           1     -21.677  -6.588  -5.069  0.00  0.00     0.278 C 
ENDROOT
BRANCH   1   2
HETATM    2  C           1     -20.853  -6.112  -6.259  0.00  0.00     0.083 C 
BRANCH   2   3
HETATM    3  C           1     -21.714  -5.283  -7.161  0.00  0.00    -0.028 A 
HETATM    4  C           1     -22.977  -4.817  -6.875  0.00  0.00     0.096 A 
HETATM    5  N           1     -23.414  -4.103  -7.959  0.00  0.00    -0.365 N 
HETATM    6  H           1     -24.348  -3.628  -8.029  0.00  0.00     0.165 HD
HETATM    7  C           1     -22.454  -4.098  -8.946  0.00  0.00     0.042 A 
HETATM    8  C           1     -22.461  -3.503 -10.213  0.00  0.00     0.030 A 
HETATM    9  C           1     -21.371  -4.836  -8.467  0.00  0.00    -0.002 A 
HETATM   10  C           1     -21.326  -3.668 -11.011  0.00  0.00     0.002 A 
HETATM   11  C           1     -20.229  -4.399 -10.560  0.00  0.00     0.001 A 
HETATM   12  C           1     -20.238  -4.988  -9.290  0.00  0.00     0.014 A 
ENDBRANCH   2   3
ENDBRANCH   1   2
BRANCH   1  13
HETATM   13  C           1     -21.289  -8.006  -4.723  0.00  0.00     0.249 C 
HETATM   14  N           1     -21.001  -8.900  -5.718  0.00  0.00    -0.345 N 
HETATM   15  H           1     -21.047  -8.610  -6.687  0.00  0.00     0.163 HD
HETATM   16  O           1     -21.233  -8.351  -3.566  0.00  0.00    -0.271 OA
BRANCH  14  17
HETATM   17  C           1     -20.628 -10.260  -5.386  0.00  0.00     0.185 C 
BRANCH  17  18
HETATM   18  C           1     -21.320 -11.224  -6.339  0.00  0.00     0.036 C 
BRANCH  18  19
HETATM   19  C           1     -21.787 -12.454  -5.571  0.00  0.00     0.003 C 
BRANCH  19  20
HETATM   20 Se           1     -22.316 -11.934  -3.769  0.00  0.00     0.000 Se
HETATM   21  C           1     -21.012 -13.079  -2.880  0.00  0.00     0.000 C 
ENDBRANCH  19  20
ENDBRANCH  18  19
ENDBRANCH  17  18
BRANCH  17  22
HETATM   22  C           1     -19.133 -10.417  -5.511  0.00  0.00     0.196 C 
HETATM   23  O           1     -18.479  -9.626  -6.225  0.00  0.00    -0.646 OA
HETATM   24  O           1     -18.547 -11.338  -4.901  0.00  0.00    -0.646 OA
ENDBRANCH  17  22
ENDBRANCH  14  17
ENDBRANCH   1  13
BRANCH   1  25
HETATM   25  N           1     -21.415  -5.698  -3.892  0.00  0.00    -0.066 N 
HETATM   26  H           1     -22.278  -5.630  -3.307  0.00  0.00     0.275 HD
HETATM   27  H           1     -21.147  -4.745  -4.228  0.00  0.00     0.275 HD
HETATM   28  H           1     -20.637  -6.097  -3.319  0.00  0.00     0.275 HD
ENDBRANCH   1  25
TORSDOF 9
ENDMDL
MODEL 8
REMARK VINA RESULT:      -6.3      3.094      4.362
REMARK  9 active torsions:
REMARK  status: ('A' for Active; 'I' for Inactive)
REMARK    1  A    between atoms: C_3  and  Se_16 
REMARK    2  A    between atoms: C_3  and  C_10 
REMARK    3  A    between atoms: C_7  and  C_8 
REMARK    4  A    between atoms: C_8  and  C_9 
REMARK    5  A    between atoms: C_9  and  C_11 
REMARK    6  A    between atoms: C_9  and  N_24 
REMARK    7  A    between atoms: C_10  and  C_20 
REMARK       I    between atoms: C_11  and  N_15 
REMARK    8  A    between atoms: N_15  and  C_20 
REMARK    9  A    between atoms: C_20  and  C_26 
ROOT
HETATM    1  C           1     -21.201  -7.650  -3.602  0.00  0.00     0.278 C 
ENDROOT
BRANCH   1   2
HETATM    2  C           1     -21.952  -6.585  -4.391  0.00  0.00     0.083 C 
BRANCH   2   3
HETATM    3  C           1     -21.192  -6.262  -5.641  0.00  0.00    -0.028 A 
HETATM    4  C           1     -19.926  -6.699  -5.956  0.00  0.00     0.096 A 
HETATM    5  N           1     -19.598  -6.181  -7.181  0.00  0.00    -0.365 N 
HETATM    6  H           1     -18.688  -6.345  -7.679  0.00  0.00     0.165 HD
HETATM    7  C           1     -20.633  -5.414  -7.667  0.00  0.00     0.042 A 
HETATM    8  C           1     -20.745  -4.699  -8.865  0.00  0.00     0.030 A 
HETATM    9  C           1     -21.651  -5.449  -6.713  0.00  0.00    -0.002 A 
HETATM   10  C           1     -21.934  -4.000  -9.092  0.00  0.00     0.002 A 
HETATM   11  C           1     -22.968  -4.016  -8.158  0.00  0.00     0.001 A 
HETATM   12  C           1     -22.840  -4.736  -6.965  0.00  0.00     0.014 A 
ENDBRANCH   2   3
ENDBRANCH   1   2
BRANCH   1  13
HETATM   13  C           1     -21.765  -7.732  -2.204  0.00  0.00     0.249 C 
HETATM   14  N           1     -21.913  -8.949  -1.596  0.00  0.00    -0.345 N 
HETATM   15  H           1     -21.644  -9.794  -2.083  0.00  0.00     0.163 HD
HETATM   16  O           1     -22.084  -6.723  -1.622  0.00  0.00    -0.271 OA
BRANCH  14  17
HETATM   17  C           1     -22.454  -9.028  -0.253  0.00  0.00     0.185 C 
BRANCH  17  18
HETATM   18  C           1     -23.447 -10.179  -0.172  0.00  0.00     0.036 C 
BRANCH  18  19
HETATM   19  C           1     -23.282 -11.081  -1.388  0.00  0.00     0.003 C 
BRANCH  19  20
HETATM   20 Se           1     -23.878 -12.884  -0.947  0.00  0.00     0.000 Se
HETATM   21  C           1     -23.167 -12.851   0.868  0.00  0.00     0.000 C 
ENDBRANCH  19  20
ENDBRANCH  18  19
ENDBRANCH  17  18
BRANCH  17  22
HETATM   22  C           1     -21.333  -9.261   0.728  0.00  0.00     0.196 C 
HETATM   23  O           1     -21.034  -8.375   1.559  0.00  0.00    -0.646 OA
HETATM   24  O           1     -20.701 -10.340   0.712  0.00  0.00    -0.646 OA
ENDBRANCH  17  22
ENDBRANCH  14  17
ENDBRANCH   1  13
BRANCH   1  25
HETATM   25  N           1     -21.358  -8.977  -4.281  0.00  0.00    -0.066 N 
HETATM   26  H           1     -22.127  -8.920  -4.987  0.00  0.00     0.275 HD
HETATM   27  H           1     -21.591  -9.708  -3.571  0.00  0.00     0.275 HD
HETATM   28  H           1     -20.464  -9.231  -4.762  0.00  0.00     0.275 HD
ENDBRANCH   1  25
TORSDOF 9
ENDMDL
MODEL 9
REMARK VINA RESULT:      -6.1      3.056      7.773
REMARK  9 active torsions:
REMARK  status: ('A' for Active; 'I' for Inactive)
REMARK    1  A    between atoms: C_3  and  Se_16 
REMARK    2  A    between atoms: C_3  and  C_10 
REMARK    3  A    between atoms: C_7  and  C_8 
REMARK    4  A    between atoms: C_8  and  C_9 
REMARK    5  A    between atoms: C_9  and  C_11 
REMARK    6  A    between atoms: C_9  and  N_24 
REMARK    7  A    between atoms: C_10  and  C_20 
REMARK       I    between atoms: C_11  and  N_15 
REMARK    8  A    between atoms: N_15  and  C_20 
REMARK    9  A    between atoms: C_20  and  C_26 
ROOT
HETATM    1  C           1     -20.531 -10.577  -5.116  0.00  0.00     0.278 C 
ENDROOT
BRANCH   1   2
HETATM    2  C           1     -20.173 -11.198  -3.772  0.00  0.00     0.083 C 
BRANCH   2   3
HETATM    3  C           1     -21.360 -11.133  -2.861  0.00  0.00    -0.028 A 
HETATM    4  C           1     -22.439 -11.987  -2.873  0.00  0.00     0.096 A 
HETATM    5  N           1     -23.301 -11.586  -1.886  0.00  0.00    -0.365 N 
HETATM    6  H           1     -24.214 -12.051  -1.660  0.00  0.00     0.165 HD
HETATM    7  C           1     -22.797 -10.483  -1.233  0.00  0.00     0.042 A 
HETATM    8  C           1     -23.326  -9.741  -0.171  0.00  0.00     0.030 A 
HETATM    9  C           1     -21.573 -10.178  -1.830  0.00  0.00    -0.002 A 
HETATM   10  C           1     -22.579  -8.654   0.293  0.00  0.00     0.002 A 
HETATM   11  C           1     -21.354  -8.325  -0.283  0.00  0.00     0.001 A 
HETATM   12  C           1     -20.839  -9.078  -1.344  0.00  0.00     0.014 A 
ENDBRANCH   2   3
ENDBRANCH   1   2
BRANCH   1  13
HETATM   13  C           1     -20.280  -9.089  -5.066  0.00  0.00     0.249 C 
HETATM   14  N           1     -21.096  -8.233  -5.755  0.00  0.00    -0.345 N 
HETATM   15  H           1     -21.870  -8.598  -6.297  0.00  0.00     0.163 HD
HETATM   16  O           1     -19.358  -8.654  -4.419  0.00  0.00    -0.271 OA
BRANCH  14  17
HETATM   17  C           1     -20.856  -6.805  -5.707  0.00  0.00     0.185 C 
BRANCH  17  18
HETATM   18  C           1     -21.052  -6.210  -7.094  0.00  0.00     0.036 C 
BRANCH  18  19
HETATM   19  C           1     -19.968  -5.174  -7.364  0.00  0.00     0.003 C 
BRANCH  19  20
HETATM   20 Se           1     -20.359  -4.241  -9.029  0.00  0.00     0.000 Se
HETATM   21  C           1     -22.223  -3.885  -8.583  0.00  0.00     0.000 C 
ENDBRANCH  19  20
ENDBRANCH  18  19
ENDBRANCH  17  18
BRANCH  17  22
HETATM   22  C           1     -21.824  -6.164  -4.744  0.00  0.00     0.196 C 
HETATM   23  O           1     -21.429  -5.787  -3.619  0.00  0.00    -0.646 OA
HETATM   24  O           1     -23.021  -6.010  -5.069  0.00  0.00    -0.646 OA
ENDBRANCH  17  22
ENDBRANCH  14  17
ENDBRANCH   1  13
BRANCH   1  25
HETATM   25  N           1     -19.682 -11.190  -6.190  0.00  0.00    -0.066 N 
HETATM   26  H           1     -18.720 -11.363  -5.819  0.00  0.00     0.275 HD
HETATM   27  H           1     -19.628 -10.540  -7.006  0.00  0.00     0.275 HD
HETATM   28  H           1     -20.105 -12.096  -6.493  0.00  0.00     0.275 HD
ENDBRANCH   1  25
TORSDOF 9
ENDMDL
