MODEL 1
REMARK VINA RESULT:      -7.7      0.000      0.000
REMARK  9 active torsions:
REMARK  status: ('A' for Active; 'I' for Inactive)
REMARK       I    between atoms: C_1  and  N_28 
REMARK    1  A    between atoms: C_1  and  C_4 
REMARK    2  A    between atoms: C_4  and  C_13 
REMARK    3  A    between atoms: C_4  and  N_24 
REMARK    4  A    between atoms: C_5  and  O_22 
REMARK    5  A    between atoms: C_6  and  C_11 
REMARK    6  A    between atoms: C_6  and  C_7 
REMARK    7  A    between atoms: C_6  and  N_28 
REMARK    8  A    between atoms: C_11  and  C_25 
REMARK    9  A    between atoms: C_13  and  C_20 
REMARK       I    between atoms: N_16  and  C_25 
ROOT
HETATM    1  C           1     -36.442  -0.348 -12.526  0.00  0.00     0.249 C 
HETATM    2  H           1     -34.611   0.090 -13.386  0.00  0.00     0.163 HD
HETATM    3  O           1     -37.628  -0.460 -12.726  0.00  0.00    -0.271 OA
HETATM    4  N           1     -35.604  -0.004 -13.554  0.00  0.00    -0.344 N 
ENDROOT
BRANCH   1   5
HETATM    5  C           1     -35.883  -0.588 -11.145  0.00  0.00     0.278 C 
BRANCH   5   6
HETATM    6  C           1     -36.300  -1.971 -10.661  0.00  0.00     0.081 C 
BRANCH   6   7
HETATM    7  C           1     -35.201  -2.949 -10.940  0.00  0.00    -0.056 A 
HETATM    8  C           1     -35.467  -4.318 -10.928  0.00  0.00     0.010 A 
HETATM    9  C           1     -34.443  -5.229 -11.189  0.00  0.00     0.037 A 
HETATM   10  C           1     -33.154  -4.771 -11.462  0.00  0.00     0.065 A 
HETATM   11  C           1     -32.890  -3.402 -11.475  0.00  0.00     0.037 A 
HETATM   12  C           1     -33.913  -2.491 -11.215  0.00  0.00     0.010 A 
BRANCH  10  13
HETATM   13  O           1     -32.160  -5.657 -11.715  0.00  0.00    -0.361 OA
HETATM   14  H           1     -31.348  -5.153 -11.893  0.00  0.00     0.217 HD
ENDBRANCH  10  13
ENDBRANCH   6   7
ENDBRANCH   5   6
BRANCH   5  15
HETATM   15  N           1     -36.415   0.451 -10.204  0.00  0.00    -0.066 N 
HETATM   16  H           1     -35.749   0.574  -9.408  0.00  0.00     0.275 HD
HETATM   17  H           1     -36.523   1.359 -10.711  0.00  0.00     0.275 HD
HETATM   18  H           1     -37.344   0.145  -9.836  0.00  0.00     0.275 HD
ENDBRANCH   5  15
ENDBRANCH   1   5
BRANCH   4  19
HETATM   19  C           1     -36.141   0.227 -14.881  0.00  0.00     0.194 C 
BRANCH  19  20
HETATM   20  C           1     -35.578   1.528 -15.438  0.00  0.00     0.138 C 
BRANCH  20  21
HETATM   21  C           1     -36.646   2.240 -16.230  0.00  0.00     0.217 C 
HETATM   22  O           1     -36.354   3.182 -16.928  0.00  0.00    -0.274 OA
HETATM   23  N           1     -37.948   1.820 -16.157  0.00  0.00    -0.370 N 
HETATM   24  H           1     -38.663   2.298 -16.689  0.00  0.00     0.159 HD
HETATM   25  H           1     -38.192   1.032 -15.572  0.00  0.00     0.159 HD
ENDBRANCH  20  21
ENDBRANCH  19  20
BRANCH  19  26
HETATM   26  C           1     -35.752  -0.916 -15.785  0.00  0.00     0.197 C 
HETATM   27  O           1     -35.048  -1.851 -15.343  0.00  0.00    -0.646 OA
HETATM   28  O           1     -36.132  -0.930 -16.976  0.00  0.00    -0.646 OA
ENDBRANCH  19  26
ENDBRANCH   4  19
TORSDOF 9
ENDMDL
MODEL 2
REMARK VINA RESULT:      -7.5     13.958     17.636
REMARK  9 active torsions:
REMARK  status: ('A' for Active; 'I' for Inactive)
REMARK       I    between atoms: C_1  and  N_28 
REMARK    1  A    between atoms: C_1  and  C_4 
REMARK    2  A    between atoms: C_4  and  C_13 
REMARK    3  A    between atoms: C_4  and  N_24 
REMARK    4  A    between atoms: C_5  and  O_22 
REMARK    5  A    between atoms: C_6  and  C_11 
REMARK    6  A    between atoms: C_6  and  C_7 
REMARK    7  A    between atoms: C_6  and  N_28 
REMARK    8  A    between atoms: C_11  and  C_25 
REMARK    9  A    between atoms: C_13  and  C_20 
REMARK       I    between atoms: N_16  and  C_25 
ROOT
HETATM    1  C           1     -21.302  -5.727  -5.544  0.00  0.00     0.249 C 
HETATM    2  H           1     -22.339  -7.500  -5.293  0.00  0.00     0.163 HD
HETATM    3  O           1     -20.378  -5.055  -5.148  0.00  0.00    -0.271 OA
HETATM    4  N           1     -21.566  -6.938  -4.962  0.00  0.00    -0.344 N 
ENDROOT
BRANCH   1   5
HETATM    5  C           1     -22.163  -5.231  -6.680  0.00  0.00     0.278 C 
BRANCH   5   6
HETATM    6  C           1     -21.617  -3.905  -7.192  0.00  0.00     0.081 C 
BRANCH   6   7
HETATM    7  C           1     -21.638  -3.900  -8.688  0.00  0.00    -0.056 A 
HETATM    8  C           1     -22.831  -3.656  -9.368  0.00  0.00     0.010 A 
HETATM    9  C           1     -22.850  -3.651 -10.763  0.00  0.00     0.037 A 
HETATM   10  C           1     -21.676  -3.890 -11.478  0.00  0.00     0.065 A 
HETATM   11  C           1     -20.484  -4.133 -10.797  0.00  0.00     0.037 A 
HETATM   12  C           1     -20.464  -4.138  -9.403  0.00  0.00     0.010 A 
BRANCH  10  13
HETATM   13  O           1     -21.696  -3.885 -12.833  0.00  0.00    -0.361 OA
HETATM   14  H           1     -21.268  -3.067 -13.135  0.00  0.00     0.217 HD
ENDBRANCH  10  13
ENDBRANCH   6   7
ENDBRANCH   5   6
BRANCH   5  15
HETATM   15  N           1     -23.568  -5.038  -6.193  0.00  0.00    -0.066 N 
HETATM   16  H           1     -23.722  -4.030  -5.964  0.00  0.00     0.275 HD
HETATM   17  H           1     -24.240  -5.331  -6.938  0.00  0.00     0.275 HD
HETATM   18  H           1     -23.723  -5.617  -5.337  0.00  0.00     0.275 HD
ENDBRANCH   5  15
ENDBRANCH   1   5
BRANCH   4  19
HETATM   19  C           1     -20.738  -7.414  -3.871  0.00  0.00     0.194 C 
BRANCH  19  20
HETATM   20  C           1     -21.623  -8.006  -2.782  0.00  0.00     0.138 C 
BRANCH  20  21
HETATM   21  C           1     -22.067  -6.911  -1.844  0.00  0.00     0.217 C 
HETATM   22  O           1     -22.291  -5.803  -2.272  0.00  0.00    -0.274 OA
HETATM   23  N           1     -22.213  -7.171  -0.508  0.00  0.00    -0.370 N 
HETATM   24  H           1     -22.511  -6.435   0.120  0.00  0.00     0.159 HD
HETATM   25  H           1     -22.025  -8.097  -0.150  0.00  0.00     0.159 HD
ENDBRANCH  20  21
ENDBRANCH  19  20
BRANCH  19  26
HETATM   26  C           1     -19.795  -8.475  -4.383  0.00  0.00     0.197 C 
HETATM   27  O           1     -18.975  -9.010  -3.605  0.00  0.00    -0.646 OA
HETATM   28  O           1     -19.832  -8.818  -5.585  0.00  0.00    -0.646 OA
ENDBRANCH  19  26
ENDBRANCH   4  19
TORSDOF 9
ENDMDL
MODEL 3
REMARK VINA RESULT:      -7.4     13.139     15.886
REMARK  9 active torsions:
REMARK  status: ('A' for Active; 'I' for Inactive)
REMARK       I    between atoms: C_1  and  N_28 
REMARK    1  A    between atoms: C_1  and  C_4 
REMARK    2  A    between atoms: C_4  and  C_13 
REMARK    3  A    between atoms: C_4  and  N_24 
REMARK    4  A    between atoms: C_5  and  O_22 
REMARK    5  A    between atoms: C_6  and  C_11 
REMARK    6  A    between atoms: C_6  and  C_7 
REMARK    7  A    between atoms: C_6  and  N_28 
REMARK    8  A    between atoms: C_11  and  C_25 
REMARK    9  A    between atoms: C_13  and  C_20 
REMARK       I    between atoms: N_16  and  C_25 
ROOT
HETATM    1  C           1     -21.669  -4.643  -7.633  0.00  0.00     0.249 C 
HETATM    2  H           1     -22.375  -5.878  -9.136  0.00  0.00     0.163 HD
HETATM    3  O           1     -21.552  -3.497  -7.266  0.00  0.00    -0.271 OA
HETATM    4  N           1     -22.278  -4.919  -8.828  0.00  0.00    -0.344 N 
ENDROOT
BRANCH   1   5
HETATM    5  C           1     -21.143  -5.768  -6.776  0.00  0.00     0.278 C 
BRANCH   5   6
HETATM    6  C           1     -20.879  -5.253  -5.367  0.00  0.00     0.081 C 
BRANCH   6   7
HETATM    7  C           1     -21.153  -6.342  -4.377  0.00  0.00    -0.056 A 
HETATM    8  C           1     -21.327  -6.031  -3.029  0.00  0.00     0.010 A 
HETATM    9  C           1     -21.584  -7.047  -2.108  0.00  0.00     0.037 A 
HETATM   10  C           1     -21.667  -8.372  -2.534  0.00  0.00     0.065 A 
HETATM   11  C           1     -21.495  -8.681  -3.884  0.00  0.00     0.037 A 
HETATM   12  C           1     -21.238  -7.667  -4.805  0.00  0.00     0.010 A 
BRANCH  10  13
HETATM   13  O           1     -21.917  -9.358  -1.639  0.00  0.00    -0.361 OA
HETATM   14  H           1     -22.857  -9.594  -1.708  0.00  0.00     0.217 HD
ENDBRANCH  10  13
ENDBRANCH   6   7
ENDBRANCH   5   6
BRANCH   5  15
HETATM   15  N           1     -19.867  -6.290  -7.364  0.00  0.00    -0.066 N 
HETATM   16  H           1     -19.787  -7.314  -7.170  0.00  0.00     0.275 HD
HETATM   17  H           1     -19.868  -6.132  -8.397  0.00  0.00     0.275 HD
HETATM   18  H           1     -19.056  -5.789  -6.936  0.00  0.00     0.275 HD
ENDBRANCH   5  15
ENDBRANCH   1   5
BRANCH   4  19
HETATM   19  C           1     -22.782  -3.838  -9.652  0.00  0.00     0.194 C 
BRANCH  19  20
HETATM   20  C           1     -22.267  -4.001 -11.076  0.00  0.00     0.138 C 
BRANCH  20  21
HETATM   21  C           1     -20.768  -3.838 -11.090  0.00  0.00     0.217 C 
HETATM   22  O           1     -20.057  -4.763 -10.774  0.00  0.00    -0.274 OA
HETATM   23  N           1     -20.211  -2.643 -11.460  0.00  0.00    -0.370 N 
HETATM   24  H           1     -19.205  -2.535 -11.469  0.00  0.00     0.159 HD
HETATM   25  H           1     -20.806  -1.869 -11.724  0.00  0.00     0.159 HD
ENDBRANCH  20  21
ENDBRANCH  19  20
BRANCH  19  26
HETATM   26  C           1     -24.291  -3.873  -9.657  0.00  0.00     0.197 C 
HETATM   27  O           1     -24.890  -4.958  -9.823  0.00  0.00    -0.646 OA
HETATM   28  O           1     -24.941  -2.818  -9.495  0.00  0.00    -0.646 OA
ENDBRANCH  19  26
ENDBRANCH   4  19
TORSDOF 9
ENDMDL
MODEL 4
REMARK VINA RESULT:      -7.3      5.435      7.675
REMARK  9 active torsions:
REMARK  status: ('A' for Active; 'I' for Inactive)
REMARK       I    between atoms: C_1  and  N_28 
REMARK    1  A    between atoms: C_1  and  C_4 
REMARK    2  A    between atoms: C_4  and  C_13 
REMARK    3  A    between atoms: C_4  and  N_24 
REMARK    4  A    between atoms: C_5  and  O_22 
REMARK    5  A    between atoms: C_6  and  C_11 
REMARK    6  A    between atoms: C_6  and  C_7 
REMARK    7  A    between atoms: C_6  and  N_28 
REMARK    8  A    between atoms: C_11  and  C_25 
REMARK    9  A    between atoms: C_13  and  C_20 
REMARK       I    between atoms: N_16  and  C_25 
ROOT
HETATM    1  C           1     -33.821  -4.443 -15.471  0.00  0.00     0.249 C 
HETATM    2  H           1     -32.388  -3.719 -14.164  0.00  0.00     0.163 HD
HETATM    3  O           1     -34.973  -4.790 -15.584  0.00  0.00    -0.271 OA
HETATM    4  N           1     -33.353  -4.009 -14.259  0.00  0.00    -0.344 N 
ENDROOT
BRANCH   1   5
HETATM    5  C           1     -32.899  -4.488 -16.665  0.00  0.00     0.278 C 
BRANCH   5   6
HETATM    6  C           1     -31.452  -4.479 -16.190  0.00  0.00     0.081 C 
BRANCH   6   7
HETATM    7  C           1     -30.627  -5.349 -17.086  0.00  0.00    -0.056 A 
HETATM    8  C           1     -29.512  -4.821 -17.737  0.00  0.00     0.010 A 
HETATM    9  C           1     -28.744  -5.633 -18.571  0.00  0.00     0.037 A 
HETATM   10  C           1     -29.089  -6.972 -18.753  0.00  0.00     0.065 A 
HETATM   11  C           1     -30.203  -7.499 -18.100  0.00  0.00     0.037 A 
HETATM   12  C           1     -30.972  -6.688 -17.266  0.00  0.00     0.010 A 
BRANCH  10  13
HETATM   13  O           1     -28.341  -7.760 -19.564  0.00  0.00    -0.361 OA
HETATM   14  H           1     -28.595  -8.684 -19.401  0.00  0.00     0.217 HD
ENDBRANCH  10  13
ENDBRANCH   6   7
ENDBRANCH   5   6
BRANCH   5  15
HETATM   15  N           1     -33.147  -3.291 -17.533  0.00  0.00    -0.066 N 
HETATM   16  H           1     -33.895  -3.515 -18.229  0.00  0.00     0.275 HD
HETATM   17  H           1     -33.454  -2.487 -16.940  0.00  0.00     0.275 HD
HETATM   18  H           1     -32.267  -3.038 -18.036  0.00  0.00     0.275 HD
ENDBRANCH   5  15
ENDBRANCH   1   5
BRANCH   4  19
HETATM   19  C           1     -34.240  -3.966 -13.113  0.00  0.00     0.194 C 
BRANCH  19  20
HETATM   20  C           1     -33.513  -4.506 -11.888  0.00  0.00     0.138 C 
BRANCH  20  21
HETATM   21  C           1     -34.245  -5.714 -11.359  0.00  0.00     0.217 C 
HETATM   22  O           1     -34.212  -5.973 -10.180  0.00  0.00    -0.274 OA
HETATM   23  N           1     -34.947  -6.519 -12.217  0.00  0.00    -0.370 N 
HETATM   24  H           1     -35.438  -7.329 -11.861  0.00  0.00     0.159 HD
HETATM   25  H           1     -34.974  -6.303 -13.204  0.00  0.00     0.159 HD
ENDBRANCH  20  21
ENDBRANCH  19  20
BRANCH  19  26
HETATM   26  C           1     -34.662  -2.540 -12.858  0.00  0.00     0.197 C 
HETATM   27  O           1     -34.623  -2.075 -11.698  0.00  0.00    -0.646 OA
HETATM   28  O           1     -35.050  -1.824 -13.806  0.00  0.00    -0.646 OA
ENDBRANCH  19  26
ENDBRANCH   4  19
TORSDOF 9
ENDMDL
MODEL 5
REMARK VINA RESULT:      -7.2      2.366      3.846
REMARK  9 active torsions:
REMARK  status: ('A' for Active; 'I' for Inactive)
REMARK       I    between atoms: C_1  and  N_28 
REMARK    1  A    between atoms: C_1  and  C_4 
REMARK    2  A    between atoms: C_4  and  C_13 
REMARK    3  A    between atoms: C_4  and  N_24 
REMARK    4  A    between atoms: C_5  and  O_22 
REMARK    5  A    between atoms: C_6  and  C_11 
REMARK    6  A    between atoms: C_6  and  C_7 
REMARK    7  A    between atoms: C_6  and  N_28 
REMARK    8  A    between atoms: C_11  and  C_25 
REMARK    9  A    between atoms: C_13  and  C_20 
REMARK       I    between atoms: N_16  and  C_25 
ROOT
HETATM    1  C           1     -34.625  -2.603 -12.797  0.00  0.00     0.249 C 
HETATM    2  H           1     -35.299  -1.127 -11.512  0.00  0.00     0.163 HD
HETATM    3  O           1     -34.597  -2.979 -13.946  0.00  0.00    -0.271 OA
HETATM    4  N           1     -35.275  -1.442 -12.474  0.00  0.00    -0.344 N 
ENDROOT
BRANCH   1   5
HETATM    5  C           1     -33.945  -3.413 -11.721  0.00  0.00     0.278 C 
BRANCH   5   6
HETATM    6  C           1     -34.998  -4.088 -10.851  0.00  0.00     0.081 C 
BRANCH   6   7
HETATM    7  C           1     -34.578  -5.495 -10.561  0.00  0.00    -0.056 A 
HETATM    8  C           1     -35.399  -6.325  -9.798  0.00  0.00     0.010 A 
HETATM    9  C           1     -35.007  -7.636  -9.529  0.00  0.00     0.037 A 
HETATM   10  C           1     -33.795  -8.118 -10.023  0.00  0.00     0.065 A 
HETATM   11  C           1     -32.975  -7.288 -10.787  0.00  0.00     0.037 A 
HETATM   12  C           1     -33.366  -5.977 -11.057  0.00  0.00     0.010 A 
BRANCH  10  13
HETATM   13  O           1     -33.416  -9.393  -9.761  0.00  0.00    -0.361 OA
HETATM   14  H           1     -32.538  -9.531 -10.155  0.00  0.00     0.217 HD
ENDBRANCH  10  13
ENDBRANCH   6   7
ENDBRANCH   5   6
BRANCH   5  15
HETATM   15  N           1     -33.102  -2.509 -10.873  0.00  0.00    -0.066 N 
HETATM   16  H           1     -33.659  -2.182 -10.052  0.00  0.00     0.275 HD
HETATM   17  H           1     -32.260  -3.029 -10.538  0.00  0.00     0.275 HD
HETATM   18  H           1     -32.799  -1.684 -11.439  0.00  0.00     0.275 HD
ENDBRANCH   5  15
ENDBRANCH   1   5
BRANCH   4  19
HETATM   19  C           1     -35.928  -0.664 -13.508  0.00  0.00     0.194 C 
BRANCH  19  20
HETATM   20  C           1     -37.168   0.009 -12.932  0.00  0.00     0.138 C 
BRANCH  20  21
HETATM   21  C           1     -37.216  -0.217 -11.442  0.00  0.00     0.217 C 
HETATM   22  O           1     -37.823  -1.161 -10.993  0.00  0.00    -0.274 OA
HETATM   23  N           1     -36.574   0.648 -10.596  0.00  0.00    -0.370 N 
HETATM   24  H           1     -36.607   0.496  -9.597  0.00  0.00     0.159 HD
HETATM   25  H           1     -36.066   1.438 -10.972  0.00  0.00     0.159 HD
ENDBRANCH  20  21
ENDBRANCH  19  20
BRANCH  19  26
HETATM   26  C           1     -34.977   0.391 -14.019  0.00  0.00     0.197 C 
HETATM   27  O           1     -34.649   1.346 -13.282  0.00  0.00    -0.646 OA
HETATM   28  O           1     -34.518   0.310 -15.179  0.00  0.00    -0.646 OA
ENDBRANCH  19  26
ENDBRANCH   4  19
TORSDOF 9
ENDMDL
MODEL 6
REMARK VINA RESULT:      -6.8     13.681     17.551
REMARK  9 active torsions:
REMARK  status: ('A' for Active; 'I' for Inactive)
REMARK       I    between atoms: C_1  and  N_28 
REMARK    1  A    between atoms: C_1  and  C_4 
REMARK    2  A    between atoms: C_4  and  C_13 
REMARK    3  A    between atoms: C_4  and  N_24 
REMARK    4  A    between atoms: C_5  and  O_22 
REMARK    5  A    between atoms: C_6  and  C_11 
REMARK    6  A    between atoms: C_6  and  C_7 
REMARK    7  A    between atoms: C_6  and  N_28 
REMARK    8  A    between atoms: C_11  and  C_25 
REMARK    9  A    between atoms: C_13  and  C_20 
REMARK       I    between atoms: N_16  and  C_25 
ROOT
HETATM    1  C           1     -20.026  -5.157  -6.082  0.00  0.00     0.249 C 
HETATM    2  H           1     -20.281  -6.995  -7.001  0.00  0.00     0.163 HD
HETATM    3  O           1     -19.953  -4.582  -5.022  0.00  0.00    -0.271 OA
HETATM    4  N           1     -20.220  -6.513  -6.113  0.00  0.00    -0.344 N 
ENDROOT
BRANCH   1   5
HETATM    5  C           1     -19.903  -4.383  -7.371  0.00  0.00     0.278 C 
BRANCH   5   6
HETATM    6  C           1     -20.338  -5.262  -8.537  0.00  0.00     0.081 C 
BRANCH   6   7
HETATM    7  C           1     -21.586  -4.704  -9.145  0.00  0.00    -0.056 A 
HETATM    8  C           1     -22.675  -4.385  -8.334  0.00  0.00     0.010 A 
HETATM    9  C           1     -23.838  -3.864  -8.901  0.00  0.00     0.037 A 
HETATM   10  C           1     -23.912  -3.661 -10.279  0.00  0.00     0.065 A 
HETATM   11  C           1     -22.822  -3.978 -11.090  0.00  0.00     0.037 A 
HETATM   12  C           1     -21.659  -4.500 -10.523  0.00  0.00     0.010 A 
BRANCH  10  13
HETATM   13  O           1     -25.042  -3.154 -10.830  0.00  0.00    -0.361 OA
HETATM   14  H           1     -25.801  -3.520 -10.346  0.00  0.00     0.217 HD
ENDBRANCH  10  13
ENDBRANCH   6   7
ENDBRANCH   5   6
BRANCH   5  15
HETATM   15  N           1     -18.477  -3.963  -7.568  0.00  0.00    -0.066 N 
HETATM   16  H           1     -17.850  -4.790  -7.444  0.00  0.00     0.275 HD
HETATM   17  H           1     -18.356  -3.577  -8.532  0.00  0.00     0.275 HD
HETATM   18  H           1     -18.230  -3.230  -6.866  0.00  0.00     0.275 HD
ENDBRANCH   5  15
ENDBRANCH   1   5
BRANCH   4  19
HETATM   19  C           1     -20.338  -7.257  -4.874  0.00  0.00     0.194 C 
BRANCH  19  20
HETATM   20  C           1     -21.792  -7.259  -4.419  0.00  0.00     0.138 C 
BRANCH  20  21
HETATM   21  C           1     -21.859  -6.927  -2.949  0.00  0.00     0.217 C 
HETATM   22  O           1     -22.255  -5.843  -2.593  0.00  0.00    -0.274 OA
HETATM   23  N           1     -21.471  -7.854  -2.019  0.00  0.00    -0.370 N 
HETATM   24  H           1     -21.516  -7.630  -1.033  0.00  0.00     0.159 HD
HETATM   25  H           1     -21.139  -8.761  -2.318  0.00  0.00     0.159 HD
ENDBRANCH  20  21
ENDBRANCH  19  20
BRANCH  19  26
HETATM   26  C           1     -19.879  -8.677  -5.096  0.00  0.00     0.197 C 
HETATM   27  O           1     -20.479  -9.621  -4.537  0.00  0.00    -0.646 OA
HETATM   28  O           1     -18.899  -8.910  -5.837  0.00  0.00    -0.646 OA
ENDBRANCH  19  26
ENDBRANCH   4  19
TORSDOF 9
ENDMDL
MODEL 7
REMARK VINA RESULT:      -6.4     14.339     17.766
REMARK  9 active torsions:
REMARK  status: ('A' for Active; 'I' for Inactive)
REMARK       I    between atoms: C_1  and  N_28 
REMARK    1  A    between atoms: C_1  and  C_4 
REMARK    2  A    between atoms: C_4  and  C_13 
REMARK    3  A    between atoms: C_4  and  N_24 
REMARK    4  A    between atoms: C_5  and  O_22 
REMARK    5  A    between atoms: C_6  and  C_11 
REMARK    6  A    between atoms: C_6  and  C_7 
REMARK    7  A    between atoms: C_6  and  N_28 
REMARK    8  A    between atoms: C_11  and  C_25 
REMARK    9  A    between atoms: C_13  and  C_20 
REMARK       I    between atoms: N_16  and  C_25 
ROOT
HETATM    1  C           1     -21.896  -6.111  -5.439  0.00  0.00     0.249 C 
HETATM    2  H           1     -20.089  -6.909  -4.818  0.00  0.00     0.163 HD
HETATM    3  O           1     -23.087  -6.085  -5.240  0.00  0.00    -0.271 OA
HETATM    4  N           1     -21.087  -6.887  -4.652  0.00  0.00    -0.344 N 
ENDROOT
BRANCH   1   5
HETATM    5  C           1     -21.299  -5.289  -6.555  0.00  0.00     0.278 C 
BRANCH   5   6
HETATM    6  C           1     -22.368  -4.380  -7.146  0.00  0.00     0.081 C 
BRANCH   6   7
HETATM    7  C           1     -22.160  -4.258  -8.623  0.00  0.00    -0.056 A 
HETATM    8  C           1     -20.917  -3.867  -9.122  0.00  0.00     0.010 A 
HETATM    9  C           1     -20.724  -3.754 -10.499  0.00  0.00     0.037 A 
HETATM   10  C           1     -21.772  -4.032 -11.376  0.00  0.00     0.065 A 
HETATM   11  C           1     -23.013  -4.424 -10.877  0.00  0.00     0.037 A 
HETATM   12  C           1     -23.208  -4.537  -9.500  0.00  0.00     0.010 A 
BRANCH  10  13
HETATM   13  O           1     -21.582  -3.922 -12.714  0.00  0.00    -0.361 OA
HETATM   14  H           1     -22.448  -3.761 -13.126  0.00  0.00     0.217 HD
ENDBRANCH  10  13
ENDBRANCH   6   7
ENDBRANCH   5   6
BRANCH   5  15
HETATM   15  N           1     -20.774  -6.202  -7.622  0.00  0.00    -0.066 N 
HETATM   16  H           1     -20.205  -6.961  -7.183  0.00  0.00     0.275 HD
HETATM   17  H           1     -21.575  -6.626  -8.144  0.00  0.00     0.275 HD
HETATM   18  H           1     -20.177  -5.658  -8.284  0.00  0.00     0.275 HD
ENDBRANCH   5  15
ENDBRANCH   1   5
BRANCH   4  19
HETATM   19  C           1     -21.661  -7.677  -3.580  0.00  0.00     0.194 C 
BRANCH  19  20
HETATM   20  C           1     -20.938  -9.015  -3.490  0.00  0.00     0.138 C 
BRANCH  20  21
HETATM   21  C           1     -21.889 -10.068  -2.982  0.00  0.00     0.217 C 
HETATM   22  O           1     -22.610 -10.654  -3.754  0.00  0.00    -0.274 OA
HETATM   23  N           1     -21.938 -10.360  -1.645  0.00  0.00    -0.370 N 
HETATM   24  H           1     -22.577 -11.067  -1.305  0.00  0.00     0.159 HD
HETATM   25  H           1     -21.335  -9.869  -0.998  0.00  0.00     0.159 HD
ENDBRANCH  20  21
ENDBRANCH  19  20
BRANCH  19  26
HETATM   26  C           1     -21.510  -6.936  -2.274  0.00  0.00     0.197 C 
HETATM   27  O           1     -22.168  -5.892  -2.069  0.00  0.00    -0.646 OA
HETATM   28  O           1     -20.728  -7.364  -1.399  0.00  0.00    -0.646 OA
ENDBRANCH  19  26
ENDBRANCH   4  19
TORSDOF 9
ENDMDL
MODEL 8
REMARK VINA RESULT:      -6.4     15.124     19.101
REMARK  9 active torsions:
REMARK  status: ('A' for Active; 'I' for Inactive)
REMARK       I    between atoms: C_1  and  N_28 
REMARK    1  A    between atoms: C_1  and  C_4 
REMARK    2  A    between atoms: C_4  and  C_13 
REMARK    3  A    between atoms: C_4  and  N_24 
REMARK    4  A    between atoms: C_5  and  O_22 
REMARK    5  A    between atoms: C_6  and  C_11 
REMARK    6  A    between atoms: C_6  and  C_7 
REMARK    7  A    between atoms: C_6  and  N_28 
REMARK    8  A    between atoms: C_11  and  C_25 
REMARK    9  A    between atoms: C_13  and  C_20 
REMARK       I    between atoms: N_16  and  C_25 
ROOT
HETATM    1  C           1     -21.029  -7.735  -4.997  0.00  0.00     0.249 C 
HETATM    2  H           1     -20.235  -7.683  -3.087  0.00  0.00     0.163 HD
HETATM    3  O           1     -21.145  -8.394  -6.004  0.00  0.00    -0.271 OA
HETATM    4  N           1     -20.332  -8.234  -3.929  0.00  0.00    -0.344 N 
ENDROOT
BRANCH   1   5
HETATM    5  C           1     -21.652  -6.363  -4.917  0.00  0.00     0.278 C 
BRANCH   5   6
HETATM    6  C           1     -20.631  -5.315  -5.340  0.00  0.00     0.081 C 
BRANCH   6   7
HETATM    7  C           1     -20.916  -4.877  -6.743  0.00  0.00    -0.056 A 
HETATM    8  C           1     -22.219  -4.555  -7.121  0.00  0.00     0.010 A 
HETATM    9  C           1     -22.483  -4.146  -8.429  0.00  0.00     0.037 A 
HETATM   10  C           1     -21.446  -4.059  -9.357  0.00  0.00     0.065 A 
HETATM   11  C           1     -20.143  -4.381  -8.976  0.00  0.00     0.037 A 
HETATM   12  C           1     -19.878  -4.790  -7.670  0.00  0.00     0.010 A 
BRANCH  10  13
HETATM   13  O           1     -21.704  -3.662 -10.626  0.00  0.00    -0.361 OA
HETATM   14  H           1     -21.992  -2.735 -10.597  0.00  0.00     0.217 HD
ENDBRANCH  10  13
ENDBRANCH   6   7
ENDBRANCH   5   6
BRANCH   5  15
HETATM   15  N           1     -22.090  -6.095  -3.509  0.00  0.00    -0.066 N 
HETATM   16  H           1     -22.326  -5.082  -3.404  0.00  0.00     0.275 HD
HETATM   17  H           1     -22.933  -6.672  -3.289  0.00  0.00     0.275 HD
HETATM   18  H           1     -21.317  -6.343  -2.851  0.00  0.00     0.275 HD
ENDBRANCH   5  15
ENDBRANCH   1   5
BRANCH   4  19
HETATM   19  C           1     -19.733  -9.553  -4.007  0.00  0.00     0.194 C 
BRANCH  19  20
HETATM   20  C           1     -18.228  -9.417  -4.203  0.00  0.00     0.138 C 
BRANCH  20  21
HETATM   21  C           1     -17.859  -9.876  -5.591  0.00  0.00     0.217 C 
HETATM   22  O           1     -16.729  -9.732  -5.994  0.00  0.00    -0.274 OA
HETATM   23  N           1     -18.803 -10.456  -6.395  0.00  0.00    -0.370 N 
HETATM   24  H           1     -18.554 -10.763  -7.326  0.00  0.00     0.159 HD
HETATM   25  H           1     -19.749 -10.576  -6.058  0.00  0.00     0.159 HD
ENDBRANCH  20  21
ENDBRANCH  19  20
BRANCH  19  26
HETATM   26  C           1     -20.006 -10.304  -2.727  0.00  0.00     0.197 C 
HETATM   27  O           1     -20.789  -9.826  -1.877  0.00  0.00    -0.646 OA
HETATM   28  O           1     -19.450 -11.403  -2.516  0.00  0.00    -0.646 OA
ENDBRANCH  19  26
ENDBRANCH   4  19
TORSDOF 9
ENDMDL
MODEL 9
REMARK VINA RESULT:      -6.1     19.464     23.057
REMARK  9 active torsions:
REMARK  status: ('A' for Active; 'I' for Inactive)
REMARK       I    between atoms: C_1  and  N_28 
REMARK    1  A    between atoms: C_1  and  C_4 
REMARK    2  A    between atoms: C_4  and  C_13 
REMARK    3  A    between atoms: C_4  and  N_24 
REMARK    4  A    between atoms: C_5  and  O_22 
REMARK    5  A    between atoms: C_6  and  C_11 
REMARK    6  A    between atoms: C_6  and  C_7 
REMARK    7  A    between atoms: C_6  and  N_28 
REMARK    8  A    between atoms: C_11  and  C_25 
REMARK    9  A    between atoms: C_13  and  C_20 
REMARK       I    between atoms: N_16  and  C_25 
ROOT
HETATM    1  C           1     -19.705 -12.294  -0.223  0.00  0.00     0.249 C 
HETATM    2  H           1     -18.565 -10.568  -0.176  0.00  0.00     0.163 HD
HETATM    3  O           1     -19.684 -13.491  -0.390  0.00  0.00    -0.271 OA
HETATM    4  N           1     -18.547 -11.570  -0.316  0.00  0.00    -0.344 N 
ENDROOT
BRANCH   1   5
HETATM    5  C           1     -21.008 -11.599   0.087  0.00  0.00     0.278 C 
BRANCH   5   6
HETATM    6  C           1     -20.730 -10.327   0.878  0.00  0.00     0.081 C 
BRANCH   6   7
HETATM    7  C           1     -21.225  -9.142   0.108  0.00  0.00    -0.056 A 
HETATM    8  C           1     -22.254  -8.356   0.625  0.00  0.00     0.010 A 
HETATM    9  C           1     -22.714  -7.251  -0.093  0.00  0.00     0.037 A 
HETATM   10  C           1     -22.144  -6.934  -1.326  0.00  0.00     0.065 A 
HETATM   11  C           1     -21.114  -7.720  -1.841  0.00  0.00     0.037 A 
HETATM   12  C           1     -20.654  -8.825  -1.124  0.00  0.00     0.010 A 
BRANCH  10  13
HETATM   13  O           1     -22.591  -5.860  -2.022  0.00  0.00    -0.361 OA
HETATM   14  H           1     -23.442  -5.588  -1.639  0.00  0.00     0.217 HD
ENDBRANCH  10  13
ENDBRANCH   6   7
ENDBRANCH   5   6
BRANCH   5  15
HETATM   15  N           1     -21.880 -12.510   0.897  0.00  0.00    -0.066 N 
HETATM   16  H           1     -21.303 -13.289   1.288  0.00  0.00     0.275 HD
HETATM   17  H           1     -22.315 -11.973   1.681  0.00  0.00     0.275 HD
HETATM   18  H           1     -22.632 -12.906   0.288  0.00  0.00     0.275 HD
ENDBRANCH   5  15
ENDBRANCH   1   5
BRANCH   4  19
HETATM   19  C           1     -17.295 -12.238  -0.614  0.00  0.00     0.194 C 
BRANCH  19  20
HETATM   20  C           1     -16.484 -11.389  -1.584  0.00  0.00     0.138 C 
BRANCH  20  21
HETATM   21  C           1     -17.403 -10.788  -2.617  0.00  0.00     0.217 C 
HETATM   22  O           1     -18.150 -11.499  -3.248  0.00  0.00    -0.274 OA
HETATM   23  N           1     -17.391  -9.438  -2.843  0.00  0.00    -0.370 N 
HETATM   24  H           1     -18.008  -9.036  -3.537  0.00  0.00     0.159 HD
HETATM   25  H           1     -16.766  -8.843  -2.316  0.00  0.00     0.159 HD
ENDBRANCH  20  21
ENDBRANCH  19  20
BRANCH  19  26
HETATM   26  C           1     -16.513 -12.430   0.662  0.00  0.00     0.197 C 
HETATM   27  O           1     -16.780 -13.387   1.421  0.00  0.00    -0.646 OA
HETATM   28  O           1     -15.598 -11.632   0.960  0.00  0.00    -0.646 OA
ENDBRANCH  19  26
ENDBRANCH   4  19
TORSDOF 9
ENDMDL
