MODEL 1
REMARK VINA RESULT:      -5.9      0.000      0.000
REMARK  5 active torsions:
REMARK  status: ('A' for Active; 'I' for Inactive)
REMARK    1  A    between atoms: C_1  and  C_7 
REMARK    2  A    between atoms: C_4  and  O_5 
REMARK    3  A    between atoms: C_4  and  C_7 
REMARK    4  A    between atoms: C_7  and  N_13 
REMARK       I    between atoms: N_13  and  C_15 
REMARK    5  A    between atoms: C_15  and  C_19 
ROOT
HETATM    1  H           1     -20.257  -5.075  -5.261  0.00  0.00     0.255 HD
HETATM    2  H           1     -19.305  -7.046  -5.241  0.00  0.00     0.274 HD
HETATM    3  H           1     -18.955  -4.843  -6.340  0.00  0.00     0.275 HD
HETATM    4  H           1     -20.634  -8.013  -5.701  0.00  0.00     0.254 HD
HETATM    5  H           1     -19.197  -6.365  -5.610  0.00  0.00     0.275 HD
HETATM    6  C           1     -22.447  -6.271  -5.574  0.00  0.00     0.004 C 
HETATM    7  C           1     -21.596  -6.924  -6.657  0.00  0.00     0.062 C 
HETATM    8  C           1     -20.551  -5.932  -7.148  0.00  0.00     0.274 C 
HETATM    9  C           1     -21.556  -5.856  -4.411  0.00  0.00     0.047 C 
HETATM   10  N           1     -19.674  -5.522  -6.003  0.00  0.00    -0.067 N 
HETATM   11  N           1     -20.022  -7.727  -4.904  0.00  0.00    -0.080 N 
HETATM   12  C           1     -20.861  -7.084  -3.839  0.00  0.00     0.229 C 
HETATM   13  H           1     -19.546  -8.570  -4.511  0.00  0.00     0.274 HD
ENDROOT
BRANCH   8  14
HETATM   14  C           1     -21.239  -4.714  -7.715  0.00  0.00     0.249 C 
HETATM   15  N           1     -21.888  -4.792  -8.917  0.00  0.00    -0.343 N 
HETATM   16  H           1     -21.907  -5.668  -9.426  0.00  0.00     0.163 HD
HETATM   17  O           1     -21.215  -3.670  -7.109  0.00  0.00    -0.271 OA
BRANCH  15  18
HETATM   18  C           1     -22.548  -3.622  -9.462  0.00  0.00     0.214 C 
BRANCH  18  19
HETATM   19  C           1     -24.030  -3.886  -9.571  0.00  0.00     0.199 C 
HETATM   20  O           1     -24.839  -2.934  -9.542  0.00  0.00    -0.646 OA
HETATM   21  O           1     -24.449  -5.059  -9.691  0.00  0.00    -0.646 OA
ENDBRANCH  18  19
BRANCH  18  22
HETATM   22  C           1     -21.983  -3.318 -10.844  0.00  0.00     0.147 C 
HETATM   23  C           1     -20.557  -3.846 -10.935  0.00  0.00     0.042 C 
BRANCH  22  24
HETATM   24  O           1     -22.775  -3.940 -11.820  0.00  0.00    -0.393 OA
HETATM   25  H           1     -23.610  -4.117 -11.422  0.00  0.00     0.210 HD
ENDBRANCH  22  24
ENDBRANCH  18  22
ENDBRANCH  15  18
ENDBRANCH   8  14
TORSDOF 5
ENDMDL
MODEL 2
REMARK VINA RESULT:      -5.8      1.735      2.549
REMARK  5 active torsions:
REMARK  status: ('A' for Active; 'I' for Inactive)
REMARK    1  A    between atoms: C_1  and  C_7 
REMARK    2  A    between atoms: C_4  and  O_5 
REMARK    3  A    between atoms: C_4  and  C_7 
REMARK    4  A    between atoms: C_7  and  N_13 
REMARK       I    between atoms: N_13  and  C_15 
REMARK    5  A    between atoms: C_15  and  C_19 
ROOT
HETATM    1  H           1     -22.513  -6.238  -6.326  0.00  0.00     0.255 HD
HETATM    2  H           1     -22.278  -5.264  -4.380  0.00  0.00     0.274 HD
HETATM    3  H           1     -23.319  -4.755  -6.580  0.00  0.00     0.275 HD
HETATM    4  H           1     -20.577  -5.299  -4.243  0.00  0.00     0.254 HD
HETATM    5  H           1     -22.590  -5.083  -5.073  0.00  0.00     0.275 HD
HETATM    6  C           1     -20.056  -6.766  -6.221  0.00  0.00     0.004 C 
HETATM    7  C           1     -20.052  -5.275  -5.902  0.00  0.00     0.062 C 
HETATM    8  C           1     -21.231  -4.604  -6.593  0.00  0.00     0.274 C 
HETATM    9  C           1     -21.356  -7.387  -5.727  0.00  0.00     0.047 C 
HETATM   10  N           1     -22.511  -5.217  -6.107  0.00  0.00    -0.067 N 
HETATM   11  N           1     -21.469  -5.724  -3.905  0.00  0.00    -0.080 N 
HETATM   12  C           1     -21.472  -7.191  -4.221  0.00  0.00     0.229 C 
HETATM   13  H           1     -21.549  -5.590  -2.872  0.00  0.00     0.274 HD
ENDROOT
BRANCH   8  14
HETATM   14  C           1     -21.117  -4.798  -8.086  0.00  0.00     0.249 C 
HETATM   15  N           1     -22.171  -4.481  -8.899  0.00  0.00    -0.343 N 
HETATM   16  H           1     -23.026  -4.116  -8.500  0.00  0.00     0.163 HD
HETATM   17  O           1     -20.096  -5.234  -8.562  0.00  0.00    -0.271 OA
BRANCH  15  18
HETATM   18  C           1     -22.061  -4.668 -10.333  0.00  0.00     0.214 C 
BRANCH  18  19
HETATM   19  C           1     -21.540  -3.401 -10.966  0.00  0.00     0.199 C 
HETATM   20  O           1     -20.324  -3.290 -11.234  0.00  0.00    -0.646 OA
HETATM   21  O           1     -22.325  -2.462 -11.224  0.00  0.00    -0.646 OA
ENDBRANCH  18  19
BRANCH  18  22
HETATM   22  C           1     -23.434  -4.997 -10.908  0.00  0.00     0.147 C 
HETATM   23  C           1     -24.496  -4.185 -10.178  0.00  0.00     0.042 C 
BRANCH  22  24
HETATM   24  O           1     -23.457  -4.678 -12.272  0.00  0.00    -0.393 OA
HETATM   25  H           1     -22.871  -3.950 -12.393  0.00  0.00     0.210 HD
ENDBRANCH  22  24
ENDBRANCH  18  22
ENDBRANCH  15  18
ENDBRANCH   8  14
TORSDOF 5
ENDMDL
MODEL 3
REMARK VINA RESULT:      -5.3      4.893      7.019
REMARK  5 active torsions:
REMARK  status: ('A' for Active; 'I' for Inactive)
REMARK    1  A    between atoms: C_1  and  C_7 
REMARK    2  A    between atoms: C_4  and  O_5 
REMARK    3  A    between atoms: C_4  and  C_7 
REMARK    4  A    between atoms: C_7  and  N_13 
REMARK       I    between atoms: N_13  and  C_15 
REMARK    5  A    between atoms: C_15  and  C_19 
ROOT
HETATM    1  H           1     -20.190  -8.978  -0.893  0.00  0.00     0.255 HD
HETATM    2  H           1     -19.785 -10.732   0.351  0.00  0.00     0.274 HD
HETATM    3  H           1     -19.247  -9.938  -1.943  0.00  0.00     0.275 HD
HETATM    4  H           1     -21.384 -11.196   0.727  0.00  0.00     0.254 HD
HETATM    5  H           1     -19.627 -10.504  -0.379  0.00  0.00     0.275 HD
HETATM    6  C           1     -22.598  -9.195  -0.200  0.00  0.00     0.004 C 
HETATM    7  C           1     -22.288 -10.620  -0.643  0.00  0.00     0.062 C 
HETATM    8  C           1     -21.224 -10.594  -1.731  0.00  0.00     0.274 C 
HETATM    9  C           1     -21.332  -8.546   0.343  0.00  0.00     0.047 C 
HETATM   10  N           1     -19.978  -9.954  -1.196  0.00  0.00    -0.067 N 
HETATM   11  N           1     -20.515 -10.750   1.099  0.00  0.00    -0.080 N 
HETATM   12  C           1     -20.821  -9.348   1.533  0.00  0.00     0.229 C 
HETATM   13  H           1     -20.165 -11.300   1.916  0.00  0.00     0.274 HD
ENDROOT
BRANCH   8  14
HETATM   14  C           1     -21.729  -9.799  -2.912  0.00  0.00     0.249 C 
HETATM   15  N           1     -21.222  -8.554  -3.166  0.00  0.00    -0.343 N 
HETATM   16  H           1     -20.508  -8.166  -2.562  0.00  0.00     0.163 HD
HETATM   17  O           1     -22.581 -10.263  -3.631  0.00  0.00    -0.271 OA
BRANCH  15  18
HETATM   18  C           1     -21.707  -7.791  -4.299  0.00  0.00     0.214 C 
BRANCH  18  19
HETATM   19  C           1     -20.679  -7.821  -5.402  0.00  0.00     0.199 C 
HETATM   20  O           1     -19.523  -8.233  -5.168  0.00  0.00    -0.646 OA
HETATM   21  O           1     -20.983  -7.432  -6.551  0.00  0.00    -0.646 OA
ENDBRANCH  18  19
BRANCH  18  22
HETATM   22  C           1     -21.953  -6.349  -3.871  0.00  0.00     0.147 C 
HETATM   23  C           1     -21.930  -6.261  -2.351  0.00  0.00     0.042 C 
BRANCH  22  24
HETATM   24  O           1     -20.950  -5.527  -4.403  0.00  0.00    -0.393 OA
HETATM   25  H           1     -21.289  -4.648  -4.405  0.00  0.00     0.210 HD
ENDBRANCH  22  24
ENDBRANCH  18  22
ENDBRANCH  15  18
ENDBRANCH   8  14
TORSDOF 5
ENDMDL
MODEL 4
REMARK VINA RESULT:      -5.2      2.857      5.878
REMARK  5 active torsions:
REMARK  status: ('A' for Active; 'I' for Inactive)
REMARK    1  A    between atoms: C_1  and  C_7 
REMARK    2  A    between atoms: C_4  and  O_5 
REMARK    3  A    between atoms: C_4  and  C_7 
REMARK    4  A    between atoms: C_7  and  N_13 
REMARK       I    between atoms: N_13  and  C_15 
REMARK    5  A    between atoms: C_15  and  C_19 
ROOT
HETATM    1  H           1     -21.184  -5.912  -8.656  0.00  0.00     0.255 HD
HETATM    2  H           1     -20.285  -4.710 -10.250  0.00  0.00     0.274 HD
HETATM    3  H           1     -19.605  -6.556  -8.729  0.00  0.00     0.275 HD
HETATM    4  H           1     -20.540  -3.148  -9.614  0.00  0.00     0.254 HD
HETATM    5  H           1     -20.052  -5.275  -9.763  0.00  0.00     0.275 HD
HETATM    6  C           1     -22.025  -3.755  -7.673  0.00  0.00     0.004 C 
HETATM    7  C           1     -20.554  -3.424  -7.896  0.00  0.00     0.062 C 
HETATM    8  C           1     -19.724  -4.695  -7.778  0.00  0.00     0.274 C 
HETATM    9  C           1     -22.483  -4.760  -8.722  0.00  0.00     0.047 C 
HETATM   10  N           1     -20.176  -5.685  -8.810  0.00  0.00    -0.067 N 
HETATM   11  N           1     -20.854  -3.838 -10.332  0.00  0.00    -0.080 N 
HETATM   12  C           1     -22.302  -4.163 -10.111  0.00  0.00     0.229 C 
HETATM   13  H           1     -20.731  -3.429 -11.286  0.00  0.00     0.274 HD
ENDROOT
BRANCH   8  14
HETATM   14  C           1     -19.902  -5.287  -6.401  0.00  0.00     0.249 C 
HETATM   15  N           1     -20.303  -6.588  -6.263  0.00  0.00    -0.343 N 
HETATM   16  H           1     -20.479  -7.154  -7.084  0.00  0.00     0.163 HD
HETATM   17  O           1     -19.693  -4.612  -5.421  0.00  0.00    -0.271 OA
BRANCH  15  18
HETATM   18  C           1     -20.475  -7.157  -4.940  0.00  0.00     0.214 C 
BRANCH  18  19
HETATM   19  C           1     -20.145  -8.629  -4.979  0.00  0.00     0.199 C 
HETATM   20  O           1     -19.197  -9.075  -4.298  0.00  0.00    -0.646 OA
HETATM   21  O           1     -20.820  -9.403  -5.693  0.00  0.00    -0.646 OA
ENDBRANCH  18  19
BRANCH  18  22
HETATM   22  C           1     -21.921  -6.972  -4.493  0.00  0.00     0.147 C 
HETATM   23  C           1     -21.946  -6.476  -3.054  0.00  0.00     0.042 C 
BRANCH  22  24
HETATM   24  O           1     -22.549  -6.034  -5.323  0.00  0.00    -0.393 OA
HETATM   25  H           1     -22.283  -6.227  -6.206  0.00  0.00     0.210 HD
ENDBRANCH  22  24
ENDBRANCH  18  22
ENDBRANCH  15  18
ENDBRANCH   8  14
TORSDOF 5
ENDMDL
MODEL 5
REMARK VINA RESULT:      -5.2      3.287      6.562
REMARK  5 active torsions:
REMARK  status: ('A' for Active; 'I' for Inactive)
REMARK    1  A    between atoms: C_1  and  C_7 
REMARK    2  A    between atoms: C_4  and  O_5 
REMARK    3  A    between atoms: C_4  and  C_7 
REMARK    4  A    between atoms: C_7  and  N_13 
REMARK       I    between atoms: N_13  and  C_15 
REMARK    5  A    between atoms: C_15  and  C_19 
ROOT
HETATM    1  H           1     -20.844  -6.322  -8.116  0.00  0.00     0.255 HD
HETATM    2  H           1     -19.296  -4.844  -8.574  0.00  0.00     0.274 HD
HETATM    3  H           1     -19.418  -7.198  -7.785  0.00  0.00     0.275 HD
HETATM    4  H           1     -19.784  -3.582  -7.533  0.00  0.00     0.254 HD
HETATM    5  H           1     -19.321  -5.577  -8.304  0.00  0.00     0.275 HD
HETATM    6  C           1     -22.000  -4.521  -6.795  0.00  0.00     0.004 C 
HETATM    7  C           1     -20.583  -4.430  -6.241  0.00  0.00     0.062 C 
HETATM    8  C           1     -19.922  -5.799  -6.311  0.00  0.00     0.274 C 
HETATM    9  C           1     -21.949  -4.987  -8.244  0.00  0.00     0.047 C 
HETATM   10  N           1     -19.873  -6.259  -7.737  0.00  0.00    -0.067 N 
HETATM   11  N           1     -19.749  -3.903  -8.526  0.00  0.00    -0.080 N 
HETATM   12  C           1     -21.144  -3.993  -9.070  0.00  0.00     0.229 C 
HETATM   13  H           1     -19.197  -3.221  -9.094  0.00  0.00     0.274 HD
ENDROOT
BRANCH   8  14
HETATM   14  C           1     -20.719  -6.786  -5.492  0.00  0.00     0.249 C 
HETATM   15  N           1     -20.752  -6.675  -4.128  0.00  0.00    -0.343 N 
HETATM   16  H           1     -20.241  -5.931  -3.669  0.00  0.00     0.163 HD
HETATM   17  O           1     -21.328  -7.674  -6.040  0.00  0.00    -0.271 OA
BRANCH  15  18
HETATM   18  C           1     -21.517  -7.623  -3.342  0.00  0.00     0.214 C 
BRANCH  18  19
HETATM   19  C           1     -22.007  -6.951  -2.083  0.00  0.00     0.199 C 
HETATM   20  O           1     -22.224  -7.629  -1.056  0.00  0.00    -0.646 OA
HETATM   21  O           1     -22.198  -5.715  -2.067  0.00  0.00    -0.646 OA
ENDBRANCH  18  19
BRANCH  18  22
HETATM   22  C           1     -20.632  -8.808  -2.974  0.00  0.00     0.147 C 
HETATM   23  C           1     -21.328 -10.103  -3.373  0.00  0.00     0.042 C 
BRANCH  22  24
HETATM   24  O           1     -19.410  -8.705  -3.652  0.00  0.00    -0.393 OA
HETATM   25  H           1     -19.521  -8.050  -4.319  0.00  0.00     0.210 HD
ENDBRANCH  22  24
ENDBRANCH  18  22
ENDBRANCH  15  18
ENDBRANCH   8  14
TORSDOF 5
ENDMDL
MODEL 6
REMARK VINA RESULT:      -5.0      5.588      8.082
REMARK  5 active torsions:
REMARK  status: ('A' for Active; 'I' for Inactive)
REMARK    1  A    between atoms: C_1  and  C_7 
REMARK    2  A    between atoms: C_4  and  O_5 
REMARK    3  A    between atoms: C_4  and  C_7 
REMARK    4  A    between atoms: C_7  and  N_13 
REMARK       I    between atoms: N_13  and  C_15 
REMARK    5  A    between atoms: C_15  and  C_19 
ROOT
HETATM    1  H           1     -21.469 -12.461  -0.620  0.00  0.00     0.255 HD
HETATM    2  H           1     -22.854 -13.912  -1.498  0.00  0.00     0.274 HD
HETATM    3  H           1     -20.713 -12.806  -2.111  0.00  0.00     0.275 HD
HETATM    4  H           1     -24.293 -12.995  -1.462  0.00  0.00     0.254 HD
HETATM    5  H           1     -22.192 -13.555  -1.711  0.00  0.00     0.275 HD
HETATM    6  C           1     -23.479 -11.044  -0.096  0.00  0.00     0.004 C 
HETATM    7  C           1     -23.715 -11.358  -1.569  0.00  0.00     0.062 C 
HETATM    8  C           1     -22.376 -11.545  -2.270  0.00  0.00     0.274 C 
HETATM    9  C           1     -22.723 -12.195   0.553  0.00  0.00     0.047 C 
HETATM   10  N           1     -21.631 -12.677  -1.629  0.00  0.00    -0.067 N 
HETATM   11  N           1     -23.773 -13.784  -1.017  0.00  0.00    -0.080 N 
HETATM   12  C           1     -23.541 -13.473   0.432  0.00  0.00     0.229 C 
HETATM   13  H           1     -24.334 -14.662  -1.100  0.00  0.00     0.274 HD
ENDROOT
BRANCH   8  14
HETATM   14  C           1     -21.564 -10.277  -2.150  0.00  0.00     0.249 C 
HETATM   15  N           1     -21.999  -9.127  -2.750  0.00  0.00    -0.343 N 
HETATM   16  H           1     -22.865  -9.126  -3.274  0.00  0.00     0.163 HD
HETATM   17  O           1     -20.530 -10.280  -1.525  0.00  0.00    -0.271 OA
BRANCH  15  18
HETATM   18  C           1     -21.218  -7.910  -2.636  0.00  0.00     0.214 C 
BRANCH  18  19
HETATM   19  C           1     -21.984  -6.897  -1.821  0.00  0.00     0.199 C 
HETATM   20  O           1     -22.381  -5.838  -2.353  0.00  0.00    -0.646 OA
HETATM   21  O           1     -22.221  -7.117  -0.613  0.00  0.00    -0.646 OA
ENDBRANCH  18  19
BRANCH  18  22
HETATM   22  C           1     -20.951  -7.347  -4.027  0.00  0.00     0.147 C 
HETATM   23  C           1     -19.892  -8.193  -4.721  0.00  0.00     0.042 C 
BRANCH  22  24
HETATM   24  O           1     -22.135  -7.371  -4.776  0.00  0.00    -0.393 OA
HETATM   25  H           1     -21.889  -7.276  -5.680  0.00  0.00     0.210 HD
ENDBRANCH  22  24
ENDBRANCH  18  22
ENDBRANCH  15  18
ENDBRANCH   8  14
TORSDOF 5
ENDMDL
MODEL 7
REMARK VINA RESULT:      -5.0      4.309      7.412
REMARK  5 active torsions:
REMARK  status: ('A' for Active; 'I' for Inactive)
REMARK    1  A    between atoms: C_1  and  C_7 
REMARK    2  A    between atoms: C_4  and  O_5 
REMARK    3  A    between atoms: C_4  and  C_7 
REMARK    4  A    between atoms: C_7  and  N_13 
REMARK       I    between atoms: N_13  and  C_15 
REMARK    5  A    between atoms: C_15  and  C_19 
ROOT
HETATM    1  H           1     -21.745  -5.252  -4.849  0.00  0.00     0.255 HD
HETATM    2  H           1     -22.874  -5.081  -6.717  0.00  0.00     0.274 HD
HETATM    3  H           1     -23.101  -6.238  -4.528  0.00  0.00     0.275 HD
HETATM    4  H           1     -21.682  -5.601  -7.823  0.00  0.00     0.254 HD
HETATM    5  H           1     -22.946  -5.467  -6.042  0.00  0.00     0.275 HD
HETATM    6  C           1     -19.709  -5.682  -6.262  0.00  0.00     0.004 C 
HETATM    7  C           1     -20.701  -6.670  -6.865  0.00  0.00     0.062 C 
HETATM    8  C           1     -21.684  -7.120  -5.793  0.00  0.00     0.274 C 
HETATM    9  C           1     -20.462  -4.472  -5.724  0.00  0.00     0.047 C 
HETATM   10  N           1     -22.425  -5.929  -5.263  0.00  0.00    -0.067 N 
HETATM   11  N           1     -22.199  -4.772  -7.453  0.00  0.00    -0.080 N 
HETATM   12  C           1     -21.222  -3.800  -6.859  0.00  0.00     0.229 C 
HETATM   13  H           1     -22.720  -4.310  -8.232  0.00  0.00     0.274 HD
ENDROOT
BRANCH   8  14
HETATM   14  C           1     -20.932  -7.787  -4.666  0.00  0.00     0.249 C 
HETATM   15  N           1     -21.457  -7.793  -3.403  0.00  0.00    -0.343 N 
HETATM   16  H           1     -22.350  -7.350  -3.223  0.00  0.00     0.163 HD
HETATM   17  O           1     -19.867  -8.314  -4.880  0.00  0.00    -0.271 OA
BRANCH  15  18
HETATM   18  C           1     -20.735  -8.432  -2.321  0.00  0.00     0.214 C 
BRANCH  18  19
HETATM   19  C           1     -21.102  -9.895  -2.267  0.00  0.00     0.199 C 
HETATM   20  O           1     -22.276 -10.254  -2.502  0.00  0.00    -0.646 OA
HETATM   21  O           1     -20.232 -10.748  -1.986  0.00  0.00    -0.646 OA
ENDBRANCH  18  19
BRANCH  18  22
HETATM   22  C           1     -21.105  -7.766  -1.001  0.00  0.00     0.147 C 
HETATM   23  C           1     -22.249  -6.788  -1.230  0.00  0.00     0.042 C 
BRANCH  22  24
HETATM   24  O           1     -21.503  -8.745  -0.080  0.00  0.00    -0.393 OA
HETATM   25  H           1     -21.250  -8.436   0.774  0.00  0.00     0.210 HD
ENDBRANCH  22  24
ENDBRANCH  18  22
ENDBRANCH  15  18
ENDBRANCH   8  14
TORSDOF 5
ENDMDL
MODEL 8
REMARK VINA RESULT:      -5.0      5.084      8.457
REMARK  5 active torsions:
REMARK  status: ('A' for Active; 'I' for Inactive)
REMARK    1  A    between atoms: C_1  and  C_7 
REMARK    2  A    between atoms: C_4  and  O_5 
REMARK    3  A    between atoms: C_4  and  C_7 
REMARK    4  A    between atoms: C_7  and  N_13 
REMARK       I    between atoms: N_13  and  C_15 
REMARK    5  A    between atoms: C_15  and  C_19 
ROOT
HETATM    1  H           1     -22.106  -8.329  -5.664  0.00  0.00     0.255 HD
HETATM    2  H           1     -20.262  -7.717  -6.672  0.00  0.00     0.274 HD
HETATM    3  H           1     -21.379  -9.835  -6.003  0.00  0.00     0.275 HD
HETATM    4  H           1     -19.600  -6.701  -5.471  0.00  0.00     0.254 HD
HETATM    5  H           1     -20.592  -8.389  -6.448  0.00  0.00     0.275 HD
HETATM    6  C           1     -21.568  -6.614  -3.905  0.00  0.00     0.004 C 
HETATM    7  C           1     -20.245  -7.365  -3.999  0.00  0.00     0.062 C 
HETATM    8  C           1     -20.510  -8.811  -4.398  0.00  0.00     0.274 C 
HETATM    9  C           1     -22.268  -6.648  -5.257  0.00  0.00     0.047 C 
HETATM   10  N           1     -21.200  -8.843  -5.729  0.00  0.00    -0.067 N 
HETATM   11  N           1     -20.080  -6.725  -6.399  0.00  0.00    -0.080 N 
HETATM   12  C           1     -21.382  -5.986  -6.304  0.00  0.00     0.229 C 
HETATM   13  H           1     -19.473  -6.271  -7.117  0.00  0.00     0.274 HD
ENDROOT
BRANCH   8  14
HETATM   14  C           1     -21.388  -9.468  -3.360  0.00  0.00     0.249 C 
HETATM   15  N           1     -21.068  -9.372  -2.034  0.00  0.00    -0.343 N 
HETATM   16  H           1     -20.242  -8.860  -1.748  0.00  0.00     0.163 HD
HETATM   17  O           1     -22.372 -10.079  -3.702  0.00  0.00    -0.271 OA
BRANCH  15  18
HETATM   18  C           1     -21.911 -10.003  -1.037  0.00  0.00     0.214 C 
BRANCH  18  19
HETATM   19  C           1     -22.700  -8.946  -0.304  0.00  0.00     0.199 C 
HETATM   20  O           1     -22.338  -7.751  -0.351  0.00  0.00    -0.646 OA
HETATM   21  O           1     -23.716  -9.266   0.351  0.00  0.00    -0.646 OA
ENDBRANCH  18  19
BRANCH  18  22
HETATM   22  C           1     -21.040 -10.766  -0.046  0.00  0.00     0.147 C 
HETATM   23  C           1     -19.703 -11.097  -0.697  0.00  0.00     0.042 C 
BRANCH  22  24
HETATM   24  O           1     -20.825  -9.976   1.091  0.00  0.00    -0.393 OA
HETATM   25  H           1     -21.336 -10.353   1.787  0.00  0.00     0.210 HD
ENDBRANCH  22  24
ENDBRANCH  18  22
ENDBRANCH  15  18
ENDBRANCH   8  14
TORSDOF 5
ENDMDL
MODEL 9
REMARK VINA RESULT:      -4.8     13.004     15.019
REMARK  5 active torsions:
REMARK  status: ('A' for Active; 'I' for Inactive)
REMARK    1  A    between atoms: C_1  and  C_7 
REMARK    2  A    between atoms: C_4  and  O_5 
REMARK    3  A    between atoms: C_4  and  C_7 
REMARK    4  A    between atoms: C_7  and  N_13 
REMARK       I    between atoms: N_13  and  C_15 
REMARK    5  A    between atoms: C_15  and  C_19 
ROOT
HETATM    1  H           1     -35.510   0.256  -9.278  0.00  0.00     0.255 HD
HETATM    2  H           1     -37.224  -0.123  -7.971  0.00  0.00     0.274 HD
HETATM    3  H           1     -34.889  -0.938  -8.227  0.00  0.00     0.275 HD
HETATM    4  H           1     -38.393  -0.542  -9.142  0.00  0.00     0.254 HD
HETATM    5  H           1     -36.499  -0.403  -8.055  0.00  0.00     0.275 HD
HETATM    6  C           1     -37.100   0.059 -11.216  0.00  0.00     0.004 C 
HETATM    7  C           1     -37.433  -1.205 -10.432  0.00  0.00     0.062 C 
HETATM    8  C           1     -36.194  -1.681  -9.686  0.00  0.00     0.274 C 
HETATM    9  C           1     -36.637   1.146 -10.255  0.00  0.00     0.047 C 
HETATM   10  N           1     -35.738  -0.610  -8.740  0.00  0.00    -0.067 N 
HETATM   11  N           1     -38.075   0.203  -8.482  0.00  0.00    -0.080 N 
HETATM   12  C           1     -37.747   1.446  -9.255  0.00  0.00     0.229 C 
HETATM   13  H           1     -38.836   0.410  -7.797  0.00  0.00     0.274 HD
ENDROOT
BRANCH   8  14
HETATM   14  C           1     -35.093  -1.979 -10.676  0.00  0.00     0.249 C 
HETATM   15  N           1     -35.277  -2.937 -11.635  0.00  0.00    -0.343 N 
HETATM   16  H           1     -36.151  -3.446 -11.681  0.00  0.00     0.163 HD
HETATM   17  O           1     -34.051  -1.372 -10.620  0.00  0.00    -0.271 OA
BRANCH  15  18
HETATM   18  C           1     -34.220  -3.224 -12.585  0.00  0.00     0.214 C 
BRANCH  18  19
HETATM   19  C           1     -34.648  -2.780 -13.962  0.00  0.00     0.199 C 
HETATM   20  O           1     -35.182  -1.661 -14.121  0.00  0.00    -0.646 OA
HETATM   21  O           1     -34.470  -3.533 -14.945  0.00  0.00    -0.646 OA
ENDBRANCH  18  19
BRANCH  18  22
HETATM   22  C           1     -33.942  -4.722 -12.597  0.00  0.00     0.147 C 
HETATM   23  C           1     -33.448  -5.157 -11.223  0.00  0.00     0.042 C 
BRANCH  22  24
HETATM   24  O           1     -35.120  -5.413 -12.911  0.00  0.00    -0.393 OA
HETATM   25  H           1     -35.089  -5.602 -13.833  0.00  0.00     0.210 HD
ENDBRANCH  22  24
ENDBRANCH  18  22
ENDBRANCH  15  18
ENDBRANCH   8  14
TORSDOF 5
ENDMDL
