MODEL 1
REMARK VINA RESULT:      -7.1      0.000      0.000
REMARK  16 active torsions:
REMARK  status: ('A' for Active; 'I' for Inactive)
REMARK       I    between atoms: C_1  and  N_23 
REMARK    1  A    between atoms: C_1  and  C_21 
REMARK    2  A    between atoms: C_3  and  C_4 
REMARK    3  A    between atoms: C_4  and  C_5 
REMARK    4  A    between atoms: C_4  and  N_33 
REMARK    5  A    between atoms: C_5  and  C_6 
REMARK    6  A    between atoms: C_6  and  C_8 
REMARK    7  A    between atoms: C_13  and  C_30 
REMARK       I    between atoms: N_14  and  C_16 
REMARK       I    between atoms: N_15  and  C_16 
REMARK    8  A    between atoms: N_17  and  C_18 
REMARK    9  A    between atoms: C_18  and  C_19 
REMARK   10  A    between atoms: C_19  and  C_20 
REMARK   11  A    between atoms: C_20  and  C_21 
REMARK   12  A    between atoms: C_21  and  N_36 
REMARK   13  A    between atoms: N_23  and  C_30 
REMARK   14  A    between atoms: C_30  and  C_31 
REMARK   15  A    between atoms: C_31  and  C_32 
REMARK   16  A    between atoms: C_32  and  N_33 
ROOT
HETATM    1  C           1     -34.282  -3.041 -16.170  0.00  0.00     0.249 C 
HETATM    2  H           1     -34.494  -1.312 -17.290  0.00  0.00     0.163 HD
HETATM    3  N           1     -34.753  -1.782 -16.431  0.00  0.00    -0.345 N 
HETATM    4  O           1     -34.590  -3.601 -15.146  0.00  0.00    -0.271 OA
ENDROOT
BRANCH   1   5
HETATM    5  C           1     -33.375  -3.727 -17.163  0.00  0.00     0.274 C 
BRANCH   5   6
HETATM    6  C           1     -32.816  -5.001 -16.543  0.00  0.00     0.044 C 
BRANCH   6   7
HETATM    7  C           1     -31.296  -4.988 -16.640  0.00  0.00     0.023 C 
BRANCH   7   8
HETATM    8  C           1     -30.814  -6.300 -17.246  0.00  0.00     0.138 C 
BRANCH   8   9
HETATM    9  N           1     -29.511  -6.091 -17.896  0.00  0.00    -0.227 N 
HETATM   10  C           1     -28.940  -7.051 -18.490  0.00  0.00     0.665 C 
HETATM   11  N           1     -29.504  -8.222 -18.527  0.00  0.00    -0.235 N 
HETATM   12  N           1     -27.818  -6.872 -19.049  0.00  0.00    -0.235 N 
HETATM   13  H           1     -29.032  -9.014 -19.018  0.00  0.00     0.174 HD
HETATM   14  H           1     -30.430  -8.370 -18.065  0.00  0.00     0.174 HD
HETATM   15  H           1     -27.344  -7.668 -19.543  0.00  0.00     0.174 HD
HETATM   16  H           1     -27.363  -5.926 -19.020  0.00  0.00     0.174 HD
HETATM   17  H           1     -29.055  -5.146 -17.866  0.00  0.00     0.177 HD
ENDBRANCH   8   9
ENDBRANCH   7   8
ENDBRANCH   6   7
ENDBRANCH   5   6
BRANCH   5  18
HETATM   18  N           1     -32.244  -2.810 -17.524  0.00  0.00    -0.067 N 
HETATM   19  H           1     -31.749  -2.508 -16.654  0.00  0.00     0.275 HD
HETATM   20  H           1     -32.622  -1.970 -18.018  0.00  0.00     0.275 HD
HETATM   21  H           1     -31.575  -3.310 -18.150  0.00  0.00     0.275 HD
ENDBRANCH   5  18
ENDBRANCH   1   5
BRANCH   3  22
HETATM   22  C           1     -35.624  -1.122 -15.478  0.00  0.00     0.187 C 
BRANCH  22  23
HETATM   23  C           1     -36.638  -0.285 -16.221  0.00  0.00     0.196 C 
HETATM   24  O           1     -36.526   0.959 -16.240  0.00  0.00    -0.646 OA
HETATM   25  O           1     -37.588  -0.837 -16.816  0.00  0.00    -0.646 OA
ENDBRANCH  22  23
BRANCH  22  26
HETATM   26  C           1     -34.794  -0.226 -14.568  0.00  0.00     0.066 C 
BRANCH  26  27
HETATM   27  C           1     -35.413  -0.201 -13.177  0.00  0.00     0.273 C 
BRANCH  27  28
HETATM   28  N           1     -34.406  -0.506 -12.197  0.00  0.00     0.098 N 
HETATM   29  H           1     -34.452   0.174 -11.439  0.00  0.00     0.317 HD
BRANCH  28  30
HETATM   30  C           1     -34.683  -1.819 -11.680  0.00  0.00     0.320 C 
BRANCH  30  31
HETATM   31  C           1     -35.780  -1.731 -10.647  0.00  0.00     0.207 C 
HETATM   32  O           1     -35.766  -0.813  -9.799  0.00  0.00    -0.646 OA
HETATM   33  O           1     -36.701  -2.576 -10.640  0.00  0.00    -0.646 OA
ENDBRANCH  30  31
BRANCH  30  34
HETATM   34  C           1     -33.424  -2.387 -11.038  0.00  0.00     0.057 C 
BRANCH  34  35
HETATM   35  C           1     -33.022  -3.669 -11.754  0.00  0.00     0.116 C 
BRANCH  35  36
HETATM   36  C           1     -33.987  -4.772 -11.394  0.00  0.00     0.172 C 
HETATM   37  O           1     -34.731  -5.263 -12.271  0.00  0.00    -0.648 OA
HETATM   38  O           1     -34.043  -5.194 -10.219  0.00  0.00    -0.648 OA
ENDBRANCH  35  36
ENDBRANCH  34  35
ENDBRANCH  30  34
ENDBRANCH  28  30
ENDBRANCH  27  28
ENDBRANCH  26  27
ENDBRANCH  22  26
ENDBRANCH   3  22
TORSDOF 16
ENDMDL
MODEL 2
REMARK VINA RESULT:      -6.8      4.407      7.813
REMARK  16 active torsions:
REMARK  status: ('A' for Active; 'I' for Inactive)
REMARK       I    between atoms: C_1  and  N_23 
REMARK    1  A    between atoms: C_1  and  C_21 
REMARK    2  A    between atoms: C_3  and  C_4 
REMARK    3  A    between atoms: C_4  and  C_5 
REMARK    4  A    between atoms: C_4  and  N_33 
REMARK    5  A    between atoms: C_5  and  C_6 
REMARK    6  A    between atoms: C_6  and  C_8 
REMARK    7  A    between atoms: C_13  and  C_30 
REMARK       I    between atoms: N_14  and  C_16 
REMARK       I    between atoms: N_15  and  C_16 
REMARK    8  A    between atoms: N_17  and  C_18 
REMARK    9  A    between atoms: C_18  and  C_19 
REMARK   10  A    between atoms: C_19  and  C_20 
REMARK   11  A    between atoms: C_20  and  C_21 
REMARK   12  A    between atoms: C_21  and  N_36 
REMARK   13  A    between atoms: N_23  and  C_30 
REMARK   14  A    between atoms: C_30  and  C_31 
REMARK   15  A    between atoms: C_31  and  C_32 
REMARK   16  A    between atoms: C_32  and  N_33 
ROOT
HETATM    1  C           1     -34.197  -3.061 -13.532  0.00  0.00     0.249 C 
HETATM    2  H           1     -33.024  -4.732 -13.879  0.00  0.00     0.163 HD
HETATM    3  N           1     -33.747  -4.132 -14.258  0.00  0.00    -0.345 N 
HETATM    4  O           1     -35.057  -2.345 -13.983  0.00  0.00    -0.271 OA
ENDROOT
BRANCH   1   5
HETATM    5  C           1     -33.617  -2.777 -12.168  0.00  0.00     0.274 C 
BRANCH   5   6
HETATM    6  C           1     -33.020  -4.055 -11.594  0.00  0.00     0.044 C 
BRANCH   6   7
HETATM    7  C           1     -33.950  -4.616 -10.527  0.00  0.00     0.023 C 
BRANCH   7   8
HETATM    8  C           1     -34.722  -5.799 -11.097  0.00  0.00     0.138 C 
BRANCH   8   9
HETATM    9  N           1     -33.877  -7.002 -11.057  0.00  0.00    -0.227 N 
HETATM   10  C           1     -34.153  -7.943 -10.258  0.00  0.00     0.665 C 
HETATM   11  N           1     -35.184  -7.848  -9.472  0.00  0.00    -0.235 N 
HETATM   12  N           1     -33.426  -8.979 -10.224  0.00  0.00    -0.235 N 
HETATM   13  H           1     -35.412  -8.625  -8.812  0.00  0.00     0.174 HD
HETATM   14  H           1     -35.785  -6.993  -9.500  0.00  0.00     0.174 HD
HETATM   15  H           1     -33.655  -9.760  -9.561  0.00  0.00     0.174 HD
HETATM   16  H           1     -32.593  -9.057 -10.859  0.00  0.00     0.174 HD
HETATM   17  H           1     -33.044  -7.079 -11.692  0.00  0.00     0.177 HD
ENDBRANCH   8   9
ENDBRANCH   7   8
ENDBRANCH   6   7
ENDBRANCH   5   6
BRANCH   5  18
HETATM   18  N           1     -34.701  -2.280 -11.258  0.00  0.00    -0.067 N 
HETATM   19  H           1     -35.337  -3.072 -11.009  0.00  0.00     0.275 HD
HETATM   20  H           1     -35.247  -1.534 -11.743  0.00  0.00     0.275 HD
HETATM   21  H           1     -34.274  -1.890 -10.388  0.00  0.00     0.275 HD
ENDBRANCH   5  18
ENDBRANCH   1   5
BRANCH   3  22
HETATM   22  C           1     -34.303  -4.405 -15.568  0.00  0.00     0.187 C 
BRANCH  22  23
HETATM   23  C           1     -34.872  -5.803 -15.590  0.00  0.00     0.196 C 
HETATM   24  O           1     -34.576  -6.584 -16.519  0.00  0.00    -0.646 OA
HETATM   25  O           1     -35.639  -6.180 -14.678  0.00  0.00    -0.646 OA
ENDBRANCH  22  23
BRANCH  22  26
HETATM   26  C           1     -33.207  -4.286 -16.620  0.00  0.00     0.066 C 
BRANCH  26  27
HETATM   27  C           1     -31.906  -4.846 -16.062  0.00  0.00     0.273 C 
BRANCH  27  28
HETATM   28  N           1     -31.503  -5.989 -16.838  0.00  0.00     0.098 N 
HETATM   29  H           1     -32.022  -6.005 -17.715  0.00  0.00     0.317 HD
BRANCH  28  30
HETATM   30  C           1     -30.098  -5.855 -17.114  0.00  0.00     0.320 C 
BRANCH  30  31
HETATM   31  C           1     -29.661  -6.963 -18.041  0.00  0.00     0.207 C 
HETATM   32  O           1     -30.263  -8.059 -18.032  0.00  0.00    -0.646 OA
HETATM   33  O           1     -28.697  -6.785 -18.817  0.00  0.00    -0.646 OA
ENDBRANCH  30  31
BRANCH  30  34
HETATM   34  C           1     -29.315  -5.943 -15.811  0.00  0.00     0.057 C 
BRANCH  34  35
HETATM   35  C           1     -27.972  -5.244 -15.977  0.00  0.00     0.116 C 
BRANCH  35  36
HETATM   36  C           1     -26.858  -6.246 -15.801  0.00  0.00     0.172 C 
HETATM   37  O           1     -27.113  -7.402 -15.399  0.00  0.00    -0.648 OA
HETATM   38  O           1     -25.678  -5.920 -16.056  0.00  0.00    -0.648 OA
ENDBRANCH  35  36
ENDBRANCH  34  35
ENDBRANCH  30  34
ENDBRANCH  28  30
ENDBRANCH  27  28
ENDBRANCH  26  27
ENDBRANCH  22  26
ENDBRANCH   3  22
TORSDOF 16
ENDMDL
MODEL 3
REMARK VINA RESULT:      -6.7      2.455      4.473
REMARK  16 active torsions:
REMARK  status: ('A' for Active; 'I' for Inactive)
REMARK       I    between atoms: C_1  and  N_23 
REMARK    1  A    between atoms: C_1  and  C_21 
REMARK    2  A    between atoms: C_3  and  C_4 
REMARK    3  A    between atoms: C_4  and  C_5 
REMARK    4  A    between atoms: C_4  and  N_33 
REMARK    5  A    between atoms: C_5  and  C_6 
REMARK    6  A    between atoms: C_6  and  C_8 
REMARK    7  A    between atoms: C_13  and  C_30 
REMARK       I    between atoms: N_14  and  C_16 
REMARK       I    between atoms: N_15  and  C_16 
REMARK    8  A    between atoms: N_17  and  C_18 
REMARK    9  A    between atoms: C_18  and  C_19 
REMARK   10  A    between atoms: C_19  and  C_20 
REMARK   11  A    between atoms: C_20  and  C_21 
REMARK   12  A    between atoms: C_21  and  N_36 
REMARK   13  A    between atoms: N_23  and  C_30 
REMARK   14  A    between atoms: C_30  and  C_31 
REMARK   15  A    between atoms: C_31  and  C_32 
REMARK   16  A    between atoms: C_32  and  N_33 
ROOT
HETATM    1  C           1     -30.959  -6.324 -17.031  0.00  0.00     0.249 C 
HETATM    2  H           1     -31.021  -4.715 -15.728  0.00  0.00     0.163 HD
HETATM    3  N           1     -31.517  -5.212 -16.458  0.00  0.00    -0.345 N 
HETATM    4  O           1     -31.550  -6.917 -17.900  0.00  0.00    -0.271 OA
ENDROOT
BRANCH   1   5
HETATM    5  C           1     -29.604  -6.808 -16.575  0.00  0.00     0.274 C 
BRANCH   5   6
HETATM    6  C           1     -28.539  -5.802 -16.991  0.00  0.00     0.044 C 
BRANCH   6   7
HETATM    7  C           1     -28.076  -6.110 -18.409  0.00  0.00     0.023 C 
BRANCH   7   8
HETATM    8  C           1     -26.568  -6.328 -18.415  0.00  0.00     0.138 C 
BRANCH   8   9
HETATM    9  N           1     -26.095  -6.522 -17.036  0.00  0.00    -0.227 N 
HETATM   10  C           1     -24.965  -7.052 -16.824  0.00  0.00     0.665 C 
HETATM   11  N           1     -24.223  -7.425 -17.825  0.00  0.00    -0.235 N 
HETATM   12  N           1     -24.557  -7.220 -15.637  0.00  0.00    -0.235 N 
HETATM   13  H           1     -23.290  -7.862 -17.649  0.00  0.00     0.174 HD
HETATM   14  H           1     -24.559  -7.286 -18.804  0.00  0.00     0.174 HD
HETATM   15  H           1     -23.620  -7.659 -15.460  0.00  0.00     0.174 HD
HETATM   16  H           1     -25.156  -6.919 -14.829  0.00  0.00     0.174 HD
HETATM   17  H           1     -26.694  -6.222 -16.228  0.00  0.00     0.177 HD
ENDBRANCH   8   9
ENDBRANCH   7   8
ENDBRANCH   6   7
ENDBRANCH   5   6
BRANCH   5  18
HETATM   18  N           1     -29.310  -8.136 -17.205  0.00  0.00    -0.067 N 
HETATM   19  H           1     -29.884  -8.877 -16.742  0.00  0.00     0.275 HD
HETATM   20  H           1     -28.295  -8.359 -17.089  0.00  0.00     0.275 HD
HETATM   21  H           1     -29.543  -8.099 -18.222  0.00  0.00     0.275 HD
ENDBRANCH   5  18
ENDBRANCH   1   5
BRANCH   3  22
HETATM   22  C           1     -32.819  -4.747 -16.895  0.00  0.00     0.187 C 
BRANCH  22  23
HETATM   23  C           1     -32.687  -3.359 -17.473  0.00  0.00     0.196 C 
HETATM   24  O           1     -31.602  -2.990 -17.970  0.00  0.00    -0.646 OA
HETATM   25  O           1     -33.664  -2.579 -17.454  0.00  0.00    -0.646 OA
ENDBRANCH  22  23
BRANCH  22  26
HETATM   26  C           1     -33.771  -4.715 -15.707  0.00  0.00     0.066 C 
BRANCH  26  27
HETATM   27  C           1     -32.994  -4.376 -14.442  0.00  0.00     0.273 C 
BRANCH  27  28
HETATM   28  N           1     -33.899  -3.880 -13.440  0.00  0.00     0.098 N 
HETATM   29  H           1     -34.823  -4.287 -13.585  0.00  0.00     0.317 HD
BRANCH  28  30
HETATM   30  C           1     -33.393  -4.285 -12.156  0.00  0.00     0.320 C 
BRANCH  30  31
HETATM   31  C           1     -34.306  -5.329 -11.562  0.00  0.00     0.207 C 
HETATM   32  O           1     -35.182  -5.869 -12.272  0.00  0.00    -0.646 OA
HETATM   33  O           1     -34.187  -5.654 -10.361  0.00  0.00    -0.646 OA
ENDBRANCH  30  31
BRANCH  30  34
HETATM   34  C           1     -33.334  -3.076 -11.232  0.00  0.00     0.057 C 
BRANCH  34  35
HETATM   35  C           1     -34.315  -2.017 -11.717  0.00  0.00     0.116 C 
BRANCH  35  36
HETATM   36  C           1     -35.452  -1.894 -10.734  0.00  0.00     0.172 C 
HETATM   37  O           1     -36.432  -2.668 -10.811  0.00  0.00    -0.648 OA
HETATM   38  O           1     -35.416  -1.019  -9.842  0.00  0.00    -0.648 OA
ENDBRANCH  35  36
ENDBRANCH  34  35
ENDBRANCH  30  34
ENDBRANCH  28  30
ENDBRANCH  27  28
ENDBRANCH  26  27
ENDBRANCH  22  26
ENDBRANCH   3  22
TORSDOF 16
ENDMDL
MODEL 4
REMARK VINA RESULT:      -6.7      4.140      7.653
REMARK  16 active torsions:
REMARK  status: ('A' for Active; 'I' for Inactive)
REMARK       I    between atoms: C_1  and  N_23 
REMARK    1  A    between atoms: C_1  and  C_21 
REMARK    2  A    between atoms: C_3  and  C_4 
REMARK    3  A    between atoms: C_4  and  C_5 
REMARK    4  A    between atoms: C_4  and  N_33 
REMARK    5  A    between atoms: C_5  and  C_6 
REMARK    6  A    between atoms: C_6  and  C_8 
REMARK    7  A    between atoms: C_13  and  C_30 
REMARK       I    between atoms: N_14  and  C_16 
REMARK       I    between atoms: N_15  and  C_16 
REMARK    8  A    between atoms: N_17  and  C_18 
REMARK    9  A    between atoms: C_18  and  C_19 
REMARK   10  A    between atoms: C_19  and  C_20 
REMARK   11  A    between atoms: C_20  and  C_21 
REMARK   12  A    between atoms: C_21  and  N_36 
REMARK   13  A    between atoms: N_23  and  C_30 
REMARK   14  A    between atoms: C_30  and  C_31 
REMARK   15  A    between atoms: C_31  and  C_32 
REMARK   16  A    between atoms: C_32  and  N_33 
ROOT
HETATM    1  C           1     -33.950  -3.587 -13.290  0.00  0.00     0.249 C 
HETATM    2  H           1     -32.670  -4.882 -14.275  0.00  0.00     0.163 HD
HETATM    3  N           1     -33.525  -4.344 -14.348  0.00  0.00    -0.345 N 
HETATM    4  O           1     -34.969  -2.945 -13.377  0.00  0.00    -0.271 OA
ENDROOT
BRANCH   1   5
HETATM    5  C           1     -33.144  -3.553 -12.014  0.00  0.00     0.274 C 
BRANCH   5   6
HETATM    6  C           1     -33.066  -4.955 -11.425  0.00  0.00     0.044 C 
BRANCH   6   7
HETATM    7  C           1     -34.073  -5.086 -10.290  0.00  0.00     0.023 C 
BRANCH   7   8
HETATM    8  C           1     -35.059  -6.201 -10.612  0.00  0.00     0.138 C 
BRANCH   8   9
HETATM    9  N           1     -34.322  -7.429 -10.945  0.00  0.00    -0.227 N 
HETATM   10  C           1     -34.078  -8.285 -10.045  0.00  0.00     0.665 C 
HETATM   11  N           1     -34.481  -8.079  -8.826  0.00  0.00    -0.235 N 
HETATM   12  N           1     -33.443  -9.342 -10.332  0.00  0.00    -0.235 N 
HETATM   13  H           1     -34.280  -8.786  -8.083  0.00  0.00     0.174 HD
HETATM   14  H           1     -35.005  -7.207  -8.590  0.00  0.00     0.174 HD
HETATM   15  H           1     -33.241 -10.052  -9.585  0.00  0.00     0.174 HD
HETATM   16  H           1     -33.118  -9.509 -11.317  0.00  0.00     0.174 HD
HETATM   17  H           1     -33.997  -7.595 -11.930  0.00  0.00     0.177 HD
ENDBRANCH   8   9
ENDBRANCH   7   8
ENDBRANCH   6   7
ENDBRANCH   5   6
BRANCH   5  18
HETATM   18  N           1     -33.805  -2.635 -11.029  0.00  0.00    -0.067 N 
HETATM   19  H           1     -33.607  -2.966 -10.058  0.00  0.00     0.275 HD
HETATM   20  H           1     -34.837  -2.633 -11.193  0.00  0.00     0.275 HD
HETATM   21  H           1     -33.432  -1.667 -11.150  0.00  0.00     0.275 HD
ENDBRANCH   5  18
ENDBRANCH   1   5
BRANCH   3  22
HETATM   22  C           1     -34.298  -4.377 -15.574  0.00  0.00     0.187 C 
BRANCH  22  23
HETATM   23  C           1     -34.868  -5.760 -15.771  0.00  0.00     0.196 C 
HETATM   24  O           1     -34.368  -6.527 -16.621  0.00  0.00    -0.646 OA
HETATM   25  O           1     -35.840  -6.139 -15.083  0.00  0.00    -0.646 OA
ENDBRANCH  22  23
BRANCH  22  26
HETATM   26  C           1     -33.398  -4.025 -16.751  0.00  0.00     0.066 C 
BRANCH  26  27
HETATM   27  C           1     -31.968  -4.447 -16.441  0.00  0.00     0.273 C 
BRANCH  27  28
HETATM   28  N           1     -31.070  -3.825 -17.376  0.00  0.00     0.098 N 
HETATM   29  H           1     -30.999  -2.830 -17.170  0.00  0.00     0.317 HD
BRANCH  28  30
HETATM   30  C           1     -29.780  -4.441 -17.216  0.00  0.00     0.320 C 
BRANCH  30  31
HETATM   31  C           1     -28.732  -3.370 -17.032  0.00  0.00     0.207 C 
HETATM   32  O           1     -28.995  -2.182 -17.320  0.00  0.00    -0.646 OA
HETATM   33  O           1     -27.601  -3.671 -16.592  0.00  0.00    -0.646 OA
ENDBRANCH  30  31
BRANCH  30  34
HETATM   34  C           1     -29.454  -5.262 -18.457  0.00  0.00     0.057 C 
BRANCH  34  35
HETATM   35  C           1     -29.053  -6.672 -18.042  0.00  0.00     0.116 C 
BRANCH  35  36
HETATM   36  C           1     -30.154  -7.637 -18.405  0.00  0.00     0.172 C 
HETATM   37  O           1     -31.313  -7.457 -17.970  0.00  0.00    -0.648 OA
HETATM   38  O           1     -29.908  -8.617 -19.141  0.00  0.00    -0.648 OA
ENDBRANCH  35  36
ENDBRANCH  34  35
ENDBRANCH  30  34
ENDBRANCH  28  30
ENDBRANCH  27  28
ENDBRANCH  26  27
ENDBRANCH  22  26
ENDBRANCH   3  22
TORSDOF 16
ENDMDL
MODEL 5
REMARK VINA RESULT:      -6.7     15.249     17.799
REMARK  16 active torsions:
REMARK  status: ('A' for Active; 'I' for Inactive)
REMARK       I    between atoms: C_1  and  N_23 
REMARK    1  A    between atoms: C_1  and  C_21 
REMARK    2  A    between atoms: C_3  and  C_4 
REMARK    3  A    between atoms: C_4  and  C_5 
REMARK    4  A    between atoms: C_4  and  N_33 
REMARK    5  A    between atoms: C_5  and  C_6 
REMARK    6  A    between atoms: C_6  and  C_8 
REMARK    7  A    between atoms: C_13  and  C_30 
REMARK       I    between atoms: N_14  and  C_16 
REMARK       I    between atoms: N_15  and  C_16 
REMARK    8  A    between atoms: N_17  and  C_18 
REMARK    9  A    between atoms: C_18  and  C_19 
REMARK   10  A    between atoms: C_19  and  C_20 
REMARK   11  A    between atoms: C_20  and  C_21 
REMARK   12  A    between atoms: C_21  and  N_36 
REMARK   13  A    between atoms: N_23  and  C_30 
REMARK   14  A    between atoms: C_30  and  C_31 
REMARK   15  A    between atoms: C_31  and  C_32 
REMARK   16  A    between atoms: C_32  and  N_33 
ROOT
HETATM    1  C           1     -20.578  -7.457  -5.334  0.00  0.00     0.249 C 
HETATM    2  H           1     -21.650  -8.340  -3.798  0.00  0.00     0.163 HD
HETATM    3  N           1     -20.899  -8.466  -4.466  0.00  0.00    -0.345 N 
HETATM    4  O           1     -19.683  -7.606  -6.130  0.00  0.00    -0.271 OA
ENDROOT
BRANCH   1   5
HETATM    5  C           1     -21.345  -6.157  -5.296  0.00  0.00     0.274 C 
BRANCH   5   6
HETATM    6  C           1     -20.382  -4.994  -5.496  0.00  0.00     0.044 C 
BRANCH   6   7
HETATM    7  C           1     -20.851  -4.143  -6.669  0.00  0.00     0.023 C 
BRANCH   7   8
HETATM    8  C           1     -21.892  -4.913  -7.472  0.00  0.00     0.138 C 
BRANCH   8   9
HETATM    9  N           1     -23.053  -4.049  -7.727  0.00  0.00    -0.227 N 
HETATM   10  C           1     -23.577  -4.015  -8.879  0.00  0.00     0.665 C 
HETATM   11  N           1     -23.087  -4.745  -9.837  0.00  0.00    -0.235 N 
HETATM   12  N           1     -24.576  -3.270  -9.099  0.00  0.00    -0.235 N 
HETATM   13  H           1     -23.519  -4.717 -10.788  0.00  0.00     0.174 HD
HETATM   14  H           1     -22.262  -5.360  -9.655  0.00  0.00     0.174 HD
HETATM   15  H           1     -25.011  -3.242 -10.055  0.00  0.00     0.174 HD
HETATM   16  H           1     -24.972  -2.681  -8.325  0.00  0.00     0.174 HD
HETATM   17  H           1     -23.448  -3.459  -6.953  0.00  0.00     0.177 HD
ENDBRANCH   8   9
ENDBRANCH   7   8
ENDBRANCH   6   7
ENDBRANCH   5   6
BRANCH   5  18
HETATM   18  N           1     -22.026  -6.017  -3.967  0.00  0.00    -0.067 N 
HETATM   19  H           1     -22.560  -6.891  -3.756  0.00  0.00     0.275 HD
HETATM   20  H           1     -22.683  -5.206  -3.997  0.00  0.00     0.275 HD
HETATM   21  H           1     -21.311  -5.858  -3.223  0.00  0.00     0.275 HD
ENDBRANCH   5  18
ENDBRANCH   1   5
BRANCH   3  22
HETATM   22  C           1     -20.163  -9.715  -4.501  0.00  0.00     0.187 C 
BRANCH  22  23
HETATM   23  C           1     -20.978 -10.756  -5.229  0.00  0.00     0.196 C 
HETATM   24  O           1     -21.925 -11.327  -4.648  0.00  0.00    -0.646 OA
HETATM   25  O           1     -20.705 -11.047  -6.413  0.00  0.00    -0.646 OA
ENDBRANCH  22  23
BRANCH  22  26
HETATM   26  C           1     -19.891 -10.184  -3.078  0.00  0.00     0.066 C 
BRANCH  26  27
HETATM   27  C           1     -20.359  -9.120  -2.094  0.00  0.00     0.273 C 
BRANCH  27  28
HETATM   28  N           1     -21.097  -9.742  -1.028  0.00  0.00     0.098 N 
HETATM   29  H           1     -20.625  -9.568  -0.141  0.00  0.00     0.317 HD
BRANCH  28  30
HETATM   30  C           1     -22.406  -9.147  -1.000  0.00  0.00     0.320 C 
BRANCH  30  31
HETATM   31  C           1     -22.323  -7.779  -0.368  0.00  0.00     0.207 C 
HETATM   32  O           1     -21.916  -7.658   0.808  0.00  0.00    -0.646 OA
HETATM   33  O           1     -22.660  -6.767  -1.020  0.00  0.00    -0.646 OA
ENDBRANCH  30  31
BRANCH  30  34
HETATM   34  C           1     -23.344 -10.027  -0.184  0.00  0.00     0.057 C 
BRANCH  34  35
HETATM   35  C           1     -23.187 -11.478  -0.620  0.00  0.00     0.116 C 
BRANCH  35  36
HETATM   36  C           1     -22.654 -12.295   0.531  0.00  0.00     0.172 C 
HETATM   37  O           1     -21.465 -12.160   0.897  0.00  0.00    -0.648 OA
HETATM   38  O           1     -23.400 -13.108   1.119  0.00  0.00    -0.648 OA
ENDBRANCH  35  36
ENDBRANCH  34  35
ENDBRANCH  30  34
ENDBRANCH  28  30
ENDBRANCH  27  28
ENDBRANCH  26  27
ENDBRANCH  22  26
ENDBRANCH   3  22
TORSDOF 16
ENDMDL
MODEL 6
REMARK VINA RESULT:      -6.6     15.045     17.720
REMARK  16 active torsions:
REMARK  status: ('A' for Active; 'I' for Inactive)
REMARK       I    between atoms: C_1  and  N_23 
REMARK    1  A    between atoms: C_1  and  C_21 
REMARK    2  A    between atoms: C_3  and  C_4 
REMARK    3  A    between atoms: C_4  and  C_5 
REMARK    4  A    between atoms: C_4  and  N_33 
REMARK    5  A    between atoms: C_5  and  C_6 
REMARK    6  A    between atoms: C_6  and  C_8 
REMARK    7  A    between atoms: C_13  and  C_30 
REMARK       I    between atoms: N_14  and  C_16 
REMARK       I    between atoms: N_15  and  C_16 
REMARK    8  A    between atoms: N_17  and  C_18 
REMARK    9  A    between atoms: C_18  and  C_19 
REMARK   10  A    between atoms: C_19  and  C_20 
REMARK   11  A    between atoms: C_20  and  C_21 
REMARK   12  A    between atoms: C_21  and  N_36 
REMARK   13  A    between atoms: N_23  and  C_30 
REMARK   14  A    between atoms: C_30  and  C_31 
REMARK   15  A    between atoms: C_31  and  C_32 
REMARK   16  A    between atoms: C_32  and  N_33 
ROOT
HETATM    1  C           1     -20.115  -7.059  -5.761  0.00  0.00     0.249 C 
HETATM    2  H           1     -20.508  -8.143  -4.041  0.00  0.00     0.163 HD
HETATM    3  N           1     -19.992  -8.126  -4.911  0.00  0.00    -0.345 N 
HETATM    4  O           1     -19.499  -7.038  -6.798  0.00  0.00    -0.271 OA
ENDROOT
BRANCH   1   5
HETATM    5  C           1     -21.021  -5.908  -5.398  0.00  0.00     0.274 C 
BRANCH   5   6
HETATM    6  C           1     -21.885  -5.544  -6.598  0.00  0.00     0.044 C 
BRANCH   6   7
HETATM    7  C           1     -21.583  -4.114  -7.027  0.00  0.00     0.023 C 
BRANCH   7   8
HETATM    8  C           1     -21.996  -3.922  -8.480  0.00  0.00     0.138 C 
BRANCH   8   9
HETATM    9  N           1     -23.437  -3.638  -8.548  0.00  0.00    -0.227 N 
HETATM   10  C           1     -24.119  -4.056  -9.529  0.00  0.00     0.665 C 
HETATM   11  N           1     -23.545  -4.736 -10.478  0.00  0.00    -0.235 N 
HETATM   12  N           1     -25.360  -3.812  -9.588  0.00  0.00    -0.235 N 
HETATM   13  H           1     -24.108  -5.081 -11.288  0.00  0.00     0.174 HD
HETATM   14  H           1     -22.521  -4.938 -10.429  0.00  0.00     0.174 HD
HETATM   15  H           1     -25.926  -4.159 -10.403  0.00  0.00     0.174 HD
HETATM   16  H           1     -25.824  -3.263  -8.822  0.00  0.00     0.174 HD
HETATM   17  H           1     -23.901  -3.089  -7.783  0.00  0.00     0.177 HD
ENDBRANCH   8   9
ENDBRANCH   7   8
ENDBRANCH   6   7
ENDBRANCH   5   6
BRANCH   5  18
HETATM   18  N           1     -20.191  -4.722  -5.004  0.00  0.00    -0.067 N 
HETATM   19  H           1     -20.517  -3.879  -5.528  0.00  0.00     0.275 HD
HETATM   20  H           1     -19.188  -4.909  -5.233  0.00  0.00     0.275 HD
HETATM   21  H           1     -20.287  -4.554  -3.978  0.00  0.00     0.275 HD
ENDBRANCH   5  18
ENDBRANCH   1   5
BRANCH   3  22
HETATM   22  C           1     -19.121  -9.232  -5.259  0.00  0.00     0.187 C 
BRANCH  22  23
HETATM   23  C           1     -19.952 -10.469  -5.498  0.00  0.00     0.196 C 
HETATM   24  O           1     -21.009 -10.393  -6.160  0.00  0.00    -0.646 OA
HETATM   25  O           1     -19.583 -11.569  -5.034  0.00  0.00    -0.646 OA
ENDBRANCH  22  23
BRANCH  22  26
HETATM   26  C           1     -18.145  -9.487  -4.117  0.00  0.00     0.066 C 
BRANCH  26  27
HETATM   27  C           1     -18.801  -9.110  -2.796  0.00  0.00     0.273 C 
BRANCH  27  28
HETATM   28  N           1     -19.199 -10.303  -2.098  0.00  0.00     0.098 N 
HETATM   29  H           1     -18.504 -10.531  -1.389  0.00  0.00     0.317 HD
BRANCH  28  30
HETATM   30  C           1     -20.462 -10.037  -1.464  0.00  0.00     0.320 C 
BRANCH  30  31
HETATM   31  C           1     -21.583 -10.503  -2.362  0.00  0.00     0.207 C 
HETATM   32  O           1     -22.197  -9.679  -3.074  0.00  0.00    -0.646 OA
HETATM   33  O           1     -21.896 -11.713  -2.394  0.00  0.00    -0.646 OA
ENDBRANCH  30  31
BRANCH  30  34
HETATM   34  C           1     -20.599  -8.540  -1.217  0.00  0.00     0.057 C 
BRANCH  34  35
HETATM   35  C           1     -21.238  -8.306   0.145  0.00  0.00     0.116 C 
BRANCH  35  36
HETATM   36  C           1     -22.585  -7.651  -0.037  0.00  0.00     0.172 C 
HETATM   37  O           1     -23.553  -8.004   0.672  0.00  0.00    -0.648 OA
HETATM   38  O           1     -22.734  -6.756  -0.897  0.00  0.00    -0.648 OA
ENDBRANCH  35  36
ENDBRANCH  34  35
ENDBRANCH  30  34
ENDBRANCH  28  30
ENDBRANCH  27  28
ENDBRANCH  26  27
ENDBRANCH  22  26
ENDBRANCH   3  22
TORSDOF 16
ENDMDL
MODEL 7
REMARK VINA RESULT:      -6.5     15.592     18.198
REMARK  16 active torsions:
REMARK  status: ('A' for Active; 'I' for Inactive)
REMARK       I    between atoms: C_1  and  N_23 
REMARK    1  A    between atoms: C_1  and  C_21 
REMARK    2  A    between atoms: C_3  and  C_4 
REMARK    3  A    between atoms: C_4  and  C_5 
REMARK    4  A    between atoms: C_4  and  N_33 
REMARK    5  A    between atoms: C_5  and  C_6 
REMARK    6  A    between atoms: C_6  and  C_8 
REMARK    7  A    between atoms: C_13  and  C_30 
REMARK       I    between atoms: N_14  and  C_16 
REMARK       I    between atoms: N_15  and  C_16 
REMARK    8  A    between atoms: N_17  and  C_18 
REMARK    9  A    between atoms: C_18  and  C_19 
REMARK   10  A    between atoms: C_19  and  C_20 
REMARK   11  A    between atoms: C_20  and  C_21 
REMARK   12  A    between atoms: C_21  and  N_36 
REMARK   13  A    between atoms: N_23  and  C_30 
REMARK   14  A    between atoms: C_30  and  C_31 
REMARK   15  A    between atoms: C_31  and  C_32 
REMARK   16  A    between atoms: C_32  and  N_33 
ROOT
HETATM    1  C           1     -21.741  -6.290  -4.881  0.00  0.00     0.249 C 
HETATM    2  H           1     -19.965  -6.550  -3.848  0.00  0.00     0.163 HD
HETATM    3  N           1     -20.960  -6.739  -3.850  0.00  0.00    -0.345 N 
HETATM    4  O           1     -22.927  -6.516  -4.885  0.00  0.00    -0.271 OA
ENDROOT
BRANCH   1   5
HETATM    5  C           1     -21.118  -5.512  -6.015  0.00  0.00     0.274 C 
BRANCH   5   6
HETATM    6  C           1     -22.204  -4.761  -6.773  0.00  0.00     0.044 C 
BRANCH   6   7
HETATM    7  C           1     -21.569  -3.671  -7.625  0.00  0.00     0.023 C 
BRANCH   7   8
HETATM    8  C           1     -22.186  -3.689  -9.018  0.00  0.00     0.138 C 
BRANCH   8   9
HETATM    9  N           1     -23.623  -3.392  -8.921  0.00  0.00    -0.227 N 
HETATM   10  C           1     -24.428  -3.872  -9.772  0.00  0.00     0.665 C 
HETATM   11  N           1     -23.984  -4.629 -10.732  0.00  0.00    -0.235 N 
HETATM   12  N           1     -25.665  -3.615  -9.689  0.00  0.00    -0.235 N 
HETATM   13  H           1     -24.648  -5.025 -11.434  0.00  0.00     0.174 HD
HETATM   14  H           1     -22.963  -4.840 -10.800  0.00  0.00     0.174 HD
HETATM   15  H           1     -26.333  -4.014 -10.395  0.00  0.00     0.174 HD
HETATM   16  H           1     -26.024  -3.005  -8.913  0.00  0.00     0.174 HD
HETATM   17  H           1     -23.982  -2.780  -8.146  0.00  0.00     0.177 HD
ENDBRANCH   8   9
ENDBRANCH   7   8
ENDBRANCH   6   7
ENDBRANCH   5   6
BRANCH   5  18
HETATM   18  N           1     -20.423  -6.459  -6.948  0.00  0.00    -0.067 N 
HETATM   19  H           1     -19.794  -7.089  -6.400  0.00  0.00     0.275 HD
HETATM   20  H           1     -19.855  -5.915  -7.637  0.00  0.00     0.275 HD
HETATM   21  H           1     -21.132  -7.031  -7.457  0.00  0.00     0.275 HD
ENDBRANCH   5  18
ENDBRANCH   1   5
BRANCH   3  22
HETATM   22  C           1     -21.558  -7.487  -2.761  0.00  0.00     0.187 C 
BRANCH  22  23
HETATM   23  C           1     -22.116  -6.525  -1.740  0.00  0.00     0.196 C 
HETATM   24  O           1     -22.773  -6.957  -0.769  0.00  0.00    -0.646 OA
HETATM   25  O           1     -21.920  -5.297  -1.865  0.00  0.00    -0.646 OA
ENDBRANCH  22  23
BRANCH  22  26
HETATM   26  C           1     -20.498  -8.365  -2.107  0.00  0.00     0.066 C 
BRANCH  26  27
HETATM   27  C           1     -20.534  -9.753  -2.731  0.00  0.00     0.273 C 
BRANCH  27  28
HETATM   28  N           1     -19.200 -10.288  -2.791  0.00  0.00     0.098 N 
HETATM   29  H           1     -19.212 -11.176  -3.292  0.00  0.00     0.317 HD
BRANCH  28  30
HETATM   30  C           1     -18.384  -9.344  -3.506  0.00  0.00     0.320 C 
BRANCH  30  31
HETATM   31  C           1     -18.584  -9.530  -4.990  0.00  0.00     0.207 C 
HETATM   32  O           1     -19.174  -8.651  -5.656  0.00  0.00    -0.646 OA
HETATM   33  O           1     -18.160 -10.562  -5.554  0.00  0.00    -0.646 OA
ENDBRANCH  30  31
BRANCH  30  34
HETATM   34  C           1     -16.920  -9.576  -3.158  0.00  0.00     0.057 C 
BRANCH  34  35
HETATM   35  C           1     -16.809 -10.729  -2.170  0.00  0.00     0.116 C 
BRANCH  35  36
HETATM   36  C           1     -16.042 -11.864  -2.804  0.00  0.00     0.172 C 
HETATM   37  O           1     -14.851 -11.700  -3.147  0.00  0.00    -0.648 OA
HETATM   38  O           1     -16.599 -12.968  -2.987  0.00  0.00    -0.648 OA
ENDBRANCH  35  36
ENDBRANCH  34  35
ENDBRANCH  30  34
ENDBRANCH  28  30
ENDBRANCH  27  28
ENDBRANCH  26  27
ENDBRANCH  22  26
ENDBRANCH   3  22
TORSDOF 16
ENDMDL
MODEL 8
REMARK VINA RESULT:      -6.5     15.004     17.669
REMARK  16 active torsions:
REMARK  status: ('A' for Active; 'I' for Inactive)
REMARK       I    between atoms: C_1  and  N_23 
REMARK    1  A    between atoms: C_1  and  C_21 
REMARK    2  A    between atoms: C_3  and  C_4 
REMARK    3  A    between atoms: C_4  and  C_5 
REMARK    4  A    between atoms: C_4  and  N_33 
REMARK    5  A    between atoms: C_5  and  C_6 
REMARK    6  A    between atoms: C_6  and  C_8 
REMARK    7  A    between atoms: C_13  and  C_30 
REMARK       I    between atoms: N_14  and  C_16 
REMARK       I    between atoms: N_15  and  C_16 
REMARK    8  A    between atoms: N_17  and  C_18 
REMARK    9  A    between atoms: C_18  and  C_19 
REMARK   10  A    between atoms: C_19  and  C_20 
REMARK   11  A    between atoms: C_20  and  C_21 
REMARK   12  A    between atoms: C_21  and  N_36 
REMARK   13  A    between atoms: N_23  and  C_30 
REMARK   14  A    between atoms: C_30  and  C_31 
REMARK   15  A    between atoms: C_31  and  C_32 
REMARK   16  A    between atoms: C_32  and  N_33 
ROOT
HETATM    1  C           1     -20.888  -7.225  -5.625  0.00  0.00     0.249 C 
HETATM    2  H           1     -22.013  -8.815  -6.328  0.00  0.00     0.163 HD
HETATM    3  N           1     -21.243  -8.544  -5.729  0.00  0.00    -0.345 N 
HETATM    4  O           1     -19.970  -6.901  -4.911  0.00  0.00    -0.271 OA
ENDROOT
BRANCH   1   5
HETATM    5  C           1     -21.644  -6.177  -6.404  0.00  0.00     0.274 C 
BRANCH   5   6
HETATM    6  C           1     -20.702  -5.039  -6.772  0.00  0.00     0.044 C 
BRANCH   6   7
HETATM    7  C           1     -21.514  -3.835  -7.231  0.00  0.00     0.023 C 
BRANCH   7   8
HETATM    8  C           1     -22.098  -4.112  -8.611  0.00  0.00     0.138 C 
BRANCH   8   9
HETATM    9  N           1     -23.496  -3.660  -8.652  0.00  0.00    -0.227 N 
HETATM   10  C           1     -24.235  -3.975  -9.630  0.00  0.00     0.665 C 
HETATM   11  N           1     -23.757  -4.699 -10.600  0.00  0.00    -0.235 N 
HETATM   12  N           1     -25.439  -3.586  -9.667  0.00  0.00    -0.235 N 
HETATM   13  H           1     -24.366  -4.958 -11.407  0.00  0.00     0.174 HD
HETATM   14  H           1     -22.763  -5.020 -10.570  0.00  0.00     0.174 HD
HETATM   15  H           1     -26.052  -3.847 -10.478  0.00  0.00     0.174 HD
HETATM   16  H           1     -25.825  -3.002  -8.884  0.00  0.00     0.174 HD
HETATM   17  H           1     -23.882  -3.075  -7.870  0.00  0.00     0.177 HD
ENDBRANCH   8   9
ENDBRANCH   7   8
ENDBRANCH   6   7
ENDBRANCH   5   6
BRANCH   5  18
HETATM   18  N           1     -22.767  -5.644  -5.565  0.00  0.00    -0.067 N 
HETATM   19  H           1     -23.028  -6.352  -4.841  0.00  0.00     0.275 HD
HETATM   20  H           1     -23.594  -5.448  -6.174  0.00  0.00     0.275 HD
HETATM   21  H           1     -22.464  -4.762  -5.096  0.00  0.00     0.275 HD
ENDBRANCH   5  18
ENDBRANCH   1   5
BRANCH   3  22
HETATM   22  C           1     -20.517  -9.551  -4.980  0.00  0.00     0.187 C 
BRANCH  22  23
HETATM   23  C           1     -19.574 -10.282  -5.906  0.00  0.00     0.196 C 
HETATM   24  O           1     -19.960 -11.306  -6.509  0.00  0.00    -0.646 OA
HETATM   25  O           1     -18.409  -9.862  -6.069  0.00  0.00    -0.646 OA
ENDBRANCH  22  23
BRANCH  22  26
HETATM   26  C           1     -21.503 -10.540  -4.373  0.00  0.00     0.066 C 
BRANCH  26  27
HETATM   27  C           1     -20.892 -11.166  -3.127  0.00  0.00     0.273 C 
BRANCH  27  28
HETATM   28  N           1     -21.557 -10.657  -1.957  0.00  0.00     0.098 N 
HETATM   29  H           1     -22.044 -11.418  -1.484  0.00  0.00     0.317 HD
BRANCH  28  30
HETATM   30  C           1     -20.552 -10.114  -1.085  0.00  0.00     0.320 C 
BRANCH  30  31
HETATM   31  C           1     -20.344 -11.047   0.084  0.00  0.00     0.207 C 
HETATM   32  O           1     -21.296 -11.310   0.850  0.00  0.00    -0.646 OA
HETATM   33  O           1     -19.220 -11.557   0.284  0.00  0.00    -0.646 OA
ENDBRANCH  30  31
BRANCH  30  34
HETATM   34  C           1     -21.007  -8.754  -0.574  0.00  0.00     0.057 C 
BRANCH  34  35
HETATM   35  C           1     -20.888  -7.726  -1.691  0.00  0.00     0.116 C 
BRANCH  35  36
HETATM   36  C           1     -22.078  -6.798  -1.650  0.00  0.00     0.172 C 
HETATM   37  O           1     -22.873  -6.842  -0.687  0.00  0.00    -0.648 OA
HETATM   38  O           1     -22.267  -5.984  -2.580  0.00  0.00    -0.648 OA
ENDBRANCH  35  36
ENDBRANCH  34  35
ENDBRANCH  30  34
ENDBRANCH  28  30
ENDBRANCH  27  28
ENDBRANCH  26  27
ENDBRANCH  22  26
ENDBRANCH   3  22
TORSDOF 16
ENDMDL
MODEL 9
REMARK VINA RESULT:      -6.4      3.823      8.127
REMARK  16 active torsions:
REMARK  status: ('A' for Active; 'I' for Inactive)
REMARK       I    between atoms: C_1  and  N_23 
REMARK    1  A    between atoms: C_1  and  C_21 
REMARK    2  A    between atoms: C_3  and  C_4 
REMARK    3  A    between atoms: C_4  and  C_5 
REMARK    4  A    between atoms: C_4  and  N_33 
REMARK    5  A    between atoms: C_5  and  C_6 
REMARK    6  A    between atoms: C_6  and  C_8 
REMARK    7  A    between atoms: C_13  and  C_30 
REMARK       I    between atoms: N_14  and  C_16 
REMARK       I    between atoms: N_15  and  C_16 
REMARK    8  A    between atoms: N_17  and  C_18 
REMARK    9  A    between atoms: C_18  and  C_19 
REMARK   10  A    between atoms: C_19  and  C_20 
REMARK   11  A    between atoms: C_20  and  C_21 
REMARK   12  A    between atoms: C_21  and  N_36 
REMARK   13  A    between atoms: N_23  and  C_30 
REMARK   14  A    between atoms: C_30  and  C_31 
REMARK   15  A    between atoms: C_31  and  C_32 
REMARK   16  A    between atoms: C_32  and  N_33 
ROOT
HETATM    1  C           1     -34.005  -4.350 -13.212  0.00  0.00     0.249 C 
HETATM    2  H           1     -35.193  -4.991 -14.782  0.00  0.00     0.163 HD
HETATM    3  N           1     -34.348  -4.494 -14.530  0.00  0.00    -0.345 N 
HETATM    4  O           1     -32.997  -3.758 -12.910  0.00  0.00    -0.271 OA
ENDROOT
BRANCH   1   5
HETATM    5  C           1     -34.888  -4.934 -12.135  0.00  0.00     0.274 C 
BRANCH   5   6
HETATM    6  C           1     -34.786  -4.081 -10.878  0.00  0.00     0.044 C 
BRANCH   6   7
HETATM    7  C           1     -35.867  -3.010 -10.901  0.00  0.00     0.023 C 
BRANCH   7   8
HETATM    8  C           1     -35.268  -1.693 -11.379  0.00  0.00     0.138 C 
BRANCH   8   9
HETATM    9  N           1     -35.884  -1.309 -12.657  0.00  0.00    -0.227 N 
HETATM   10  C           1     -35.632  -0.179 -13.167  0.00  0.00     0.665 C 
HETATM   11  N           1     -34.827   0.644 -12.560  0.00  0.00    -0.235 N 
HETATM   12  N           1     -36.162   0.153 -14.267  0.00  0.00    -0.235 N 
HETATM   13  H           1     -34.619   1.577 -12.981  0.00  0.00     0.174 HD
HETATM   14  H           1     -34.389   0.370 -11.652  0.00  0.00     0.174 HD
HETATM   15  H           1     -35.953   1.091 -14.691  0.00  0.00     0.174 HD
HETATM   16  H           1     -36.812  -0.511 -14.758  0.00  0.00     0.174 HD
HETATM   17  H           1     -36.534  -1.973 -13.147  0.00  0.00     0.177 HD
ENDBRANCH   8   9
ENDBRANCH   7   8
ENDBRANCH   6   7
ENDBRANCH   5   6
BRANCH   5  18
HETATM   18  N           1     -34.443  -6.333 -11.828  0.00  0.00    -0.067 N 
HETATM   19  H           1     -33.518  -6.305 -11.341  0.00  0.00     0.275 HD
HETATM   20  H           1     -34.351  -6.872 -12.718  0.00  0.00     0.275 HD
HETATM   21  H           1     -35.147  -6.795 -11.211  0.00  0.00     0.275 HD
ENDBRANCH   5  18
ENDBRANCH   1   5
BRANCH   3  22
HETATM   22  C           1     -33.500  -3.934 -15.564  0.00  0.00     0.187 C 
BRANCH  22  23
HETATM   23  C           1     -34.264  -2.873 -16.319  0.00  0.00     0.196 C 
HETATM   24  O           1     -35.245  -2.312 -15.787  0.00  0.00    -0.646 OA
HETATM   25  O           1     -33.914  -2.556 -17.476  0.00  0.00    -0.646 OA
ENDBRANCH  22  23
BRANCH  22  26
HETATM   26  C           1     -33.077  -5.037 -16.525  0.00  0.00     0.066 C 
BRANCH  26  27
HETATM   27  C           1     -31.622  -4.833 -16.924  0.00  0.00     0.273 C 
BRANCH  27  28
HETATM   28  N           1     -30.775  -5.634 -16.081  0.00  0.00     0.098 N 
HETATM   29  H           1     -31.271  -6.481 -15.807  0.00  0.00     0.317 HD
BRANCH  28  30
HETATM   30  C           1     -29.608  -5.986 -16.843  0.00  0.00     0.320 C 
BRANCH  30  31
HETATM   31  C           1     -29.790  -7.363 -17.433  0.00  0.00     0.207 C 
HETATM   32  O           1     -29.396  -8.369 -16.804  0.00  0.00    -0.646 OA
HETATM   33  O           1     -30.336  -7.497 -18.550  0.00  0.00    -0.646 OA
ENDBRANCH  30  31
BRANCH  30  34
HETATM   34  C           1     -28.388  -5.981 -15.931  0.00  0.00     0.057 C 
BRANCH  34  35
HETATM   35  C           1     -27.145  -5.654 -16.748  0.00  0.00     0.116 C 
BRANCH  35  36
HETATM   36  C           1     -26.010  -6.553 -16.322  0.00  0.00     0.172 C 
HETATM   37  O           1     -24.887  -6.439 -16.858  0.00  0.00    -0.648 OA
HETATM   38  O           1     -26.194  -7.411 -15.432  0.00  0.00    -0.648 OA
ENDBRANCH  35  36
ENDBRANCH  34  35
ENDBRANCH  30  34
ENDBRANCH  28  30
ENDBRANCH  27  28
ENDBRANCH  26  27
ENDBRANCH  22  26
ENDBRANCH   3  22
TORSDOF 16
ENDMDL
