MODEL 1
REMARK VINA RESULT:      -6.6      0.000      0.000
REMARK  11 active torsions:
REMARK  status: ('A' for Active; 'I' for Inactive)
REMARK    1  A    between atoms: C_4  and  C_5 
REMARK    2  A    between atoms: C_5  and  C_18 
REMARK    3  A    between atoms: C_5  and  N_13 
REMARK    4  A    between atoms: C_6  and  C_10 
REMARK    5  A    between atoms: C_6  and  C_9 
REMARK    6  A    between atoms: C_9  and  C_20 
REMARK    7  A    between atoms: C_10  and  C_19 
REMARK    8  A    between atoms: C_10  and  N_21 
REMARK       I    between atoms: N_13  and  C_19 
REMARK    9  A    between atoms: C_15  and  C_17 
REMARK   10  A    between atoms: C_15  and  C_18 
REMARK   11  A    between atoms: C_20  and  N_23 
ROOT
HETATM    1  O           1     -33.684  -1.967 -11.427  0.00  0.00    -0.271 OA
HETATM    2  H           1     -36.229  -2.286 -13.235  0.00  0.00     0.163 HD
HETATM    3  N           1     -35.555  -1.823 -12.637  0.00  0.00    -0.345 N 
HETATM    4  C           1     -34.487  -2.520 -12.139  0.00  0.00     0.249 C 
ENDROOT
BRANCH   4   5
HETATM    5  C           1     -34.313  -3.980 -12.482  0.00  0.00     0.274 C 
BRANCH   5   6
HETATM    6  C           1     -33.381  -4.631 -11.469  0.00  0.00     0.044 C 
BRANCH   6   7
HETATM    7  C           1     -34.203  -5.282 -10.366  0.00  0.00     0.030 C 
BRANCH   7   8
HETATM    8  C           1     -34.368  -6.767 -10.663  0.00  0.00     0.230 C 
BRANCH   8   9
HETATM    9  N           1     -35.077  -7.430  -9.520  0.00  0.00    -0.079 N 
HETATM   10  H           1     -36.040  -7.703  -9.818  0.00  0.00     0.274 HD
HETATM   11  H           1     -35.136  -6.768  -8.715  0.00  0.00     0.274 HD
HETATM   12  H           1     -34.547  -8.284  -9.231  0.00  0.00     0.274 HD
ENDBRANCH   8   9
ENDBRANCH   7   8
ENDBRANCH   6   7
ENDBRANCH   5   6
BRANCH   5  13
HETATM   13  N           1     -33.724  -4.103 -13.856  0.00  0.00    -0.067 N 
HETATM   14  H           1     -32.791  -4.569 -13.794  0.00  0.00     0.275 HD
HETATM   15  H           1     -34.359  -4.673 -14.458  0.00  0.00     0.275 HD
HETATM   16  H           1     -33.611  -3.151 -14.273  0.00  0.00     0.275 HD
ENDBRANCH   5  13
ENDBRANCH   4   5
BRANCH   3  17
HETATM   17  C           1     -35.724  -0.420 -12.308  0.00  0.00     0.186 C 
BRANCH  17  18
HETATM   18  C           1     -36.707  -0.286 -11.171  0.00  0.00     0.196 C 
HETATM   19  O           1     -37.732  -1.002 -11.144  0.00  0.00    -0.646 OA
HETATM   20  O           1     -36.496   0.540 -10.257  0.00  0.00    -0.646 OA
ENDBRANCH  17  18
BRANCH  17  21
HETATM   21  C           1     -36.249   0.328 -13.526  0.00  0.00     0.046 C 
BRANCH  21  22
HETATM   22  C           1     -35.182   0.344 -14.612  0.00  0.00     0.116 C 
BRANCH  22  23
HETATM   23  C           1     -35.557  -0.630 -15.701  0.00  0.00     0.172 C 
HETATM   24  O           1     -36.273  -0.255 -16.655  0.00  0.00    -0.648 OA
HETATM   25  O           1     -35.152  -1.811 -15.650  0.00  0.00    -0.648 OA
ENDBRANCH  22  23
ENDBRANCH  21  22
ENDBRANCH  17  21
ENDBRANCH   3  17
TORSDOF 11
ENDMDL
MODEL 2
REMARK VINA RESULT:      -5.7      1.503      3.531
REMARK  11 active torsions:
REMARK  status: ('A' for Active; 'I' for Inactive)
REMARK    1  A    between atoms: C_4  and  C_5 
REMARK    2  A    between atoms: C_5  and  C_18 
REMARK    3  A    between atoms: C_5  and  N_13 
REMARK    4  A    between atoms: C_6  and  C_10 
REMARK    5  A    between atoms: C_6  and  C_9 
REMARK    6  A    between atoms: C_9  and  C_20 
REMARK    7  A    between atoms: C_10  and  C_19 
REMARK    8  A    between atoms: C_10  and  N_21 
REMARK       I    between atoms: N_13  and  C_19 
REMARK    9  A    between atoms: C_15  and  C_17 
REMARK   10  A    between atoms: C_15  and  C_18 
REMARK   11  A    between atoms: C_20  and  N_23 
ROOT
HETATM    1  O           1     -34.575  -3.374 -13.577  0.00  0.00    -0.271 OA
HETATM    2  H           1     -34.709  -0.877 -11.682  0.00  0.00     0.163 HD
HETATM    3  N           1     -34.926  -1.461 -12.480  0.00  0.00    -0.345 N 
HETATM    4  C           1     -34.316  -2.678 -12.624  0.00  0.00     0.249 C 
ENDROOT
BRANCH   4   5
HETATM    5  C           1     -33.321  -3.150 -11.592  0.00  0.00     0.274 C 
BRANCH   5   6
HETATM    6  C           1     -33.243  -4.670 -11.621  0.00  0.00     0.044 C 
BRANCH   6   7
HETATM    7  C           1     -34.039  -5.242 -10.455  0.00  0.00     0.030 C 
BRANCH   7   8
HETATM    8  C           1     -34.138  -6.755 -10.600  0.00  0.00     0.230 C 
BRANCH   8   9
HETATM    9  N           1     -35.182  -7.281  -9.660  0.00  0.00    -0.079 N 
HETATM   10  H           1     -35.071  -6.825  -8.726  0.00  0.00     0.274 HD
HETATM   11  H           1     -35.070  -8.314  -9.558  0.00  0.00     0.274 HD
HETATM   12  H           1     -36.132  -7.068 -10.041  0.00  0.00     0.274 HD
ENDBRANCH   8   9
ENDBRANCH   7   8
ENDBRANCH   6   7
ENDBRANCH   5   6
BRANCH   5  13
HETATM   13  N           1     -33.760  -2.697 -10.231  0.00  0.00    -0.067 N 
HETATM   14  H           1     -33.194  -3.186  -9.502  0.00  0.00     0.275 HD
HETATM   15  H           1     -33.622  -1.665 -10.146  0.00  0.00     0.275 HD
HETATM   16  H           1     -34.772  -2.925 -10.099  0.00  0.00     0.275 HD
ENDBRANCH   5  13
ENDBRANCH   4   5
BRANCH   3  17
HETATM   17  C           1     -35.882  -1.006 -13.471  0.00  0.00     0.186 C 
BRANCH  17  18
HETATM   18  C           1     -35.164  -0.213 -14.535  0.00  0.00     0.196 C 
HETATM   19  O           1     -34.755   0.942 -14.283  0.00  0.00    -0.646 OA
HETATM   20  O           1     -34.978  -0.709 -15.667  0.00  0.00    -0.646 OA
ENDBRANCH  17  18
BRANCH  17  21
HETATM   21  C           1     -36.930  -0.127 -12.801  0.00  0.00     0.046 C 
BRANCH  21  22
HETATM   22  C           1     -36.438   0.288 -11.421  0.00  0.00     0.116 C 
BRANCH  22  23
HETATM   23  C           1     -37.083  -0.585 -10.373  0.00  0.00     0.172 C 
HETATM   24  O           1     -38.073  -0.166  -9.735  0.00  0.00    -0.648 OA
HETATM   25  O           1     -36.628  -1.726 -10.143  0.00  0.00    -0.648 OA
ENDBRANCH  22  23
ENDBRANCH  21  22
ENDBRANCH  17  21
ENDBRANCH   3  17
TORSDOF 11
ENDMDL
MODEL 3
REMARK VINA RESULT:      -5.6     14.069     16.875
REMARK  11 active torsions:
REMARK  status: ('A' for Active; 'I' for Inactive)
REMARK    1  A    between atoms: C_4  and  C_5 
REMARK    2  A    between atoms: C_5  and  C_18 
REMARK    3  A    between atoms: C_5  and  N_13 
REMARK    4  A    between atoms: C_6  and  C_10 
REMARK    5  A    between atoms: C_6  and  C_9 
REMARK    6  A    between atoms: C_9  and  C_20 
REMARK    7  A    between atoms: C_10  and  C_19 
REMARK    8  A    between atoms: C_10  and  N_21 
REMARK       I    between atoms: N_13  and  C_19 
REMARK    9  A    between atoms: C_15  and  C_17 
REMARK   10  A    between atoms: C_15  and  C_18 
REMARK   11  A    between atoms: C_20  and  N_23 
ROOT
HETATM    1  O           1     -19.707  -4.444  -5.593  0.00  0.00    -0.271 OA
HETATM    2  H           1     -22.451  -5.887  -6.083  0.00  0.00     0.163 HD
HETATM    3  N           1     -21.561  -5.688  -5.641  0.00  0.00    -0.345 N 
HETATM    4  C           1     -20.768  -4.681  -6.121  0.00  0.00     0.249 C 
ENDROOT
BRANCH   4   5
HETATM    5  C           1     -21.218  -3.868  -7.310  0.00  0.00     0.274 C 
BRANCH   5   6
HETATM    6  C           1     -22.608  -4.320  -7.737  0.00  0.00     0.044 C 
BRANCH   6   7
HETATM    7  C           1     -22.931  -3.744  -9.109  0.00  0.00     0.030 C 
BRANCH   7   8
HETATM    8  C           1     -24.137  -4.466  -9.693  0.00  0.00     0.230 C 
BRANCH   8   9
HETATM    9  N           1     -25.338  -3.570  -9.629  0.00  0.00    -0.079 N 
HETATM   10  H           1     -25.765  -3.491 -10.579  0.00  0.00     0.274 HD
HETATM   11  H           1     -25.048  -2.622  -9.298  0.00  0.00     0.274 HD
HETATM   12  H           1     -26.037  -3.972  -8.965  0.00  0.00     0.274 HD
ENDBRANCH   8   9
ENDBRANCH   7   8
ENDBRANCH   6   7
ENDBRANCH   5   6
BRANCH   5  13
HETATM   13  N           1     -20.257  -4.068  -8.444  0.00  0.00    -0.067 N 
HETATM   14  H           1     -20.488  -4.955  -8.944  0.00  0.00     0.275 HD
HETATM   15  H           1     -20.328  -3.264  -9.108  0.00  0.00     0.275 HD
HETATM   16  H           1     -19.282  -4.123  -8.069  0.00  0.00     0.275 HD
ENDBRANCH   5  13
ENDBRANCH   4   5
BRANCH   3  17
HETATM   17  C           1     -21.130  -6.471  -4.499  0.00  0.00     0.186 C 
BRANCH  17  18
HETATM   18  C           1     -20.645  -7.820  -4.969  0.00  0.00     0.196 C 
HETATM   19  O           1     -19.791  -8.444  -4.301  0.00  0.00    -0.646 OA
HETATM   20  O           1     -21.096  -8.314  -6.025  0.00  0.00    -0.646 OA
ENDBRANCH  17  18
BRANCH  17  21
HETATM   21  C           1     -22.298  -6.656  -3.539  0.00  0.00     0.046 C 
BRANCH  21  22
HETATM   22  C           1     -21.925  -6.101  -2.171  0.00  0.00     0.116 C 
BRANCH  22  23
HETATM   23  C           1     -22.055  -7.189  -1.134  0.00  0.00     0.172 C 
HETATM   24  O           1     -23.037  -7.202  -0.361  0.00  0.00    -0.648 OA
HETATM   25  O           1     -21.181  -8.079  -1.049  0.00  0.00    -0.648 OA
ENDBRANCH  22  23
ENDBRANCH  21  22
ENDBRANCH  17  21
ENDBRANCH   3  17
TORSDOF 11
ENDMDL
MODEL 4
REMARK VINA RESULT:      -5.6      2.694      6.438
REMARK  11 active torsions:
REMARK  status: ('A' for Active; 'I' for Inactive)
REMARK    1  A    between atoms: C_4  and  C_5 
REMARK    2  A    between atoms: C_5  and  C_18 
REMARK    3  A    between atoms: C_5  and  N_13 
REMARK    4  A    between atoms: C_6  and  C_10 
REMARK    5  A    between atoms: C_6  and  C_9 
REMARK    6  A    between atoms: C_9  and  C_20 
REMARK    7  A    between atoms: C_10  and  C_19 
REMARK    8  A    between atoms: C_10  and  N_21 
REMARK       I    between atoms: N_13  and  C_19 
REMARK    9  A    between atoms: C_15  and  C_17 
REMARK   10  A    between atoms: C_15  and  C_18 
REMARK   11  A    between atoms: C_20  and  N_23 
ROOT
HETATM    1  O           1     -34.527  -1.417 -10.010  0.00  0.00    -0.271 OA
HETATM    2  H           1     -36.276  -3.059 -12.033  0.00  0.00     0.163 HD
HETATM    3  N           1     -35.498  -2.853 -11.417  0.00  0.00    -0.345 N 
HETATM    4  C           1     -35.455  -1.662 -10.743  0.00  0.00     0.249 C 
ENDROOT
BRANCH   4   5
HETATM    5  C           1     -36.566  -0.656 -10.918  0.00  0.00     0.274 C 
BRANCH   5   6
HETATM    6  C           1     -36.610  -0.195 -12.368  0.00  0.00     0.044 C 
BRANCH   6   7
HETATM    7  C           1     -35.275   0.433 -12.743  0.00  0.00     0.030 C 
BRANCH   7   8
HETATM    8  C           1     -35.132   0.458 -14.259  0.00  0.00     0.230 C 
BRANCH   8   9
HETATM    9  N           1     -35.065  -0.948 -14.779  0.00  0.00    -0.079 N 
HETATM   10  H           1     -34.503  -0.967 -15.660  0.00  0.00     0.274 HD
HETATM   11  H           1     -36.031  -1.293 -14.976  0.00  0.00     0.274 HD
HETATM   12  H           1     -34.613  -1.561 -14.064  0.00  0.00     0.274 HD
ENDBRANCH   8   9
ENDBRANCH   7   8
ENDBRANCH   6   7
ENDBRANCH   5   6
BRANCH   5  13
HETATM   13  N           1     -36.316   0.524 -10.026  0.00  0.00    -0.067 N 
HETATM   14  H           1     -36.888   0.431  -9.157  0.00  0.00     0.275 HD
HETATM   15  H           1     -35.302   0.561  -9.773  0.00  0.00     0.275 HD
HETATM   16  H           1     -36.582   1.402 -10.527  0.00  0.00     0.275 HD
ENDBRANCH   5  13
ENDBRANCH   4   5
BRANCH   3  17
HETATM   17  C           1     -34.431  -3.821 -11.251  0.00  0.00     0.186 C 
BRANCH  17  18
HETATM   18  C           1     -33.609  -3.883 -12.514  0.00  0.00     0.196 C 
HETATM   19  O           1     -32.391  -4.161 -12.454  0.00  0.00    -0.646 OA
HETATM   20  O           1     -34.145  -3.659 -13.621  0.00  0.00    -0.646 OA
ENDBRANCH  17  18
BRANCH  17  21
HETATM   21  C           1     -35.028  -5.192 -10.964  0.00  0.00     0.046 C 
BRANCH  21  22
HETATM   22  C           1     -33.909  -6.215 -10.822  0.00  0.00     0.116 C 
BRANCH  22  23
HETATM   23  C           1     -34.429  -7.432 -10.100  0.00  0.00     0.172 C 
HETATM   24  O           1     -35.523  -7.381  -9.497  0.00  0.00    -0.648 OA
HETATM   25  O           1     -33.766  -8.492 -10.103  0.00  0.00    -0.648 OA
ENDBRANCH  22  23
ENDBRANCH  21  22
ENDBRANCH  17  21
ENDBRANCH   3  17
TORSDOF 11
ENDMDL
MODEL 5
REMARK VINA RESULT:      -5.5     15.207     17.206
REMARK  11 active torsions:
REMARK  status: ('A' for Active; 'I' for Inactive)
REMARK    1  A    between atoms: C_4  and  C_5 
REMARK    2  A    between atoms: C_5  and  C_18 
REMARK    3  A    between atoms: C_5  and  N_13 
REMARK    4  A    between atoms: C_6  and  C_10 
REMARK    5  A    between atoms: C_6  and  C_9 
REMARK    6  A    between atoms: C_9  and  C_20 
REMARK    7  A    between atoms: C_10  and  C_19 
REMARK    8  A    between atoms: C_10  and  N_21 
REMARK       I    between atoms: N_13  and  C_19 
REMARK    9  A    between atoms: C_15  and  C_17 
REMARK   10  A    between atoms: C_15  and  C_18 
REMARK   11  A    between atoms: C_20  and  N_23 
ROOT
HETATM    1  O           1     -20.321  -4.363  -6.054  0.00  0.00    -0.271 OA
HETATM    2  H           1     -21.881  -6.952  -6.898  0.00  0.00     0.163 HD
HETATM    3  N           1     -21.321  -6.343  -6.313  0.00  0.00    -0.345 N 
HETATM    4  C           1     -20.988  -5.089  -6.752  0.00  0.00     0.249 C 
ENDROOT
BRANCH   4   5
HETATM    5  C           1     -21.455  -4.615  -8.107  0.00  0.00     0.274 C 
BRANCH   5   6
HETATM    6  C           1     -20.266  -4.080  -8.894  0.00  0.00     0.044 C 
BRANCH   6   7
HETATM    7  C           1     -20.379  -4.520 -10.347  0.00  0.00     0.030 C 
BRANCH   7   8
HETATM    8  C           1     -20.930  -3.373 -11.184  0.00  0.00     0.230 C 
BRANCH   8   9
HETATM    9  N           1     -21.451  -3.907 -12.485  0.00  0.00    -0.079 N 
HETATM   10  H           1     -22.079  -4.722 -12.301  0.00  0.00     0.274 HD
HETATM   11  H           1     -20.650  -4.213 -13.082  0.00  0.00     0.274 HD
HETATM   12  H           1     -21.988  -3.158 -12.978  0.00  0.00     0.274 HD
ENDBRANCH   8   9
ENDBRANCH   7   8
ENDBRANCH   6   7
ENDBRANCH   5   6
BRANCH   5  13
HETATM   13  N           1     -22.470  -3.525  -7.932  0.00  0.00    -0.067 N 
HETATM   14  H           1     -22.361  -2.822  -8.696  0.00  0.00     0.275 HD
HETATM   15  H           1     -23.430  -3.933  -7.968  0.00  0.00     0.275 HD
HETATM   16  H           1     -22.324  -3.059  -7.007  0.00  0.00     0.275 HD
ENDBRANCH   5  13
ENDBRANCH   4   5
BRANCH   3  17
HETATM   17  C           1     -20.873  -6.800  -5.012  0.00  0.00     0.186 C 
BRANCH  17  18
HETATM   18  C           1     -20.428  -8.238  -5.111  0.00  0.00     0.196 C 
HETATM   19  O           1     -21.125  -9.144  -4.604  0.00  0.00    -0.646 OA
HETATM   20  O           1     -19.363  -8.524  -5.700  0.00  0.00    -0.646 OA
ENDBRANCH  17  18
BRANCH  17  21
HETATM   21  C           1     -22.017  -6.689  -4.013  0.00  0.00     0.046 C 
BRANCH  21  22
HETATM   22  C           1     -21.496  -6.110  -2.705  0.00  0.00     0.116 C 
BRANCH  22  23
HETATM   23  C           1     -21.822  -7.052  -1.573  0.00  0.00     0.172 C 
HETATM   24  O           1     -22.774  -6.798  -0.803  0.00  0.00    -0.648 OA
HETATM   25  O           1     -21.141  -8.087  -1.404  0.00  0.00    -0.648 OA
ENDBRANCH  22  23
ENDBRANCH  21  22
ENDBRANCH  17  21
ENDBRANCH   3  17
TORSDOF 11
ENDMDL
MODEL 6
REMARK VINA RESULT:      -5.5      1.739      2.140
REMARK  11 active torsions:
REMARK  status: ('A' for Active; 'I' for Inactive)
REMARK    1  A    between atoms: C_4  and  C_5 
REMARK    2  A    between atoms: C_5  and  C_18 
REMARK    3  A    between atoms: C_5  and  N_13 
REMARK    4  A    between atoms: C_6  and  C_10 
REMARK    5  A    between atoms: C_6  and  C_9 
REMARK    6  A    between atoms: C_9  and  C_20 
REMARK    7  A    between atoms: C_10  and  C_19 
REMARK    8  A    between atoms: C_10  and  N_21 
REMARK       I    between atoms: N_13  and  C_19 
REMARK    9  A    between atoms: C_15  and  C_17 
REMARK   10  A    between atoms: C_15  and  C_18 
REMARK   11  A    between atoms: C_20  and  N_23 
ROOT
HETATM    1  O           1     -35.135  -2.364 -13.184  0.00  0.00    -0.271 OA
HETATM    2  H           1     -34.607  -0.088 -11.089  0.00  0.00     0.163 HD
HETATM    3  N           1     -34.992  -0.533 -11.914  0.00  0.00    -0.345 N 
HETATM    4  C           1     -34.675  -1.834 -12.201  0.00  0.00     0.249 C 
ENDROOT
BRANCH   4   5
HETATM    5  C           1     -33.752  -2.605 -11.289  0.00  0.00     0.274 C 
BRANCH   5   6
HETATM    6  C           1     -34.533  -3.712 -10.595  0.00  0.00     0.044 C 
BRANCH   6   7
HETATM    7  C           1     -33.791  -5.033 -10.750  0.00  0.00     0.030 C 
BRANCH   7   8
HETATM    8  C           1     -34.637  -5.999 -11.568  0.00  0.00     0.230 C 
BRANCH   8   9
HETATM    9  N           1     -34.581  -7.363 -10.946  0.00  0.00    -0.079 N 
HETATM   10  H           1     -35.336  -7.452 -10.230  0.00  0.00     0.274 HD
HETATM   11  H           1     -33.651  -7.500 -10.490  0.00  0.00     0.274 HD
HETATM   12  H           1     -34.717  -8.088 -11.687  0.00  0.00     0.274 HD
ENDBRANCH   8   9
ENDBRANCH   7   8
ENDBRANCH   6   7
ENDBRANCH   5   6
BRANCH   5  13
HETATM   13  N           1     -33.179  -1.677 -10.259  0.00  0.00    -0.067 N 
HETATM   14  H           1     -32.376  -1.151 -10.672  0.00  0.00     0.275 HD
HETATM   15  H           1     -33.914  -1.002  -9.949  0.00  0.00     0.275 HD
HETATM   16  H           1     -32.847  -2.232  -9.437  0.00  0.00     0.275 HD
ENDBRANCH   5  13
ENDBRANCH   4   5
BRANCH   3  17
HETATM   17  C           1     -35.878   0.208 -12.789  0.00  0.00     0.186 C 
BRANCH  17  18
HETATM   18  C           1     -37.300  -0.244 -12.564  0.00  0.00     0.196 C 
HETATM   19  O           1     -37.954  -0.740 -13.507  0.00  0.00    -0.646 OA
HETATM   20  O           1     -37.824  -0.123 -11.435  0.00  0.00    -0.646 OA
ENDBRANCH  17  18
BRANCH  17  21
HETATM   21  C           1     -35.488  -0.043 -14.239  0.00  0.00     0.046 C 
BRANCH  21  22
HETATM   22  C           1     -35.105   1.275 -14.899  0.00  0.00     0.116 C 
BRANCH  22  23
HETATM   23  C           1     -36.137   1.635 -15.939  0.00  0.00     0.172 C 
HETATM   24  O           1     -37.049   0.828 -16.220  0.00  0.00    -0.648 OA
HETATM   25  O           1     -36.081   2.741 -16.519  0.00  0.00    -0.648 OA
ENDBRANCH  22  23
ENDBRANCH  21  22
ENDBRANCH  17  21
ENDBRANCH   3  17
TORSDOF 11
ENDMDL
MODEL 7
REMARK VINA RESULT:      -5.5     14.496     17.141
REMARK  11 active torsions:
REMARK  status: ('A' for Active; 'I' for Inactive)
REMARK    1  A    between atoms: C_4  and  C_5 
REMARK    2  A    between atoms: C_5  and  C_18 
REMARK    3  A    between atoms: C_5  and  N_13 
REMARK    4  A    between atoms: C_6  and  C_10 
REMARK    5  A    between atoms: C_6  and  C_9 
REMARK    6  A    between atoms: C_9  and  C_20 
REMARK    7  A    between atoms: C_10  and  C_19 
REMARK    8  A    between atoms: C_10  and  N_21 
REMARK       I    between atoms: N_13  and  C_19 
REMARK    9  A    between atoms: C_15  and  C_17 
REMARK   10  A    between atoms: C_15  and  C_18 
REMARK   11  A    between atoms: C_20  and  N_23 
ROOT
HETATM    1  O           1     -22.517  -5.931  -5.465  0.00  0.00    -0.271 OA
HETATM    2  H           1     -19.757  -6.842  -4.281  0.00  0.00     0.163 HD
HETATM    3  N           1     -20.764  -6.792  -4.383  0.00  0.00    -0.345 N 
HETATM    4  C           1     -21.316  -5.990  -5.344  0.00  0.00     0.249 C 
ENDROOT
BRANCH   4   5
HETATM    5  C           1     -20.425  -5.179  -6.254  0.00  0.00     0.274 C 
BRANCH   5   6
HETATM    6  C           1     -21.221  -4.023  -6.845  0.00  0.00     0.044 C 
BRANCH   6   7
HETATM    7  C           1     -21.292  -4.175  -8.358  0.00  0.00     0.030 C 
BRANCH   7   8
HETATM    8  C           1     -22.745  -4.103  -8.809  0.00  0.00     0.230 C 
BRANCH   8   9
HETATM    9  N           1     -23.646  -4.186  -7.613  0.00  0.00    -0.079 N 
HETATM   10  H           1     -24.628  -3.978  -7.902  0.00  0.00     0.274 HD
HETATM   11  H           1     -23.339  -3.490  -6.897  0.00  0.00     0.274 HD
HETATM   12  H           1     -23.598  -5.148  -7.208  0.00  0.00     0.274 HD
ENDBRANCH   8   9
ENDBRANCH   7   8
ENDBRANCH   6   7
ENDBRANCH   5   6
BRANCH   5  13
HETATM   13  N           1     -19.916  -6.053  -7.362  0.00  0.00    -0.067 N 
HETATM   14  H           1     -19.631  -6.979  -6.972  0.00  0.00     0.275 HD
HETATM   15  H           1     -20.669  -6.190  -8.072  0.00  0.00     0.275 HD
HETATM   16  H           1     -19.091  -5.596  -7.814  0.00  0.00     0.275 HD
ENDBRANCH   5  13
ENDBRANCH   4   5
BRANCH   3  17
HETATM   17  C           1     -21.618  -7.571  -3.508  0.00  0.00     0.186 C 
BRANCH  17  18
HETATM   18  C           1     -21.709  -6.895  -2.162  0.00  0.00     0.196 C 
HETATM   19  O           1     -21.277  -7.474  -1.142  0.00  0.00    -0.646 OA
HETATM   20  O           1     -22.215  -5.756  -2.067  0.00  0.00    -0.646 OA
ENDBRANCH  17  18
BRANCH  17  21
HETATM   21  C           1     -21.034  -8.967  -3.338  0.00  0.00     0.046 C 
BRANCH  21  22
HETATM   22  C           1     -21.733  -9.930  -4.288  0.00  0.00     0.116 C 
BRANCH  22  23
HETATM   23  C           1     -20.871 -10.149  -5.506  0.00  0.00     0.172 C 
HETATM   24  O           1     -19.787  -9.537  -5.623  0.00  0.00    -0.648 OA
HETATM   25  O           1     -21.240 -10.943  -6.399  0.00  0.00    -0.648 OA
ENDBRANCH  22  23
ENDBRANCH  21  22
ENDBRANCH  17  21
ENDBRANCH   3  17
TORSDOF 11
ENDMDL
MODEL 8
REMARK VINA RESULT:      -5.4     13.361     16.117
REMARK  11 active torsions:
REMARK  status: ('A' for Active; 'I' for Inactive)
REMARK    1  A    between atoms: C_4  and  C_5 
REMARK    2  A    between atoms: C_5  and  C_18 
REMARK    3  A    between atoms: C_5  and  N_13 
REMARK    4  A    between atoms: C_6  and  C_10 
REMARK    5  A    between atoms: C_6  and  C_9 
REMARK    6  A    between atoms: C_9  and  C_20 
REMARK    7  A    between atoms: C_10  and  C_19 
REMARK    8  A    between atoms: C_10  and  N_21 
REMARK       I    between atoms: N_13  and  C_19 
REMARK    9  A    between atoms: C_15  and  C_17 
REMARK   10  A    between atoms: C_15  and  C_18 
REMARK   11  A    between atoms: C_20  and  N_23 
ROOT
HETATM    1  O           1     -21.721  -3.196  -8.001  0.00  0.00    -0.271 OA
HETATM    2  H           1     -23.038  -5.978  -7.390  0.00  0.00     0.163 HD
HETATM    3  N           1     -22.415  -5.188  -7.269  0.00  0.00    -0.345 N 
HETATM    4  C           1     -22.464  -4.137  -8.146  0.00  0.00     0.249 C 
ENDROOT
BRANCH   4   5
HETATM    5  C           1     -23.446  -4.155  -9.292  0.00  0.00     0.274 C 
BRANCH   5   6
HETATM    6  C           1     -22.833  -3.453 -10.496  0.00  0.00     0.044 C 
BRANCH   6   7
HETATM    7  C           1     -22.011  -4.450 -11.302  0.00  0.00     0.030 C 
BRANCH   7   8
HETATM    8  C           1     -20.540  -4.061 -11.245  0.00  0.00     0.230 C 
BRANCH   8   9
HETATM    9  N           1     -19.864  -4.820 -10.141  0.00  0.00    -0.079 N 
HETATM   10  H           1     -19.986  -4.305  -9.239  0.00  0.00     0.274 HD
HETATM   11  H           1     -18.846  -4.912 -10.354  0.00  0.00     0.274 HD
HETATM   12  H           1     -20.292  -5.770 -10.059  0.00  0.00     0.274 HD
ENDBRANCH   8   9
ENDBRANCH   7   8
ENDBRANCH   6   7
ENDBRANCH   5   6
BRANCH   5  13
HETATM   13  N           1     -24.702  -3.444  -8.884  0.00  0.00    -0.067 N 
HETATM   14  H           1     -25.341  -3.367  -9.707  0.00  0.00     0.275 HD
HETATM   15  H           1     -25.175  -3.981  -8.123  0.00  0.00     0.275 HD
HETATM   16  H           1     -24.463  -2.487  -8.538  0.00  0.00     0.275 HD
ENDBRANCH   5  13
ENDBRANCH   4   5
BRANCH   3  17
HETATM   17  C           1     -21.472  -5.172  -6.168  0.00  0.00     0.186 C 
BRANCH  17  18
HETATM   18  C           1     -20.089  -5.481  -6.687  0.00  0.00     0.196 C 
HETATM   19  O           1     -19.145  -4.695  -6.455  0.00  0.00    -0.646 OA
HETATM   20  O           1     -19.887  -6.524  -7.346  0.00  0.00    -0.646 OA
ENDBRANCH  17  18
BRANCH  17  21
HETATM   21  C           1     -21.875  -6.219  -5.139  0.00  0.00     0.046 C 
BRANCH  21  22
HETATM   22  C           1     -21.081  -6.005  -3.857  0.00  0.00     0.116 C 
BRANCH  22  23
HETATM   23  C           1     -21.804  -6.653  -2.703  0.00  0.00     0.172 C 
HETATM   24  O           1     -21.618  -7.862  -2.448  0.00  0.00    -0.648 OA
HETATM   25  O           1     -22.591  -5.981  -2.001  0.00  0.00    -0.648 OA
ENDBRANCH  22  23
ENDBRANCH  21  22
ENDBRANCH  17  21
ENDBRANCH   3  17
TORSDOF 11
ENDMDL
MODEL 9
REMARK VINA RESULT:      -5.4     13.990     16.162
REMARK  11 active torsions:
REMARK  status: ('A' for Active; 'I' for Inactive)
REMARK    1  A    between atoms: C_4  and  C_5 
REMARK    2  A    between atoms: C_5  and  C_18 
REMARK    3  A    between atoms: C_5  and  N_13 
REMARK    4  A    between atoms: C_6  and  C_10 
REMARK    5  A    between atoms: C_6  and  C_9 
REMARK    6  A    between atoms: C_9  and  C_20 
REMARK    7  A    between atoms: C_10  and  C_19 
REMARK    8  A    between atoms: C_10  and  N_21 
REMARK       I    between atoms: N_13  and  C_19 
REMARK    9  A    between atoms: C_15  and  C_17 
REMARK   10  A    between atoms: C_15  and  C_18 
REMARK   11  A    between atoms: C_20  and  N_23 
ROOT
HETATM    1  O           1     -21.999  -7.527  -4.772  0.00  0.00    -0.271 OA
HETATM    2  H           1     -20.665  -4.692  -4.591  0.00  0.00     0.163 HD
HETATM    3  N           1     -21.091  -5.502  -5.025  0.00  0.00    -0.345 N 
HETATM    4  C           1     -21.491  -6.561  -4.254  0.00  0.00     0.249 C 
ENDROOT
BRANCH   4   5
HETATM    5  C           1     -21.297  -6.521  -2.758  0.00  0.00     0.274 C 
BRANCH   5   6
HETATM    6  C           1     -21.284  -7.942  -2.210  0.00  0.00     0.044 C 
BRANCH   6   7
HETATM    7  C           1     -21.499  -7.908  -0.703  0.00  0.00     0.030 C 
BRANCH   7   8
HETATM    8  C           1     -22.671  -8.809  -0.336  0.00  0.00     0.230 C 
BRANCH   8   9
HETATM    9  N           1     -23.553  -8.105   0.652  0.00  0.00    -0.079 N 
HETATM   10  H           1     -23.370  -8.477   1.611  0.00  0.00     0.274 HD
HETATM   11  H           1     -24.554  -8.267   0.402  0.00  0.00     0.274 HD
HETATM   12  H           1     -23.349  -7.080   0.632  0.00  0.00     0.274 HD
ENDBRANCH   8   9
ENDBRANCH   7   8
ENDBRANCH   6   7
ENDBRANCH   5   6
BRANCH   5  13
HETATM   13  N           1     -22.421  -5.753  -2.129  0.00  0.00    -0.067 N 
HETATM   14  H           1     -22.652  -4.925  -2.723  0.00  0.00     0.275 HD
HETATM   15  H           1     -23.261  -6.368  -2.047  0.00  0.00     0.275 HD
HETATM   16  H           1     -22.132  -5.429  -1.178  0.00  0.00     0.275 HD
ENDBRANCH   5  13
ENDBRANCH   4   5
BRANCH   3  17
HETATM   17  C           1     -21.277  -5.540  -6.463  0.00  0.00     0.186 C 
BRANCH  17  18
HETATM   18  C           1     -19.951  -5.802  -7.133  0.00  0.00     0.196 C 
HETATM   19  O           1     -19.393  -6.913  -7.001  0.00  0.00    -0.646 OA
HETATM   20  O           1     -19.411  -4.909  -7.823  0.00  0.00    -0.646 OA
ENDBRANCH  17  18
BRANCH  17  21
HETATM   21  C           1     -21.832  -4.204  -6.938  0.00  0.00     0.046 C 
BRANCH  21  22
HETATM   22  C           1     -23.224  -4.410  -7.522  0.00  0.00     0.116 C 
BRANCH  22  23
HETATM   23  C           1     -23.201  -4.098  -8.998  0.00  0.00     0.172 C 
HETATM   24  O           1     -22.330  -4.614  -9.732  0.00  0.00    -0.648 OA
HETATM   25  O           1     -24.052  -3.324  -9.487  0.00  0.00    -0.648 OA
ENDBRANCH  22  23
ENDBRANCH  21  22
ENDBRANCH  17  21
ENDBRANCH   3  17
TORSDOF 11
ENDMDL
