MODEL 1
REMARK VINA RESULT:      -5.6      0.000      0.000
REMARK  7 active torsions:
REMARK  status: ('A' for Active; 'I' for Inactive)
REMARK    1  A    between atoms: Se_2  and  C_3 
REMARK    2  A    between atoms: C_3  and  C_17 
REMARK    3  A    between atoms: C_4  and  C_18 
REMARK    4  A    between atoms: N_7  and  C_18 
REMARK       I    between atoms: N_7  and  C_8 
REMARK    5  A    between atoms: C_8  and  C_9 
REMARK    6  A    between atoms: C_9  and  N_11 
REMARK    7  A    between atoms: C_17  and  C_18 
ROOT
HETATM    1  N           1     -26.522  -6.628 -18.241  0.00  0.00    -0.345 N 
HETATM    2  C           1     -25.378  -6.831 -18.964  0.00  0.00     0.248 C 
HETATM    3  O           1     -24.312  -6.468 -18.523  0.00  0.00    -0.271 OA
HETATM    4  H           1     -27.414  -6.932 -18.611  0.00  0.00     0.163 HD
ENDROOT
BRANCH   1   5
HETATM    5  C           1     -26.455  -5.983 -16.944  0.00  0.00     0.185 C 
BRANCH   5   6
HETATM    6  C           1     -26.432  -7.032 -15.861  0.00  0.00     0.196 C 
HETATM    7  O           1     -25.340  -7.492 -15.461  0.00  0.00    -0.646 OA
HETATM    8  O           1     -27.503  -7.441 -15.362  0.00  0.00    -0.646 OA
ENDBRANCH   5   6
BRANCH   5   9
HETATM    9  C           1     -27.676  -5.089 -16.761  0.00  0.00     0.036 C 
BRANCH   9  10
HETATM   10  C           1     -28.605  -5.247 -17.957  0.00  0.00     0.003 C 
BRANCH  10  11
HETATM   11 Se           1     -30.282  -6.052 -17.375  0.00  0.00     0.000 Se
HETATM   12  C           1     -30.033  -7.698 -18.389  0.00  0.00     0.000 C 
ENDBRANCH  10  11
ENDBRANCH   9  10
ENDBRANCH   5   9
ENDBRANCH   1   5
BRANCH   2  13
HETATM   13  C           1     -25.446  -7.503 -20.313  0.00  0.00     0.270 C 
HETATM   14  C           1     -24.956  -6.539 -21.387  0.00  0.00     0.050 C 
BRANCH  13  15
HETATM   15  N           1     -26.865  -7.895 -20.605  0.00  0.00    -0.067 N 
HETATM   16  H           1     -26.937  -8.936 -20.651  0.00  0.00     0.275 HD
HETATM   17  H           1     -27.488  -7.536 -19.845  0.00  0.00     0.275 HD
HETATM   18  H           1     -27.158  -7.485 -21.520  0.00  0.00     0.275 HD
ENDBRANCH  13  15
ENDBRANCH   2  13
TORSDOF 7
ENDMDL
MODEL 2
REMARK VINA RESULT:      -5.1      2.348      3.087
REMARK  7 active torsions:
REMARK  status: ('A' for Active; 'I' for Inactive)
REMARK    1  A    between atoms: Se_2  and  C_3 
REMARK    2  A    between atoms: C_3  and  C_17 
REMARK    3  A    between atoms: C_4  and  C_18 
REMARK    4  A    between atoms: N_7  and  C_18 
REMARK       I    between atoms: N_7  and  C_8 
REMARK    5  A    between atoms: C_8  and  C_9 
REMARK    6  A    between atoms: C_9  and  N_11 
REMARK    7  A    between atoms: C_17  and  C_18 
ROOT
HETATM    1  N           1     -27.540  -6.894 -19.359  0.00  0.00    -0.345 N 
HETATM    2  C           1     -26.256  -6.666 -18.943  0.00  0.00     0.248 C 
HETATM    3  O           1     -26.045  -6.294 -17.813  0.00  0.00    -0.271 OA
HETATM    4  H           1     -27.717  -7.206 -20.306  0.00  0.00     0.163 HD
ENDROOT
BRANCH   1   5
HETATM    5  C           1     -28.646  -6.690 -18.443  0.00  0.00     0.185 C 
BRANCH   5   6
HETATM    6  C           1     -29.729  -7.700 -18.732  0.00  0.00     0.196 C 
HETATM    7  O           1     -30.885  -7.519 -18.291  0.00  0.00    -0.646 OA
HETATM    8  O           1     -29.472  -8.716 -19.413  0.00  0.00    -0.646 OA
ENDBRANCH   5   6
BRANCH   5   9
HETATM    9  C           1     -29.200  -5.282 -18.624  0.00  0.00     0.036 C 
BRANCH   9  10
HETATM   10  C           1     -28.918  -4.461 -17.372  0.00  0.00     0.003 C 
BRANCH  10  11
HETATM   11 Se           1     -30.039  -5.098 -15.911  0.00  0.00     0.000 Se
HETATM   12  C           1     -31.717  -4.578 -16.754  0.00  0.00     0.000 C 
ENDBRANCH  10  11
ENDBRANCH   9  10
ENDBRANCH   5   9
ENDBRANCH   1   5
BRANCH   2  13
HETATM   13  C           1     -25.105  -6.878 -19.895  0.00  0.00     0.270 C 
HETATM   14  C           1     -25.529  -7.840 -20.998  0.00  0.00     0.050 C 
BRANCH  13  15
HETATM   15  N           1     -23.939  -7.457 -19.150  0.00  0.00    -0.067 N 
HETATM   16  H           1     -23.777  -8.440 -19.464  0.00  0.00     0.275 HD
HETATM   17  H           1     -23.085  -6.884 -19.343  0.00  0.00     0.275 HD
HETATM   18  H           1     -24.142  -7.447 -18.125  0.00  0.00     0.275 HD
ENDBRANCH  13  15
ENDBRANCH   2  13
TORSDOF 7
ENDMDL
MODEL 3
REMARK VINA RESULT:      -4.6     11.611     13.337
REMARK  7 active torsions:
REMARK  status: ('A' for Active; 'I' for Inactive)
REMARK    1  A    between atoms: Se_2  and  C_3 
REMARK    2  A    between atoms: C_3  and  C_17 
REMARK    3  A    between atoms: C_4  and  C_18 
REMARK    4  A    between atoms: N_7  and  C_18 
REMARK       I    between atoms: N_7  and  C_8 
REMARK    5  A    between atoms: C_8  and  C_9 
REMARK    6  A    between atoms: C_9  and  N_11 
REMARK    7  A    between atoms: C_17  and  C_18 
ROOT
HETATM    1  N           1     -22.161  -5.420  -7.243  0.00  0.00    -0.345 N 
HETATM    2  C           1     -22.323  -4.251  -7.935  0.00  0.00     0.248 C 
HETATM    3  O           1     -21.750  -3.250  -7.572  0.00  0.00    -0.271 OA
HETATM    4  H           1     -22.642  -6.259  -7.546  0.00  0.00     0.163 HD
ENDROOT
BRANCH   1   5
HETATM    5  C           1     -21.299  -5.460  -6.078  0.00  0.00     0.185 C 
BRANCH   5   6
HETATM    6  C           1     -19.914  -5.895  -6.492  0.00  0.00     0.196 C 
HETATM    7  O           1     -19.627  -7.111  -6.527  0.00  0.00    -0.646 OA
HETATM    8  O           1     -19.056  -5.040  -6.800  0.00  0.00    -0.646 OA
ENDBRANCH   5   6
BRANCH   5   9
HETATM    9  C           1     -21.862  -6.449  -5.065  0.00  0.00     0.036 C 
BRANCH   9  10
HETATM   10  C           1     -21.408  -6.056  -3.665  0.00  0.00     0.003 C 
BRANCH  10  11
HETATM   11 Se           1     -21.291  -7.649  -2.548  0.00  0.00     0.000 Se
HETATM   12  C           1     -22.310  -6.888  -1.072  0.00  0.00     0.000 C 
ENDBRANCH  10  11
ENDBRANCH   9  10
ENDBRANCH   5   9
ENDBRANCH   1   5
BRANCH   2  13
HETATM   13  C           1     -23.220  -4.209  -9.147  0.00  0.00     0.270 C 
HETATM   14  C           1     -22.453  -3.626 -10.327  0.00  0.00     0.050 C 
BRANCH  13  15
HETATM   15  N           1     -24.416  -3.351  -8.856  0.00  0.00    -0.067 N 
HETATM   16  H           1     -24.311  -2.431  -9.341  0.00  0.00     0.275 HD
HETATM   17  H           1     -25.279  -3.830  -9.200  0.00  0.00     0.275 HD
HETATM   18  H           1     -24.489  -3.195  -7.826  0.00  0.00     0.275 HD
ENDBRANCH  13  15
ENDBRANCH   2  13
TORSDOF 7
ENDMDL
MODEL 4
REMARK VINA RESULT:      -4.5      3.372      5.229
REMARK  7 active torsions:
REMARK  status: ('A' for Active; 'I' for Inactive)
REMARK    1  A    between atoms: Se_2  and  C_3 
REMARK    2  A    between atoms: C_3  and  C_17 
REMARK    3  A    between atoms: C_4  and  C_18 
REMARK    4  A    between atoms: N_7  and  C_18 
REMARK       I    between atoms: N_7  and  C_8 
REMARK    5  A    between atoms: C_8  and  C_9 
REMARK    6  A    between atoms: C_9  and  N_11 
REMARK    7  A    between atoms: C_17  and  C_18 
ROOT
HETATM    1  N           1     -26.781  -6.931 -18.875  0.00  0.00    -0.345 N 
HETATM    2  C           1     -27.602  -6.141 -18.117  0.00  0.00     0.248 C 
HETATM    3  O           1     -28.400  -5.409 -18.655  0.00  0.00    -0.271 OA
HETATM    4  H           1     -26.112  -7.544 -18.425  0.00  0.00     0.163 HD
ENDROOT
BRANCH   1   5
HETATM    5  C           1     -26.869  -6.891 -20.322  0.00  0.00     0.185 C 
BRANCH   5   6
HETATM    6  C           1     -27.449  -8.190 -20.826  0.00  0.00     0.196 C 
HETATM    7  O           1     -26.838  -8.852 -21.692  0.00  0.00    -0.646 OA
HETATM    8  O           1     -28.540  -8.603 -20.377  0.00  0.00    -0.646 OA
ENDBRANCH   5   6
BRANCH   5   9
HETATM    9  C           1     -25.476  -6.694 -20.909  0.00  0.00     0.036 C 
BRANCH   9  10
HETATM   10  C           1     -24.443  -7.336 -19.992  0.00  0.00     0.003 C 
BRANCH  10  11
HETATM   11 Se           1     -23.164  -8.346 -21.061  0.00  0.00     0.000 Se
HETATM   12  C           1     -23.816  -7.676 -22.771  0.00  0.00     0.000 C 
ENDBRANCH  10  11
ENDBRANCH   9  10
ENDBRANCH   5   9
ENDBRANCH   1   5
BRANCH   2  13
HETATM   13  C           1     -27.511  -6.183 -16.612  0.00  0.00     0.270 C 
HETATM   14  C           1     -26.051  -6.311 -16.195  0.00  0.00     0.050 C 
BRANCH  13  15
HETATM   15  N           1     -28.283  -7.361 -16.096  0.00  0.00    -0.067 N 
HETATM   16  H           1     -27.713  -8.229 -16.212  0.00  0.00     0.275 HD
HETATM   17  H           1     -28.499  -7.218 -15.083  0.00  0.00     0.275 HD
HETATM   18  H           1     -29.174  -7.455 -16.634  0.00  0.00     0.275 HD
ENDBRANCH  13  15
ENDBRANCH   2  13
TORSDOF 7
ENDMDL
MODEL 5
REMARK VINA RESULT:      -4.4     18.893     20.268
REMARK  7 active torsions:
REMARK  status: ('A' for Active; 'I' for Inactive)
REMARK    1  A    between atoms: Se_2  and  C_3 
REMARK    2  A    between atoms: C_3  and  C_17 
REMARK    3  A    between atoms: C_4  and  C_18 
REMARK    4  A    between atoms: N_7  and  C_18 
REMARK       I    between atoms: N_7  and  C_8 
REMARK    5  A    between atoms: C_8  and  C_9 
REMARK    6  A    between atoms: C_9  and  N_11 
REMARK    7  A    between atoms: C_17  and  C_18 
ROOT
HETATM    1  N           1     -11.517   5.543 -21.489  0.00  0.00    -0.345 N 
HETATM    2  C           1     -12.006   4.412 -22.085  0.00  0.00     0.248 C 
HETATM    3  O           1     -11.419   3.363 -21.960  0.00  0.00    -0.271 OA
HETATM    4  H           1     -12.009   6.422 -21.593  0.00  0.00     0.163 HD
ENDROOT
BRANCH   1   5
HETATM    5  C           1     -10.298   5.482 -20.707  0.00  0.00     0.185 C 
BRANCH   5   6
HETATM    6  C           1     -10.643   5.476 -19.238  0.00  0.00     0.196 C 
HETATM    7  O           1     -11.799   5.176 -18.869  0.00  0.00    -0.646 OA
HETATM    8  O           1      -9.773   5.769 -18.390  0.00  0.00    -0.646 OA
ENDBRANCH   5   6
BRANCH   5   9
HETATM    9  C           1      -9.433   6.697 -21.021  0.00  0.00     0.036 C 
BRANCH   9  10
HETATM   10  C           1     -10.327   7.889 -21.335  0.00  0.00     0.003 C 
BRANCH  10  11
HETATM   11 Se           1     -10.260   9.159 -19.859  0.00  0.00     0.000 Se
HETATM   12  C           1     -12.154   9.007 -19.426  0.00  0.00     0.000 C 
ENDBRANCH  10  11
ENDBRANCH   9  10
ENDBRANCH   5   9
ENDBRANCH   1   5
BRANCH   2  13
HETATM   13  C           1     -13.274   4.475 -22.899  0.00  0.00     0.270 C 
HETATM   14  C           1     -14.198   5.538 -22.318  0.00  0.00     0.050 C 
BRANCH  13  15
HETATM   15  N           1     -13.960   3.142 -22.860  0.00  0.00    -0.067 N 
HETATM   16  H           1     -14.964   3.258 -23.127  0.00  0.00     0.275 HD
HETATM   17  H           1     -13.494   2.491 -23.533  0.00  0.00     0.275 HD
HETATM   18  H           1     -13.900   2.748 -21.894  0.00  0.00     0.275 HD
ENDBRANCH  13  15
ENDBRANCH   2  13
TORSDOF 7
ENDMDL
MODEL 6
REMARK VINA RESULT:      -4.4     12.797     14.539
REMARK  7 active torsions:
REMARK  status: ('A' for Active; 'I' for Inactive)
REMARK    1  A    between atoms: Se_2  and  C_3 
REMARK    2  A    between atoms: C_3  and  C_17 
REMARK    3  A    between atoms: C_4  and  C_18 
REMARK    4  A    between atoms: N_7  and  C_18 
REMARK       I    between atoms: N_7  and  C_8 
REMARK    5  A    between atoms: C_8  and  C_9 
REMARK    6  A    between atoms: C_9  and  N_11 
REMARK    7  A    between atoms: C_17  and  C_18 
ROOT
HETATM    1  N           1     -21.173  -6.542  -6.140  0.00  0.00    -0.345 N 
HETATM    2  C           1     -20.942  -5.246  -6.516  0.00  0.00     0.248 C 
HETATM    3  O           1     -20.361  -4.495  -5.767  0.00  0.00    -0.271 OA
HETATM    4  H           1     -21.659  -7.171  -6.767  0.00  0.00     0.163 HD
ENDROOT
BRANCH   1   5
HETATM    5  C           1     -20.719  -7.014  -4.847  0.00  0.00     0.185 C 
BRANCH   5   6
HETATM    6  C           1     -20.138  -8.399  -4.993  0.00  0.00     0.196 C 
HETATM    7  O           1     -20.688  -9.230  -5.747  0.00  0.00    -0.646 OA
HETATM    8  O           1     -19.107  -8.715  -4.361  0.00  0.00    -0.646 OA
ENDBRANCH   5   6
BRANCH   5   9
HETATM    9  C           1     -21.897  -7.055  -3.881  0.00  0.00     0.036 C 
BRANCH   9  10
HETATM   10  C           1     -21.617  -6.134  -2.700  0.00  0.00     0.003 C 
BRANCH  10  11
HETATM   11 Se           1     -22.189  -7.002  -1.051  0.00  0.00     0.000 Se
HETATM   12  C           1     -20.884  -8.445  -1.164  0.00  0.00     0.000 C 
ENDBRANCH  10  11
ENDBRANCH   9  10
ENDBRANCH   5   9
ENDBRANCH   1   5
BRANCH   2  13
HETATM   13  C           1     -21.414  -4.754  -7.862  0.00  0.00     0.270 C 
HETATM   14  C           1     -20.208  -4.454  -8.744  0.00  0.00     0.050 C 
BRANCH  13  15
HETATM   15  N           1     -22.224  -3.505  -7.682  0.00  0.00    -0.067 N 
HETATM   16  H           1     -22.249  -3.248  -6.669  0.00  0.00     0.275 HD
HETATM   17  H           1     -21.789  -2.727  -8.228  0.00  0.00     0.275 HD
HETATM   18  H           1     -23.198  -3.670  -8.023  0.00  0.00     0.275 HD
ENDBRANCH  13  15
ENDBRANCH   2  13
TORSDOF 7
ENDMDL
MODEL 7
REMARK VINA RESULT:      -4.3     16.187     18.157
REMARK  7 active torsions:
REMARK  status: ('A' for Active; 'I' for Inactive)
REMARK    1  A    between atoms: Se_2  and  C_3 
REMARK    2  A    between atoms: C_3  and  C_17 
REMARK    3  A    between atoms: C_4  and  C_18 
REMARK    4  A    between atoms: N_7  and  C_18 
REMARK       I    between atoms: N_7  and  C_8 
REMARK    5  A    between atoms: C_8  and  C_9 
REMARK    6  A    between atoms: C_9  and  N_11 
REMARK    7  A    between atoms: C_17  and  C_18 
ROOT
HETATM    1  N           1     -21.863  -9.511  -0.973  0.00  0.00    -0.345 N 
HETATM    2  C           1     -21.655 -10.413   0.035  0.00  0.00     0.248 C 
HETATM    3  O           1     -21.005 -10.097   1.003  0.00  0.00    -0.271 OA
HETATM    4  H           1     -22.408  -9.775  -1.784  0.00  0.00     0.163 HD
ENDROOT
BRANCH   1   5
HETATM    5  C           1     -21.305  -8.176  -0.878  0.00  0.00     0.185 C 
BRANCH   5   6
HETATM    6  C           1     -22.421  -7.176  -0.703  0.00  0.00     0.196 C 
HETATM    7  O           1     -22.430  -6.126  -1.380  0.00  0.00    -0.646 OA
HETATM    8  O           1     -23.336  -7.398   0.119  0.00  0.00    -0.646 OA
ENDBRANCH   5   6
BRANCH   5   9
HETATM    9  C           1     -20.532  -7.859  -2.152  0.00  0.00     0.036 C 
BRANCH   9  10
HETATM   10  C           1     -21.062  -8.715  -3.295  0.00  0.00     0.003 C 
BRANCH  10  11
HETATM   11 Se           1     -20.677  -7.842  -4.994  0.00  0.00     0.000 Se
HETATM   12  C           1     -22.207  -6.638  -4.909  0.00  0.00     0.000 C 
ENDBRANCH  10  11
ENDBRANCH   9  10
ENDBRANCH   5   9
ENDBRANCH   1   5
BRANCH   2  13
HETATM   13  C           1     -22.237 -11.802  -0.063  0.00  0.00     0.270 C 
HETATM   14  C           1     -23.755 -11.726   0.039  0.00  0.00     0.050 C 
BRANCH  13  15
HETATM   15  N           1     -21.703 -12.648   1.055  0.00  0.00    -0.067 N 
HETATM   16  H           1     -20.914 -13.236   0.702  0.00  0.00     0.275 HD
HETATM   17  H           1     -21.359 -12.029   1.825  0.00  0.00     0.275 HD
HETATM   18  H           1     -22.464 -13.266   1.417  0.00  0.00     0.275 HD
ENDBRANCH  13  15
ENDBRANCH   2  13
TORSDOF 7
ENDMDL
MODEL 8
REMARK VINA RESULT:      -4.2     11.310     13.250
REMARK  7 active torsions:
REMARK  status: ('A' for Active; 'I' for Inactive)
REMARK    1  A    between atoms: Se_2  and  C_3 
REMARK    2  A    between atoms: C_3  and  C_17 
REMARK    3  A    between atoms: C_4  and  C_18 
REMARK    4  A    between atoms: N_7  and  C_18 
REMARK       I    between atoms: N_7  and  C_8 
REMARK    5  A    between atoms: C_8  and  C_9 
REMARK    6  A    between atoms: C_9  and  N_11 
REMARK    7  A    between atoms: C_17  and  C_18 
ROOT
HETATM    1  N           1     -21.626  -5.850  -5.618  0.00  0.00    -0.345 N 
HETATM    2  C           1     -21.457  -7.158  -5.251  0.00  0.00     0.248 C 
HETATM    3  O           1     -21.255  -8.000  -6.093  0.00  0.00    -0.271 OA
HETATM    4  H           1     -21.795  -5.144  -4.912  0.00  0.00     0.163 HD
ENDROOT
BRANCH   1   5
HETATM    5  C           1     -21.559  -5.476  -7.017  0.00  0.00     0.185 C 
BRANCH   5   6
HETATM    6  C           1     -20.137  -5.124  -7.376  0.00  0.00     0.196 C 
HETATM    7  O           1     -19.679  -5.441  -8.495  0.00  0.00    -0.646 OA
HETATM    8  O           1     -19.417  -4.515  -6.556  0.00  0.00    -0.646 OA
ENDBRANCH   5   6
BRANCH   5   9
HETATM    9  C           1     -22.459  -4.270  -7.262  0.00  0.00     0.036 C 
BRANCH   9  10
HETATM   10  C           1     -22.355  -3.848  -8.722  0.00  0.00     0.003 C 
BRANCH  10  11
HETATM   11 Se           1     -24.139  -3.758  -9.500  0.00  0.00     0.000 Se
HETATM   12  C           1     -23.675  -4.783 -11.091  0.00  0.00     0.000 C 
ENDBRANCH  10  11
ENDBRANCH   9  10
ENDBRANCH   5   9
ENDBRANCH   1   5
BRANCH   2  13
HETATM   13  C           1     -21.526  -7.548  -3.795  0.00  0.00     0.270 C 
HETATM   14  C           1     -21.596  -6.292  -2.935  0.00  0.00     0.050 C 
BRANCH  13  15
HETATM   15  N           1     -20.303  -8.335  -3.429  0.00  0.00    -0.067 N 
HETATM   16  H           1     -19.832  -8.673  -4.299  0.00  0.00     0.275 HD
HETATM   17  H           1     -19.645  -7.725  -2.892  0.00  0.00     0.275 HD
HETATM   18  H           1     -20.579  -9.154  -2.842  0.00  0.00     0.275 HD
ENDBRANCH  13  15
ENDBRANCH   2  13
TORSDOF 7
ENDMDL
MODEL 9
REMARK VINA RESULT:      -4.1     14.740     16.518
REMARK  7 active torsions:
REMARK  status: ('A' for Active; 'I' for Inactive)
REMARK    1  A    between atoms: Se_2  and  C_3 
REMARK    2  A    between atoms: C_3  and  C_17 
REMARK    3  A    between atoms: C_4  and  C_18 
REMARK    4  A    between atoms: N_7  and  C_18 
REMARK       I    between atoms: N_7  and  C_8 
REMARK    5  A    between atoms: C_8  and  C_9 
REMARK    6  A    between atoms: C_9  and  N_11 
REMARK    7  A    between atoms: C_17  and  C_18 
ROOT
HETATM    1  N           1     -20.776  -7.161  -3.324  0.00  0.00    -0.345 N 
HETATM    2  C           1     -21.204  -7.000  -4.614  0.00  0.00     0.248 C 
HETATM    3  O           1     -22.293  -7.409  -4.943  0.00  0.00    -0.271 OA
HETATM    4  H           1     -19.863  -6.820  -3.048  0.00  0.00     0.163 HD
ENDROOT
BRANCH   1   5
HETATM    5  C           1     -21.628  -7.819  -2.353  0.00  0.00     0.185 C 
BRANCH   5   6
HETATM    6  C           1     -22.306  -6.780  -1.494  0.00  0.00     0.196 C 
HETATM    7  O           1     -22.322  -5.584  -1.857  0.00  0.00    -0.646 OA
HETATM    8  O           1     -22.852  -7.116  -0.421  0.00  0.00    -0.646 OA
ENDBRANCH   5   6
BRANCH   5   9
HETATM    9  C           1     -20.783  -8.734  -1.475  0.00  0.00     0.036 C 
BRANCH   9  10
HETATM   10  C           1     -21.003 -10.183  -1.892  0.00  0.00     0.003 C 
BRANCH  10  11
HETATM   11 Se           1     -21.174 -11.297  -0.302  0.00  0.00     0.000 Se
HETATM   12  C           1     -20.932  -9.827   0.955  0.00  0.00     0.000 C 
ENDBRANCH  10  11
ENDBRANCH   9  10
ENDBRANCH   5   9
ENDBRANCH   1   5
BRANCH   2  13
HETATM   13  C           1     -20.317  -6.316  -5.624  0.00  0.00     0.270 C 
HETATM   14  C           1     -20.340  -4.812  -5.383  0.00  0.00     0.050 C 
BRANCH  13  15
HETATM   15  N           1     -20.818  -6.607  -7.008  0.00  0.00    -0.067 N 
HETATM   16  H           1     -21.619  -5.974  -7.230  0.00  0.00     0.275 HD
HETATM   17  H           1     -20.047  -6.450  -7.697  0.00  0.00     0.275 HD
HETATM   18  H           1     -21.135  -7.601  -7.061  0.00  0.00     0.275 HD
ENDBRANCH  13  15
ENDBRANCH   2  13
TORSDOF 7
ENDMDL
