MODEL 1
REMARK VINA RESULT:      -5.6      0.000      0.000
REMARK  8 active torsions:
REMARK  status: ('A' for Active; 'I' for Inactive)
REMARK    1  A    between atoms: C_2  and  C_17 
REMARK    2  A    between atoms: C_2  and  C_16 
REMARK    3  A    between atoms: C_2  and  N_9 
REMARK    4  A    between atoms: C_5  and  C_6 
REMARK    5  A    between atoms: C_5  and  C_14 
REMARK    6  A    between atoms: C_5  and  N_19 
REMARK    7  A    between atoms: C_6  and  O_7 
REMARK    8  A    between atoms: O_11  and  C_16 
REMARK       I    between atoms: C_17  and  N_19 
ROOT
HETATM    1  O           1     -21.723  -3.498  -7.510  0.00  0.00    -0.271 OA
HETATM    2  C           1     -21.720  -4.637  -7.911  0.00  0.00     0.251 C 
HETATM    3  N           1     -22.115  -4.915  -9.192  0.00  0.00    -0.343 N 
HETATM    4  H           1     -22.111  -5.870  -9.527  0.00  0.00     0.163 HD
ENDROOT
BRANCH   2   5
HETATM    5  C           1     -21.282  -5.756  -6.997  0.00  0.00     0.302 C 
BRANCH   5   6
HETATM    6  C           1     -21.190  -5.239  -5.568  0.00  0.00     0.153 C 
HETATM    7  C           1     -21.239  -6.414  -4.600  0.00  0.00     0.042 C 
BRANCH   6   8
HETATM    8  O           1     -19.985  -4.544  -5.397  0.00  0.00    -0.393 OA
HETATM    9  H           1     -19.915  -3.937  -6.114  0.00  0.00     0.210 HD
ENDBRANCH   6   8
ENDBRANCH   5   6
BRANCH   5  10
HETATM   10  N           1     -19.937  -6.258  -7.433  0.00  0.00    -0.064 N 
HETATM   11  H           1     -19.979  -7.293  -7.569  0.00  0.00     0.275 HD
HETATM   12  H           1     -19.667  -5.799  -8.332  0.00  0.00     0.275 HD
HETATM   13  H           1     -19.227  -6.032  -6.700  0.00  0.00     0.275 HD
ENDBRANCH   5  10
ENDBRANCH   2   5
BRANCH   3  14
HETATM   14  C           1     -22.536  -3.840 -10.069  0.00  0.00     0.209 C 
BRANCH  14  15
HETATM   15  C           1     -21.853  -3.992 -11.422  0.00  0.00     0.200 C 
BRANCH  15  16
HETATM   16  O           1     -22.751  -4.554 -12.340  0.00  0.00    -0.398 OA
HETATM   17  H           1     -23.283  -3.850 -12.668  0.00  0.00     0.209 HD
ENDBRANCH  15  16
ENDBRANCH  14  15
BRANCH  14  18
HETATM   18  C           1     -24.033  -3.898 -10.252  0.00  0.00     0.198 C 
HETATM   19  O           1     -24.639  -2.927 -10.755  0.00  0.00    -0.646 OA
HETATM   20  O           1     -24.666  -4.917  -9.901  0.00  0.00    -0.646 OA
ENDBRANCH  14  18
ENDBRANCH   3  14
TORSDOF 8
ENDMDL
MODEL 2
REMARK VINA RESULT:      -5.4      9.991     12.015
REMARK  8 active torsions:
REMARK  status: ('A' for Active; 'I' for Inactive)
REMARK    1  A    between atoms: C_2  and  C_17 
REMARK    2  A    between atoms: C_2  and  C_16 
REMARK    3  A    between atoms: C_2  and  N_9 
REMARK    4  A    between atoms: C_5  and  C_6 
REMARK    5  A    between atoms: C_5  and  C_14 
REMARK    6  A    between atoms: C_5  and  N_19 
REMARK    7  A    between atoms: C_6  and  O_7 
REMARK    8  A    between atoms: O_11  and  C_16 
REMARK       I    between atoms: C_17  and  N_19 
ROOT
HETATM    1  O           1     -27.269  -6.448 -20.029  0.00  0.00    -0.271 OA
HETATM    2  C           1     -26.327  -6.586 -19.286  0.00  0.00     0.251 C 
HETATM    3  N           1     -26.510  -6.538 -17.930  0.00  0.00    -0.343 N 
HETATM    4  H           1     -25.720  -6.654 -17.308  0.00  0.00     0.163 HD
ENDROOT
BRANCH   2   5
HETATM    5  C           1     -24.947  -6.812 -19.853  0.00  0.00     0.302 C 
BRANCH   5   6
HETATM    6  C           1     -25.058  -7.531 -21.191  0.00  0.00     0.153 C 
HETATM    7  C           1     -23.697  -8.096 -21.577  0.00  0.00     0.042 C 
BRANCH   6   8
HETATM    8  O           1     -25.984  -8.577 -21.084  0.00  0.00    -0.393 OA
HETATM    9  H           1     -25.531  -9.369 -21.317  0.00  0.00     0.210 HD
ENDBRANCH   6   8
ENDBRANCH   5   6
BRANCH   5  10
HETATM   10  N           1     -24.146  -7.650 -18.901  0.00  0.00    -0.064 N 
HETATM   11  H           1     -24.631  -8.562 -18.748  0.00  0.00     0.275 HD
HETATM   12  H           1     -23.196  -7.822 -19.301  0.00  0.00     0.275 HD
HETATM   13  H           1     -24.054  -7.147 -17.989  0.00  0.00     0.275 HD
ENDBRANCH   5  10
ENDBRANCH   2   5
BRANCH   3  14
HETATM   14  C           1     -27.836  -6.321 -17.386  0.00  0.00     0.209 C 
BRANCH  14  15
HETATM   15  C           1     -27.919  -6.932 -15.993  0.00  0.00     0.200 C 
BRANCH  15  16
HETATM   16  O           1     -26.666  -7.448 -15.633  0.00  0.00    -0.398 OA
HETATM   17  H           1     -26.748  -7.775 -14.754  0.00  0.00     0.209 HD
ENDBRANCH  15  16
ENDBRANCH  14  15
BRANCH  14  18
HETATM   18  C           1     -28.110  -4.839 -17.302  0.00  0.00     0.198 C 
HETATM   19  O           1     -28.921  -4.307 -18.091  0.00  0.00    -0.646 OA
HETATM   20  O           1     -27.524  -4.144 -16.443  0.00  0.00    -0.646 OA
ENDBRANCH  14  18
ENDBRANCH   3  14
TORSDOF 8
ENDMDL
MODEL 3
REMARK VINA RESULT:      -5.4     10.238     12.142
REMARK  8 active torsions:
REMARK  status: ('A' for Active; 'I' for Inactive)
REMARK    1  A    between atoms: C_2  and  C_17 
REMARK    2  A    between atoms: C_2  and  C_16 
REMARK    3  A    between atoms: C_2  and  N_9 
REMARK    4  A    between atoms: C_5  and  C_6 
REMARK    5  A    between atoms: C_5  and  C_14 
REMARK    6  A    between atoms: C_5  and  N_19 
REMARK    7  A    between atoms: C_6  and  O_7 
REMARK    8  A    between atoms: O_11  and  C_16 
REMARK       I    between atoms: C_17  and  N_19 
ROOT
HETATM    1  O           1     -28.403  -5.169 -19.238  0.00  0.00    -0.271 OA
HETATM    2  C           1     -28.281  -6.224 -18.664  0.00  0.00     0.251 C 
HETATM    3  N           1     -27.395  -7.159 -19.128  0.00  0.00    -0.343 N 
HETATM    4  H           1     -27.293  -8.043 -18.646  0.00  0.00     0.163 HD
ENDROOT
BRANCH   2   5
HETATM    5  C           1     -29.105  -6.512 -17.433  0.00  0.00     0.302 C 
BRANCH   5   6
HETATM    6  C           1     -28.318  -6.121 -16.190  0.00  0.00     0.153 C 
HETATM    7  C           1     -27.879  -7.378 -15.450  0.00  0.00     0.042 C 
BRANCH   6   8
HETATM    8  O           1     -27.187  -5.382 -16.565  0.00  0.00    -0.393 OA
HETATM    9  H           1     -26.700  -5.915 -17.169  0.00  0.00     0.210 HD
ENDBRANCH   6   8
ENDBRANCH   5   6
BRANCH   5  10
HETATM   10  N           1     -29.427  -7.977 -17.379  0.00  0.00    -0.064 N 
HETATM   11  H           1     -30.376  -8.140 -17.785  0.00  0.00     0.275 HD
HETATM   12  H           1     -28.716  -8.511 -17.927  0.00  0.00     0.275 HD
HETATM   13  H           1     -29.414  -8.299 -16.384  0.00  0.00     0.275 HD
ENDBRANCH   5  10
ENDBRANCH   2   5
BRANCH   3  14
HETATM   14  C           1     -26.604  -6.881 -20.311  0.00  0.00     0.209 C 
BRANCH  14  15
HETATM   15  C           1     -25.184  -6.516 -19.896  0.00  0.00     0.200 C 
BRANCH  15  16
HETATM   16  O           1     -25.034  -6.713 -18.516  0.00  0.00    -0.398 OA
HETATM   17  H           1     -25.898  -6.706 -18.144  0.00  0.00     0.209 HD
ENDBRANCH  15  16
ENDBRANCH  14  15
BRANCH  14  18
HETATM   18  C           1     -26.571  -8.106 -21.193  0.00  0.00     0.198 C 
HETATM   19  O           1     -25.498  -8.463 -21.726  0.00  0.00    -0.646 OA
HETATM   20  O           1     -27.617  -8.761 -21.391  0.00  0.00    -0.646 OA
ENDBRANCH  14  18
ENDBRANCH   3  14
TORSDOF 8
ENDMDL
MODEL 4
REMARK VINA RESULT:      -5.4      8.885     11.281
REMARK  8 active torsions:
REMARK  status: ('A' for Active; 'I' for Inactive)
REMARK    1  A    between atoms: C_2  and  C_17 
REMARK    2  A    between atoms: C_2  and  C_16 
REMARK    3  A    between atoms: C_2  and  N_9 
REMARK    4  A    between atoms: C_5  and  C_6 
REMARK    5  A    between atoms: C_5  and  C_14 
REMARK    6  A    between atoms: C_5  and  N_19 
REMARK    7  A    between atoms: C_6  and  O_7 
REMARK    8  A    between atoms: O_11  and  C_16 
REMARK       I    between atoms: C_17  and  N_19 
ROOT
HETATM    1  O           1     -27.492  -4.752 -16.162  0.00  0.00    -0.271 OA
HETATM    2  C           1     -27.896  -5.727 -16.750  0.00  0.00     0.251 C 
HETATM    3  N           1     -27.010  -6.595 -17.328  0.00  0.00    -0.343 N 
HETATM    4  H           1     -27.349  -7.412 -17.820  0.00  0.00     0.163 HD
ENDROOT
BRANCH   2   5
HETATM    5  C           1     -29.379  -5.987 -16.845  0.00  0.00     0.302 C 
BRANCH   5   6
HETATM    6  C           1     -29.964  -5.182 -17.998  0.00  0.00     0.153 C 
HETATM    7  C           1     -30.683  -3.957 -17.448  0.00  0.00     0.042 C 
BRANCH   6   8
HETATM    8  O           1     -28.932  -4.772 -18.854  0.00  0.00    -0.393 OA
HETATM    9  H           1     -29.153  -3.908 -19.155  0.00  0.00     0.210 HD
ENDBRANCH   6   8
ENDBRANCH   5   6
BRANCH   5  10
HETATM   10  N           1     -30.042  -5.577 -15.564  0.00  0.00    -0.064 N 
HETATM   11  H           1     -30.592  -4.702 -15.720  0.00  0.00     0.275 HD
HETATM   12  H           1     -30.682  -6.338 -15.242  0.00  0.00     0.275 HD
HETATM   13  H           1     -29.313  -5.404 -14.835  0.00  0.00     0.275 HD
ENDBRANCH   5  10
ENDBRANCH   2   5
BRANCH   3  14
HETATM   14  C           1     -25.585  -6.344 -17.236  0.00  0.00     0.209 C 
BRANCH  14  15
HETATM   15  C           1     -24.999  -7.162 -16.092  0.00  0.00     0.200 C 
BRANCH  15  16
HETATM   16  O           1     -24.974  -6.385 -14.925  0.00  0.00    -0.398 OA
HETATM   17  H           1     -25.833  -6.436 -14.545  0.00  0.00     0.209 HD
ENDBRANCH  15  16
ENDBRANCH  14  15
BRANCH  14  18
HETATM   18  C           1     -24.919  -6.741 -18.531  0.00  0.00     0.198 C 
HETATM   19  O           1     -23.682  -6.915 -18.570  0.00  0.00    -0.646 OA
HETATM   20  O           1     -25.606  -6.895 -19.564  0.00  0.00    -0.646 OA
ENDBRANCH  14  18
ENDBRANCH   3  14
TORSDOF 8
ENDMDL
MODEL 5
REMARK VINA RESULT:      -5.2     11.598     12.739
REMARK  8 active torsions:
REMARK  status: ('A' for Active; 'I' for Inactive)
REMARK    1  A    between atoms: C_2  and  C_17 
REMARK    2  A    between atoms: C_2  and  C_16 
REMARK    3  A    between atoms: C_2  and  N_9 
REMARK    4  A    between atoms: C_5  and  C_6 
REMARK    5  A    between atoms: C_5  and  C_14 
REMARK    6  A    between atoms: C_5  and  N_19 
REMARK    7  A    between atoms: C_6  and  O_7 
REMARK    8  A    between atoms: O_11  and  C_16 
REMARK       I    between atoms: C_17  and  N_19 
ROOT
HETATM    1  O           1     -28.422  -5.337 -19.332  0.00  0.00    -0.271 OA
HETATM    2  C           1     -28.035  -6.178 -18.557  0.00  0.00     0.251 C 
HETATM    3  N           1     -26.959  -6.962 -18.876  0.00  0.00    -0.343 N 
HETATM    4  H           1     -26.634  -7.666 -18.225  0.00  0.00     0.163 HD
ENDROOT
BRANCH   2   5
HETATM    5  C           1     -28.738  -6.365 -17.235  0.00  0.00     0.302 C 
BRANCH   5   6
HETATM    6  C           1     -29.763  -7.484 -17.357  0.00  0.00     0.153 C 
HETATM    7  C           1     -31.159  -6.884 -17.465  0.00  0.00     0.042 C 
BRANCH   6   8
HETATM    8  O           1     -29.493  -8.244 -18.504  0.00  0.00    -0.393 OA
HETATM    9  H           1     -28.627  -8.600 -18.399  0.00  0.00     0.210 HD
ENDBRANCH   6   8
ENDBRANCH   5   6
BRANCH   5  10
HETATM   10  N           1     -29.433  -5.091 -16.854  0.00  0.00    -0.064 N 
HETATM   11  H           1     -30.457  -5.271 -16.751  0.00  0.00     0.275 HD
HETATM   12  H           1     -29.048  -4.740 -15.949  0.00  0.00     0.275 HD
HETATM   13  H           1     -29.278  -4.375 -17.600  0.00  0.00     0.275 HD
ENDBRANCH   5  10
ENDBRANCH   2   5
BRANCH   3  14
HETATM   14  C           1     -26.283  -6.782 -20.146  0.00  0.00     0.209 C 
BRANCH  14  15
HETATM   15  C           1     -24.787  -6.620 -19.907  0.00  0.00     0.200 C 
BRANCH  15  16
HETATM   16  O           1     -24.320  -7.686 -19.126  0.00  0.00    -0.398 OA
HETATM   17  H           1     -25.047  -8.269 -18.996  0.00  0.00     0.209 HD
ENDBRANCH  15  16
ENDBRANCH  14  15
BRANCH  14  18
HETATM   18  C           1     -26.525  -7.988 -21.020  0.00  0.00     0.198 C 
HETATM   19  O           1     -27.650  -8.533 -21.037  0.00  0.00    -0.646 OA
HETATM   20  O           1     -25.600  -8.443 -21.727  0.00  0.00    -0.646 OA
ENDBRANCH  14  18
ENDBRANCH   3  14
TORSDOF 8
ENDMDL
MODEL 6
REMARK VINA RESULT:      -5.1     10.950     12.554
REMARK  8 active torsions:
REMARK  status: ('A' for Active; 'I' for Inactive)
REMARK    1  A    between atoms: C_2  and  C_17 
REMARK    2  A    between atoms: C_2  and  C_16 
REMARK    3  A    between atoms: C_2  and  N_9 
REMARK    4  A    between atoms: C_5  and  C_6 
REMARK    5  A    between atoms: C_5  and  C_14 
REMARK    6  A    between atoms: C_5  and  N_19 
REMARK    7  A    between atoms: C_6  and  O_7 
REMARK    8  A    between atoms: O_11  and  C_16 
REMARK       I    between atoms: C_17  and  N_19 
ROOT
HETATM    1  O           1     -30.916  -6.585 -17.623  0.00  0.00    -0.271 OA
HETATM    2  C           1     -30.479  -5.940 -16.701  0.00  0.00     0.251 C 
HETATM    3  N           1     -31.237  -4.949 -16.136  0.00  0.00    -0.343 N 
HETATM    4  H           1     -30.870  -4.409 -15.363  0.00  0.00     0.163 HD
ENDROOT
BRANCH   2   5
HETATM    5  C           1     -29.096  -6.227 -16.169  0.00  0.00     0.302 C 
BRANCH   5   6
HETATM    6  C           1     -28.118  -5.194 -16.712  0.00  0.00     0.153 C 
HETATM    7  C           1     -26.906  -5.904 -17.302  0.00  0.00     0.042 C 
BRANCH   6   8
HETATM    8  O           1     -28.745  -4.435 -17.711  0.00  0.00    -0.393 OA
HETATM    9  H           1     -28.213  -3.670 -17.848  0.00  0.00     0.210 HD
ENDBRANCH   6   8
ENDBRANCH   5   6
BRANCH   5  10
HETATM   10  N           1     -28.668  -7.597 -16.605  0.00  0.00    -0.064 N 
HETATM   11  H           1     -28.584  -8.218 -15.769  0.00  0.00     0.275 HD
HETATM   12  H           1     -29.378  -7.992 -17.263  0.00  0.00     0.275 HD
HETATM   13  H           1     -27.743  -7.535 -17.087  0.00  0.00     0.275 HD
ENDBRANCH   5  10
ENDBRANCH   2   5
BRANCH   3  14
HETATM   14  C           1     -32.566  -4.674 -16.648  0.00  0.00     0.209 C 
BRANCH  14  15
HETATM   15  C           1     -33.543  -4.560 -15.484  0.00  0.00     0.200 C 
BRANCH  15  16
HETATM   16  O           1     -34.791  -5.068 -15.870  0.00  0.00    -0.398 OA
HETATM   17  H           1     -34.834  -5.954 -15.556  0.00  0.00     0.209 HD
ENDBRANCH  15  16
ENDBRANCH  14  15
BRANCH  14  18
HETATM   18  C           1     -32.549  -3.377 -17.420  0.00  0.00     0.198 C 
HETATM   19  O           1     -33.590  -2.692 -17.512  0.00  0.00    -0.646 OA
HETATM   20  O           1     -31.494  -2.990 -17.967  0.00  0.00    -0.646 OA
ENDBRANCH  14  18
ENDBRANCH   3  14
TORSDOF 8
ENDMDL
MODEL 7
REMARK VINA RESULT:      -4.9      1.916      5.355
REMARK  8 active torsions:
REMARK  status: ('A' for Active; 'I' for Inactive)
REMARK    1  A    between atoms: C_2  and  C_17 
REMARK    2  A    between atoms: C_2  and  C_16 
REMARK    3  A    between atoms: C_2  and  N_9 
REMARK    4  A    between atoms: C_5  and  C_6 
REMARK    5  A    between atoms: C_5  and  C_14 
REMARK    6  A    between atoms: C_5  and  N_19 
REMARK    7  A    between atoms: C_6  and  O_7 
REMARK    8  A    between atoms: O_11  and  C_16 
REMARK       I    between atoms: C_17  and  N_19 
ROOT
HETATM    1  O           1     -19.931  -4.856 -10.093  0.00  0.00    -0.271 OA
HETATM    2  C           1     -21.020  -4.493  -9.720  0.00  0.00     0.251 C 
HETATM    3  N           1     -21.437  -4.772  -8.446  0.00  0.00    -0.343 N 
HETATM    4  H           1     -22.349  -4.467  -8.133  0.00  0.00     0.163 HD
ENDROOT
BRANCH   2   5
HETATM    5  C           1     -21.923  -3.730 -10.658  0.00  0.00     0.302 C 
BRANCH   5   6
HETATM    6  C           1     -23.210  -4.513 -10.875  0.00  0.00     0.153 C 
HETATM    7  C           1     -24.389  -3.709 -10.343  0.00  0.00     0.042 C 
BRANCH   6   8
HETATM    8  O           1     -23.388  -4.752 -12.245  0.00  0.00    -0.393 OA
HETATM    9  H           1     -24.179  -4.308 -12.499  0.00  0.00     0.210 HD
ENDBRANCH   6   8
ENDBRANCH   5   6
BRANCH   5  10
HETATM   10  N           1     -21.228  -3.538 -11.974  0.00  0.00    -0.064 N 
HETATM   11  H           1     -21.753  -4.045 -12.722  0.00  0.00     0.275 HD
HETATM   12  H           1     -21.189  -2.520 -12.203  0.00  0.00     0.275 HD
HETATM   13  H           1     -20.256  -3.919 -11.912  0.00  0.00     0.275 HD
ENDBRANCH   5  10
ENDBRANCH   2   5
BRANCH   3  14
HETATM   14  C           1     -20.569  -5.505  -7.545  0.00  0.00     0.209 C 
BRANCH  14  15
HETATM   15  C           1     -19.603  -4.538  -6.872  0.00  0.00     0.200 C 
BRANCH  15  16
HETATM   16  O           1     -19.767  -4.603  -5.482  0.00  0.00    -0.398 OA
HETATM   17  H           1     -18.981  -4.986  -5.132  0.00  0.00     0.209 HD
ENDBRANCH  15  16
ENDBRANCH  14  15
BRANCH  14  18
HETATM   18  C           1     -21.403  -6.196  -6.494  0.00  0.00     0.198 C 
HETATM   19  O           1     -21.170  -7.387  -6.194  0.00  0.00    -0.646 OA
HETATM   20  O           1     -22.326  -5.576  -5.923  0.00  0.00    -0.646 OA
ENDBRANCH  14  18
ENDBRANCH   3  14
TORSDOF 8
ENDMDL
MODEL 8
REMARK VINA RESULT:      -4.9     18.239     19.928
REMARK  8 active torsions:
REMARK  status: ('A' for Active; 'I' for Inactive)
REMARK    1  A    between atoms: C_2  and  C_17 
REMARK    2  A    between atoms: C_2  and  C_16 
REMARK    3  A    between atoms: C_2  and  N_9 
REMARK    4  A    between atoms: C_5  and  C_6 
REMARK    5  A    between atoms: C_5  and  C_14 
REMARK    6  A    between atoms: C_5  and  N_19 
REMARK    7  A    between atoms: C_6  and  O_7 
REMARK    8  A    between atoms: O_11  and  C_16 
REMARK       I    between atoms: C_17  and  N_19 
ROOT
HETATM    1  O           1     -13.254   7.053 -21.536  0.00  0.00    -0.271 OA
HETATM    2  C           1     -12.783   6.363 -20.664  0.00  0.00     0.251 C 
HETATM    3  N           1     -11.665   6.777 -19.991  0.00  0.00    -0.343 N 
HETATM    4  H           1     -11.271   6.199 -19.260  0.00  0.00     0.163 HD
ENDROOT
BRANCH   2   5
HETATM    5  C           1     -13.427   5.044 -20.315  0.00  0.00     0.302 C 
BRANCH   5   6
HETATM    6  C           1     -12.526   3.902 -20.766  0.00  0.00     0.153 C 
HETATM    7  C           1     -13.371   2.814 -21.414  0.00  0.00     0.042 C 
BRANCH   6   8
HETATM    8  O           1     -11.592   4.382 -21.695  0.00  0.00    -0.393 OA
HETATM    9  H           1     -10.760   4.412 -21.256  0.00  0.00     0.210 HD
ENDBRANCH   6   8
ENDBRANCH   5   6
BRANCH   5  10
HETATM   10  N           1     -14.753   4.937 -21.010  0.00  0.00    -0.064 N 
HETATM   11  H           1     -15.053   5.883 -21.336  0.00  0.00     0.275 HD
HETATM   12  H           1     -14.666   4.296 -21.831  0.00  0.00     0.275 HD
HETATM   13  H           1     -15.464   4.556 -20.345  0.00  0.00     0.275 HD
ENDBRANCH   5  10
ENDBRANCH   2   5
BRANCH   3  14
HETATM   14  C           1     -11.046   8.045 -20.326  0.00  0.00     0.209 C 
BRANCH  14  15
HETATM   15  C           1     -11.172   8.998 -19.144  0.00  0.00     0.200 C 
BRANCH  15  16
HETATM   16  O           1     -10.144   8.744 -18.226  0.00  0.00    -0.398 OA
HETATM   17  H           1      -9.451   9.352 -18.416  0.00  0.00     0.209 HD
ENDBRANCH  15  16
ENDBRANCH  14  15
BRANCH  14  18
HETATM   18  C           1      -9.587   7.825 -20.642  0.00  0.00     0.198 C 
HETATM   19  O           1      -8.898   8.763 -21.097  0.00  0.00    -0.646 OA
HETATM   20  O           1      -9.068   6.704 -20.448  0.00  0.00    -0.646 OA
ENDBRANCH  14  18
ENDBRANCH   3  14
TORSDOF 8
ENDMDL
MODEL 9
REMARK VINA RESULT:      -4.7     18.181     19.395
REMARK  8 active torsions:
REMARK  status: ('A' for Active; 'I' for Inactive)
REMARK    1  A    between atoms: C_2  and  C_17 
REMARK    2  A    between atoms: C_2  and  C_16 
REMARK    3  A    between atoms: C_2  and  N_9 
REMARK    4  A    between atoms: C_5  and  C_6 
REMARK    5  A    between atoms: C_5  and  C_14 
REMARK    6  A    between atoms: C_5  and  N_19 
REMARK    7  A    between atoms: C_6  and  O_7 
REMARK    8  A    between atoms: O_11  and  C_16 
REMARK       I    between atoms: C_17  and  N_19 
ROOT
HETATM    1  O           1     -11.772   5.800 -19.089  0.00  0.00    -0.271 OA
HETATM    2  C           1     -12.005   6.395 -20.114  0.00  0.00     0.251 C 
HETATM    3  N           1     -12.590   5.746 -21.167  0.00  0.00    -0.343 N 
HETATM    4  H           1     -12.786   6.246 -22.025  0.00  0.00     0.163 HD
ENDROOT
BRANCH   2   5
HETATM    5  C           1     -11.650   7.857 -20.232  0.00  0.00     0.302 C 
BRANCH   5   6
HETATM    6  C           1     -10.227   8.078 -19.738  0.00  0.00     0.153 C 
HETATM    7  C           1      -9.580   9.200 -20.538  0.00  0.00     0.042 C 
BRANCH   6   8
HETATM    8  O           1     -10.251   8.427 -18.380  0.00  0.00    -0.393 OA
HETATM    9  H           1      -9.864   9.282 -18.311  0.00  0.00     0.210 HD
ENDBRANCH   6   8
ENDBRANCH   5   6
BRANCH   5  10
HETATM   10  N           1     -12.598   8.670 -19.401  0.00  0.00    -0.064 N 
HETATM   11  H           1     -12.981   8.078 -18.630  0.00  0.00     0.275 HD
HETATM   12  H           1     -12.092   9.489 -18.994  0.00  0.00     0.275 HD
HETATM   13  H           1     -13.383   9.011 -20.002  0.00  0.00     0.275 HD
ENDBRANCH   5  10
ENDBRANCH   2   5
BRANCH   3  14
HETATM   14  C           1     -12.931   4.341 -21.052  0.00  0.00     0.209 C 
BRANCH  14  15
HETATM   15  C           1     -14.128   4.035 -21.942  0.00  0.00     0.200 C 
BRANCH  15  16
HETATM   16  O           1     -13.964   2.773 -22.531  0.00  0.00    -0.398 OA
HETATM   17  H           1     -13.038   2.626 -22.607  0.00  0.00     0.209 HD
ENDBRANCH  15  16
ENDBRANCH  14  15
BRANCH  14  18
HETATM   18  C           1     -11.754   3.501 -21.485  0.00  0.00     0.198 C 
HETATM   19  O           1     -11.109   3.811 -22.510  0.00  0.00    -0.646 OA
HETATM   20  O           1     -11.425   2.496 -20.819  0.00  0.00    -0.646 OA
ENDBRANCH  14  18
ENDBRANCH   3  14
TORSDOF 8
ENDMDL
