MODEL 1
REMARK VINA RESULT:      -6.3      0.000      0.000
REMARK  10 active torsions:
REMARK  status: ('A' for Active; 'I' for Inactive)
REMARK    1  A    between atoms: C_1  and  C_8 
REMARK    2  A    between atoms: C_1  and  C_13 
REMARK    3  A    between atoms: N_3  and  C_8 
REMARK    4  A    between atoms: C_6  and  C_12 
REMARK    5  A    between atoms: N_7  and  C_12 
REMARK       I    between atoms: N_7  and  C_9 
REMARK    6  A    between atoms: C_8  and  C_9 
REMARK    7  A    between atoms: C_10  and  N_20 
REMARK    8  A    between atoms: C_10  and  C_14 
REMARK    9  A    between atoms: C_11  and  C_14 
REMARK   10  A    between atoms: C_11  and  C_12 
ROOT
HETATM    1  N           1     -26.845  -6.148 -17.792  0.00  0.00    -0.345 N 
HETATM    2  C           1     -25.550  -6.529 -18.014  0.00  0.00     0.249 C 
HETATM    3  O           1     -24.801  -6.699 -17.081  0.00  0.00    -0.271 OA
HETATM    4  H           1     -27.472  -6.006 -18.574  0.00  0.00     0.163 HD
ENDROOT
BRANCH   1   5
HETATM    5  C           1     -27.319  -5.947 -16.436  0.00  0.00     0.185 C 
BRANCH   5   6
HETATM    6  C           1     -28.073  -7.173 -15.981  0.00  0.00     0.196 C 
HETATM    7  O           1     -27.746  -7.750 -14.921  0.00  0.00    -0.646 OA
HETATM    8  O           1     -29.024  -7.610 -16.663  0.00  0.00    -0.646 OA
ENDBRANCH   5   6
BRANCH   5   9
HETATM    9  C           1     -28.243  -4.737 -16.396  0.00  0.00     0.038 C 
BRANCH   9  10
HETATM   10  C           1     -28.767  -4.450 -17.798  0.00  0.00     0.030 C 
BRANCH  10  11
HETATM   11  C           1     -30.284  -4.322 -17.756  0.00  0.00     0.230 C 
BRANCH  11  12
HETATM   12  N           1     -30.662  -2.874 -17.651  0.00  0.00    -0.079 N 
HETATM   13  H           1     -31.599  -2.791 -17.196  0.00  0.00     0.274 HD
HETATM   14  H           1     -30.699  -2.454 -18.607  0.00  0.00     0.274 HD
HETATM   15  H           1     -29.950  -2.369 -17.076  0.00  0.00     0.274 HD
ENDBRANCH  11  12
ENDBRANCH  10  11
ENDBRANCH   9  10
ENDBRANCH   5   9
ENDBRANCH   1   5
BRANCH   2  16
HETATM   16  C           1     -25.056  -6.739 -19.424  0.00  0.00     0.284 C 
BRANCH  16  17
HETATM   17  C           1     -26.244  -6.841 -20.370  0.00  0.00     0.155 C 
BRANCH  17  18
HETATM   18  C           1     -26.008  -7.959 -21.357  0.00  0.00     0.175 C 
HETATM   19  O           1     -24.987  -7.950 -22.078  0.00  0.00    -0.648 OA
HETATM   20  O           1     -26.833  -8.893 -21.454  0.00  0.00    -0.648 OA
ENDBRANCH  17  18
ENDBRANCH  16  17
BRANCH  16  21
HETATM   21  N           1     -24.255  -8.006 -19.490  0.00  0.00    -0.066 N 
HETATM   22  H           1     -23.987  -8.300 -18.524  0.00  0.00     0.275 HD
HETATM   23  H           1     -24.829  -8.757 -19.936  0.00  0.00     0.275 HD
HETATM   24  H           1     -23.392  -7.842 -20.056  0.00  0.00     0.275 HD
ENDBRANCH  16  21
ENDBRANCH   2  16
TORSDOF 10
ENDMDL
MODEL 2
REMARK VINA RESULT:      -6.3      1.531      1.996
REMARK  10 active torsions:
REMARK  status: ('A' for Active; 'I' for Inactive)
REMARK    1  A    between atoms: C_1  and  C_8 
REMARK    2  A    between atoms: C_1  and  C_13 
REMARK    3  A    between atoms: N_3  and  C_8 
REMARK    4  A    between atoms: C_6  and  C_12 
REMARK    5  A    between atoms: N_7  and  C_12 
REMARK       I    between atoms: N_7  and  C_9 
REMARK    6  A    between atoms: C_8  and  C_9 
REMARK    7  A    between atoms: C_10  and  N_20 
REMARK    8  A    between atoms: C_10  and  C_14 
REMARK    9  A    between atoms: C_11  and  C_14 
REMARK   10  A    between atoms: C_11  and  C_12 
ROOT
HETATM    1  N           1     -27.547  -6.674 -19.039  0.00  0.00    -0.345 N 
HETATM    2  C           1     -26.297  -6.420 -18.542  0.00  0.00     0.249 C 
HETATM    3  O           1     -26.160  -6.104 -17.384  0.00  0.00    -0.271 OA
HETATM    4  H           1     -27.662  -6.939 -20.009  0.00  0.00     0.163 HD
ENDROOT
BRANCH   1   5
HETATM    5  C           1     -28.706  -6.561 -18.176  0.00  0.00     0.185 C 
BRANCH   5   6
HETATM    6  C           1     -29.656  -7.700 -18.460  0.00  0.00     0.196 C 
HETATM    7  O           1     -29.393  -8.522 -19.364  0.00  0.00    -0.646 OA
HETATM    8  O           1     -30.704  -7.821 -17.789  0.00  0.00    -0.646 OA
ENDBRANCH   5   6
BRANCH   5   9
HETATM    9  C           1     -29.408  -5.236 -18.440  0.00  0.00     0.038 C 
BRANCH   9  10
HETATM   10  C           1     -29.726  -4.556 -17.115  0.00  0.00     0.030 C 
BRANCH  10  11
HETATM   11  C           1     -31.236  -4.411 -16.967  0.00  0.00     0.230 C 
BRANCH  11  12
HETATM   12  N           1     -31.680  -3.124 -17.597  0.00  0.00    -0.079 N 
HETATM   13  H           1     -31.942  -2.443 -16.849  0.00  0.00     0.274 HD
HETATM   14  H           1     -32.506  -3.304 -18.210  0.00  0.00     0.274 HD
HETATM   15  H           1     -30.900  -2.730 -18.169  0.00  0.00     0.274 HD
ENDBRANCH  11  12
ENDBRANCH  10  11
ENDBRANCH   9  10
ENDBRANCH   5   9
ENDBRANCH   1   5
BRANCH   2  16
HETATM   16  C           1     -25.090  -6.537 -19.440  0.00  0.00     0.284 C 
BRANCH  16  17
HETATM   17  C           1     -25.532  -6.498 -20.896  0.00  0.00     0.155 C 
BRANCH  17  18
HETATM   18  C           1     -25.475  -7.890 -21.478  0.00  0.00     0.175 C 
HETATM   19  O           1     -26.448  -8.663 -21.344  0.00  0.00    -0.648 OA
HETATM   20  O           1     -24.456  -8.269 -22.094  0.00  0.00    -0.648 OA
ENDBRANCH  17  18
ENDBRANCH  16  17
BRANCH  16  21
HETATM   21  N           1     -24.388  -7.835 -19.166  0.00  0.00    -0.066 N 
HETATM   22  H           1     -24.284  -7.965 -18.135  0.00  0.00     0.275 HD
HETATM   23  H           1     -24.949  -8.623 -19.562  0.00  0.00     0.275 HD
HETATM   24  H           1     -23.443  -7.819 -19.612  0.00  0.00     0.275 HD
ENDBRANCH  16  21
ENDBRANCH   2  16
TORSDOF 10
ENDMDL
MODEL 3
REMARK VINA RESULT:      -5.9      1.877      5.573
REMARK  10 active torsions:
REMARK  status: ('A' for Active; 'I' for Inactive)
REMARK    1  A    between atoms: C_1  and  C_8 
REMARK    2  A    between atoms: C_1  and  C_13 
REMARK    3  A    between atoms: N_3  and  C_8 
REMARK    4  A    between atoms: C_6  and  C_12 
REMARK    5  A    between atoms: N_7  and  C_12 
REMARK       I    between atoms: N_7  and  C_9 
REMARK    6  A    between atoms: C_8  and  C_9 
REMARK    7  A    between atoms: C_10  and  N_20 
REMARK    8  A    between atoms: C_10  and  C_14 
REMARK    9  A    between atoms: C_11  and  C_14 
REMARK   10  A    between atoms: C_11  and  C_12 
ROOT
HETATM    1  N           1     -27.299  -6.764 -18.830  0.00  0.00    -0.345 N 
HETATM    2  C           1     -28.141  -5.871 -18.225  0.00  0.00     0.249 C 
HETATM    3  O           1     -28.846  -5.155 -18.896  0.00  0.00    -0.271 OA
HETATM    4  H           1     -26.709  -7.363 -18.268  0.00  0.00     0.163 HD
ENDROOT
BRANCH   1   5
HETATM    5  C           1     -27.253  -6.851 -20.276  0.00  0.00     0.185 C 
BRANCH   5   6
HETATM    6  C           1     -27.711  -8.222 -20.712  0.00  0.00     0.196 C 
HETATM    7  O           1     -27.060  -8.855 -21.572  0.00  0.00    -0.646 OA
HETATM    8  O           1     -28.740  -8.725 -20.211  0.00  0.00    -0.646 OA
ENDBRANCH   5   6
BRANCH   5   9
HETATM    9  C           1     -25.826  -6.616 -20.753  0.00  0.00     0.038 C 
BRANCH   9  10
HETATM   10  C           1     -24.854  -6.918 -19.620  0.00  0.00     0.030 C 
BRANCH  10  11
HETATM   11  C           1     -23.754  -7.842 -20.127  0.00  0.00     0.230 C 
BRANCH  11  12
HETATM   12  N           1     -24.139  -8.390 -21.469  0.00  0.00    -0.079 N 
HETATM   13  H           1     -23.365  -8.217 -22.150  0.00  0.00     0.274 HD
HETATM   14  H           1     -25.009  -7.915 -21.801  0.00  0.00     0.274 HD
HETATM   15  H           1     -24.311  -9.417 -21.390  0.00  0.00     0.274 HD
ENDBRANCH  11  12
ENDBRANCH  10  11
ENDBRANCH   9  10
ENDBRANCH   5   9
ENDBRANCH   1   5
BRANCH   2  16
HETATM   16  C           1     -28.190  -5.779 -16.720  0.00  0.00     0.284 C 
BRANCH  16  17
HETATM   17  C           1     -27.503  -6.995 -16.113  0.00  0.00     0.155 C 
BRANCH  17  18
HETATM   18  C           1     -26.051  -6.677 -15.853  0.00  0.00     0.175 C 
HETATM   19  O           1     -25.560  -5.609 -16.277  0.00  0.00    -0.648 OA
HETATM   20  O           1     -25.340  -7.480 -15.211  0.00  0.00    -0.648 OA
ENDBRANCH  17  18
ENDBRANCH  16  17
BRANCH  16  21
HETATM   21  N           1     -29.620  -5.736 -16.268  0.00  0.00    -0.066 N 
HETATM   22  H           1     -30.239  -5.538 -17.086  0.00  0.00     0.275 HD
HETATM   23  H           1     -29.880  -6.659 -15.850  0.00  0.00     0.275 HD
HETATM   24  H           1     -29.736  -4.983 -15.553  0.00  0.00     0.275 HD
ENDBRANCH  16  21
ENDBRANCH   2  16
TORSDOF 10
ENDMDL
MODEL 4
REMARK VINA RESULT:      -5.8      2.426      5.465
REMARK  10 active torsions:
REMARK  status: ('A' for Active; 'I' for Inactive)
REMARK    1  A    between atoms: C_1  and  C_8 
REMARK    2  A    between atoms: C_1  and  C_13 
REMARK    3  A    between atoms: N_3  and  C_8 
REMARK    4  A    between atoms: C_6  and  C_12 
REMARK    5  A    between atoms: N_7  and  C_12 
REMARK       I    between atoms: N_7  and  C_9 
REMARK    6  A    between atoms: C_8  and  C_9 
REMARK    7  A    between atoms: C_10  and  N_20 
REMARK    8  A    between atoms: C_10  and  C_14 
REMARK    9  A    between atoms: C_11  and  C_14 
REMARK   10  A    between atoms: C_11  and  C_12 
ROOT
HETATM    1  N           1     -27.395  -6.183 -17.732  0.00  0.00    -0.345 N 
HETATM    2  C           1     -28.616  -6.613 -17.289  0.00  0.00     0.249 C 
HETATM    3  O           1     -28.712  -7.672 -16.716  0.00  0.00    -0.271 OA
HETATM    4  H           1     -27.314  -5.296 -18.213  0.00  0.00     0.163 HD
ENDROOT
BRANCH   1   5
HETATM    5  C           1     -26.216  -6.999 -17.514  0.00  0.00     0.185 C 
BRANCH   5   6
HETATM    6  C           1     -25.617  -6.666 -16.169  0.00  0.00     0.196 C 
HETATM    7  O           1     -25.649  -7.507 -15.245  0.00  0.00    -0.646 OA
HETATM    8  O           1     -25.087  -5.549 -15.981  0.00  0.00    -0.646 OA
ENDBRANCH   5   6
BRANCH   5   9
HETATM    9  C           1     -25.196  -6.720 -18.609  0.00  0.00     0.038 C 
BRANCH   9  10
HETATM   10  C           1     -25.881  -6.771 -19.968  0.00  0.00     0.030 C 
BRANCH  10  11
HETATM   11  C           1     -24.994  -7.519 -20.956  0.00  0.00     0.230 C 
BRANCH  11  12
HETATM   12  N           1     -23.810  -8.089 -20.234  0.00  0.00    -0.079 N 
HETATM   13  H           1     -23.698  -9.096 -20.490  0.00  0.00     0.274 HD
HETATM   14  H           1     -23.959  -8.005 -19.203  0.00  0.00     0.274 HD
HETATM   15  H           1     -22.950  -7.562 -20.506  0.00  0.00     0.274 HD
ENDBRANCH  11  12
ENDBRANCH  10  11
ENDBRANCH   9  10
ENDBRANCH   5   9
ENDBRANCH   1   5
BRANCH   2  16
HETATM   16  C           1     -29.843  -5.764 -17.516  0.00  0.00     0.284 C 
BRANCH  16  17
HETATM   17  C           1     -29.463  -4.524 -18.315  0.00  0.00     0.155 C 
BRANCH  17  18
HETATM   18  C           1     -29.234  -3.368 -17.372  0.00  0.00     0.175 C 
HETATM   19  O           1     -28.171  -3.296 -16.718  0.00  0.00    -0.648 OA
HETATM   20  O           1     -30.106  -2.481 -17.245  0.00  0.00    -0.648 OA
ENDBRANCH  17  18
ENDBRANCH  16  17
BRANCH  16  21
HETATM   21  N           1     -30.415  -5.349 -16.193  0.00  0.00    -0.066 N 
HETATM   22  H           1     -30.396  -4.308 -16.114  0.00  0.00     0.275 HD
HETATM   23  H           1     -31.402  -5.686 -16.121  0.00  0.00     0.275 HD
HETATM   24  H           1     -29.846  -5.767 -15.422  0.00  0.00     0.275 HD
ENDBRANCH  16  21
ENDBRANCH   2  16
TORSDOF 10
ENDMDL
MODEL 5
REMARK VINA RESULT:      -5.6     10.786     12.689
REMARK  10 active torsions:
REMARK  status: ('A' for Active; 'I' for Inactive)
REMARK    1  A    between atoms: C_1  and  C_8 
REMARK    2  A    between atoms: C_1  and  C_13 
REMARK    3  A    between atoms: N_3  and  C_8 
REMARK    4  A    between atoms: C_6  and  C_12 
REMARK    5  A    between atoms: N_7  and  C_12 
REMARK       I    between atoms: N_7  and  C_9 
REMARK    6  A    between atoms: C_8  and  C_9 
REMARK    7  A    between atoms: C_10  and  N_20 
REMARK    8  A    between atoms: C_10  and  C_14 
REMARK    9  A    between atoms: C_11  and  C_14 
REMARK   10  A    between atoms: C_11  and  C_12 
ROOT
HETATM    1  N           1     -22.025  -5.166  -6.856  0.00  0.00    -0.345 N 
HETATM    2  C           1     -22.458  -4.204  -7.727  0.00  0.00     0.249 C 
HETATM    3  O           1     -21.845  -3.169  -7.839  0.00  0.00    -0.271 OA
HETATM    4  H           1     -22.539  -6.033  -6.763  0.00  0.00     0.163 HD
ENDROOT
BRANCH   1   5
HETATM    5  C           1     -20.830  -4.943  -6.066  0.00  0.00     0.185 C 
BRANCH   5   6
HETATM    6  C           1     -19.623  -5.423  -6.835  0.00  0.00     0.196 C 
HETATM    7  O           1     -18.788  -4.597  -7.265  0.00  0.00    -0.646 OA
HETATM    8  O           1     -19.458  -6.644  -7.040  0.00  0.00    -0.646 OA
ENDBRANCH   5   6
BRANCH   5   9
HETATM    9  C           1     -20.937  -5.712  -4.756  0.00  0.00     0.038 C 
BRANCH   9  10
HETATM   10  C           1     -22.147  -6.636  -4.805  0.00  0.00     0.030 C 
BRANCH  10  11
HETATM   11  C           1     -21.703  -8.069  -4.541  0.00  0.00     0.230 C 
BRANCH  11  12
HETATM   12  N           1     -21.097  -8.643  -5.788  0.00  0.00    -0.079 N 
HETATM   13  H           1     -20.177  -8.183  -5.971  0.00  0.00     0.274 HD
HETATM   14  H           1     -21.738  -8.475  -6.595  0.00  0.00     0.274 HD
HETATM   15  H           1     -20.955  -9.671  -5.664  0.00  0.00     0.274 HD
ENDBRANCH  11  12
ENDBRANCH  10  11
ENDBRANCH   9  10
ENDBRANCH   5   9
ENDBRANCH   1   5
BRANCH   2  16
HETATM   16  C           1     -23.702  -4.435  -8.550  0.00  0.00     0.284 C 
BRANCH  16  17
HETATM   17  C           1     -23.328  -5.121  -9.857  0.00  0.00     0.155 C 
BRANCH  17  18
HETATM   18  C           1     -23.491  -4.150 -11.000  0.00  0.00     0.175 C 
HETATM   19  O           1     -24.586  -4.063 -11.595  0.00  0.00    -0.648 OA
HETATM   20  O           1     -22.530  -3.431 -11.352  0.00  0.00    -0.648 OA
ENDBRANCH  17  18
ENDBRANCH  16  17
BRANCH  16  21
HETATM   21  N           1     -24.357  -3.119  -8.847  0.00  0.00    -0.066 N 
HETATM   22  H           1     -23.671  -2.345  -8.694  0.00  0.00     0.275 HD
HETATM   23  H           1     -24.678  -3.107  -9.842  0.00  0.00     0.275 HD
HETATM   24  H           1     -25.177  -2.987  -8.213  0.00  0.00     0.275 HD
ENDBRANCH  16  21
ENDBRANCH   2  16
TORSDOF 10
ENDMDL
MODEL 6
REMARK VINA RESULT:      -5.6     11.685     13.403
REMARK  10 active torsions:
REMARK  status: ('A' for Active; 'I' for Inactive)
REMARK    1  A    between atoms: C_1  and  C_8 
REMARK    2  A    between atoms: C_1  and  C_13 
REMARK    3  A    between atoms: N_3  and  C_8 
REMARK    4  A    between atoms: C_6  and  C_12 
REMARK    5  A    between atoms: N_7  and  C_12 
REMARK       I    between atoms: N_7  and  C_9 
REMARK    6  A    between atoms: C_8  and  C_9 
REMARK    7  A    between atoms: C_10  and  N_20 
REMARK    8  A    between atoms: C_10  and  C_14 
REMARK    9  A    between atoms: C_11  and  C_14 
REMARK   10  A    between atoms: C_11  and  C_12 
ROOT
HETATM    1  N           1     -21.945  -5.296  -6.590  0.00  0.00    -0.345 N 
HETATM    2  C           1     -21.335  -4.327  -7.340  0.00  0.00     0.249 C 
HETATM    3  O           1     -20.189  -4.020  -7.115  0.00  0.00    -0.271 OA
HETATM    4  H           1     -22.905  -5.553  -6.778  0.00  0.00     0.163 HD
ENDROOT
BRANCH   1   5
HETATM    5  C           1     -21.214  -5.954  -5.524  0.00  0.00     0.185 C 
BRANCH   5   6
HETATM    6  C           1     -20.598  -7.227  -6.049  0.00  0.00     0.196 C 
HETATM    7  O           1     -19.415  -7.228  -6.455  0.00  0.00    -0.646 OA
HETATM    8  O           1     -21.269  -8.281  -6.077  0.00  0.00    -0.646 OA
ENDBRANCH   5   6
BRANCH   5   9
HETATM    9  C           1     -22.167  -6.283  -4.383  0.00  0.00     0.038 C 
BRANCH   9  10
HETATM   10  C           1     -21.374  -6.483  -3.098  0.00  0.00     0.030 C 
BRANCH  10  11
HETATM   11  C           1     -22.267  -6.191  -1.899  0.00  0.00     0.230 C 
BRANCH  11  12
HETATM   12  N           1     -22.077  -7.258  -0.862  0.00  0.00    -0.079 N 
HETATM   13  H           1     -22.963  -7.378  -0.320  0.00  0.00     0.274 HD
HETATM   14  H           1     -21.307  -6.978  -0.214  0.00  0.00     0.274 HD
HETATM   15  H           1     -21.830  -8.158  -1.330  0.00  0.00     0.274 HD
ENDBRANCH  11  12
ENDBRANCH  10  11
ENDBRANCH   9  10
ENDBRANCH   5   9
ENDBRANCH   1   5
BRANCH   2  16
HETATM   16  C           1     -22.095  -3.642  -8.449  0.00  0.00     0.284 C 
BRANCH  16  17
HETATM   17  C           1     -23.519  -4.178  -8.497  0.00  0.00     0.155 C 
BRANCH  17  18
HETATM   18  C           1     -24.017  -4.162  -9.922  0.00  0.00     0.175 C 
HETATM   19  O           1     -24.442  -3.099 -10.424  0.00  0.00    -0.648 OA
HETATM   20  O           1     -24.002  -5.211 -10.601  0.00  0.00    -0.648 OA
ENDBRANCH  17  18
ENDBRANCH  16  17
BRANCH  16  21
HETATM   21  N           1     -21.417  -3.912  -9.760  0.00  0.00    -0.066 N 
HETATM   22  H           1     -20.432  -3.566  -9.721  0.00  0.00     0.275 HD
HETATM   23  H           1     -21.417  -4.941  -9.946  0.00  0.00     0.275 HD
HETATM   24  H           1     -21.929  -3.418 -10.525  0.00  0.00     0.275 HD
ENDBRANCH  16  21
ENDBRANCH   2  16
TORSDOF 10
ENDMDL
MODEL 7
REMARK VINA RESULT:      -5.4     11.083     12.911
REMARK  10 active torsions:
REMARK  status: ('A' for Active; 'I' for Inactive)
REMARK    1  A    between atoms: C_1  and  C_8 
REMARK    2  A    between atoms: C_1  and  C_13 
REMARK    3  A    between atoms: N_3  and  C_8 
REMARK    4  A    between atoms: C_6  and  C_12 
REMARK    5  A    between atoms: N_7  and  C_12 
REMARK       I    between atoms: N_7  and  C_9 
REMARK    6  A    between atoms: C_8  and  C_9 
REMARK    7  A    between atoms: C_10  and  N_20 
REMARK    8  A    between atoms: C_10  and  C_14 
REMARK    9  A    between atoms: C_11  and  C_14 
REMARK   10  A    between atoms: C_11  and  C_12 
ROOT
HETATM    1  N           1     -21.713  -5.311  -7.555  0.00  0.00    -0.345 N 
HETATM    2  C           1     -21.905  -3.986  -7.839  0.00  0.00     0.249 C 
HETATM    3  O           1     -21.471  -3.139  -7.095  0.00  0.00    -0.271 OA
HETATM    4  H           1     -22.077  -6.020  -8.179  0.00  0.00     0.163 HD
ENDROOT
BRANCH   1   5
HETATM    5  C           1     -20.989  -5.699  -6.360  0.00  0.00     0.185 C 
BRANCH   5   6
HETATM    6  C           1     -19.556  -6.007  -6.719  0.00  0.00     0.196 C 
HETATM    7  O           1     -19.149  -7.189  -6.706  0.00  0.00    -0.646 OA
HETATM    8  O           1     -18.776  -5.081  -7.031  0.00  0.00    -0.646 OA
ENDBRANCH   5   6
BRANCH   5   9
HETATM    9  C           1     -21.638  -6.934  -5.752  0.00  0.00     0.038 C 
BRANCH   9  10
HETATM   10  C           1     -22.471  -6.528  -4.542  0.00  0.00     0.030 C 
BRANCH  10  11
HETATM   11  C           1     -21.569  -6.418  -3.319  0.00  0.00     0.230 C 
BRANCH  11  12
HETATM   12  N           1     -22.346  -5.838  -2.175  0.00  0.00    -0.079 N 
HETATM   13  H           1     -22.102  -4.827  -2.065  0.00  0.00     0.274 HD
HETATM   14  H           1     -22.107  -6.352  -1.297  0.00  0.00     0.274 HD
HETATM   15  H           1     -23.368  -5.931  -2.366  0.00  0.00     0.274 HD
ENDBRANCH  11  12
ENDBRANCH  10  11
ENDBRANCH   9  10
ENDBRANCH   5   9
ENDBRANCH   1   5
BRANCH   2  16
HETATM   16  C           1     -22.658  -3.582  -9.082  0.00  0.00     0.284 C 
BRANCH  16  17
HETATM   17  C           1     -23.987  -4.324  -9.136  0.00  0.00     0.155 C 
BRANCH  17  18
HETATM   18  C           1     -24.884  -3.677 -10.163  0.00  0.00     0.175 C 
HETATM   19  O           1     -25.869  -3.001  -9.794  0.00  0.00    -0.648 OA
HETATM   20  O           1     -24.643  -3.815 -11.381  0.00  0.00    -0.648 OA
ENDBRANCH  17  18
ENDBRANCH  16  17
BRANCH  16  21
HETATM   21  N           1     -21.844  -3.928 -10.294  0.00  0.00    -0.066 N 
HETATM   22  H           1     -22.071  -4.900 -10.602  0.00  0.00     0.275 HD
HETATM   23  H           1     -22.067  -3.258 -11.065  0.00  0.00     0.275 HD
HETATM   24  H           1     -20.828  -3.865 -10.059  0.00  0.00     0.275 HD
ENDBRANCH  16  21
ENDBRANCH   2  16
TORSDOF 10
ENDMDL
MODEL 8
REMARK VINA RESULT:      -5.4     18.474     20.075
REMARK  10 active torsions:
REMARK  status: ('A' for Active; 'I' for Inactive)
REMARK    1  A    between atoms: C_1  and  C_8 
REMARK    2  A    between atoms: C_1  and  C_13 
REMARK    3  A    between atoms: N_3  and  C_8 
REMARK    4  A    between atoms: C_6  and  C_12 
REMARK    5  A    between atoms: N_7  and  C_12 
REMARK       I    between atoms: N_7  and  C_9 
REMARK    6  A    between atoms: C_8  and  C_9 
REMARK    7  A    between atoms: C_10  and  N_20 
REMARK    8  A    between atoms: C_10  and  C_14 
REMARK    9  A    between atoms: C_11  and  C_14 
REMARK   10  A    between atoms: C_11  and  C_12 
ROOT
HETATM    1  N           1     -11.185   5.263 -21.450  0.00  0.00    -0.345 N 
HETATM    2  C           1     -11.587   4.011 -21.830  0.00  0.00     0.249 C 
HETATM    3  O           1     -10.982   3.039 -21.443  0.00  0.00    -0.271 OA
HETATM    4  H           1     -11.691   6.077 -21.775  0.00  0.00     0.163 HD
ENDROOT
BRANCH   1   5
HETATM    5  C           1     -10.034   5.424 -20.584  0.00  0.00     0.185 C 
BRANCH   5   6
HETATM    6  C           1     -10.491   5.485 -19.147  0.00  0.00     0.196 C 
HETATM    7  O           1      -9.663   5.703 -18.236  0.00  0.00    -0.646 OA
HETATM    8  O           1     -11.698   5.319 -18.868  0.00  0.00    -0.646 OA
ENDBRANCH   5   6
BRANCH   5   9
HETATM    9  C           1      -9.305   6.712 -20.941  0.00  0.00     0.038 C 
BRANCH   9  10
HETATM   10  C           1     -10.317   7.836 -21.119  0.00  0.00     0.030 C 
BRANCH  10  11
HETATM   11  C           1      -9.857   9.061 -20.338  0.00  0.00     0.230 C 
BRANCH  11  12
HETATM   12  N           1     -10.074   8.830 -18.872  0.00  0.00    -0.079 N 
HETATM   13  H           1     -10.547   7.909 -18.730  0.00  0.00     0.274 HD
HETATM   14  H           1     -10.672   9.594 -18.484  0.00  0.00     0.274 HD
HETATM   15  H           1      -9.152   8.827 -18.380  0.00  0.00     0.274 HD
ENDBRANCH  11  12
ENDBRANCH  10  11
ENDBRANCH   9  10
ENDBRANCH   5   9
ENDBRANCH   1   5
BRANCH   2  16
HETATM   16  C           1     -12.785   3.844 -22.732  0.00  0.00     0.284 C 
BRANCH  16  17
HETATM   17  C           1     -13.489   5.184 -22.897  0.00  0.00     0.155 C 
BRANCH  17  18
HETATM   18  C           1     -14.647   5.267 -21.932  0.00  0.00     0.175 C 
HETATM   19  O           1     -15.816   5.104 -22.343  0.00  0.00    -0.648 OA
HETATM   20  O           1     -14.437   5.499 -20.721  0.00  0.00    -0.648 OA
ENDBRANCH  17  18
ENDBRANCH  16  17
BRANCH  16  21
HETATM   21  N           1     -13.733   2.854 -22.123  0.00  0.00    -0.066 N 
HETATM   22  H           1     -14.717   3.143 -22.324  0.00  0.00     0.275 HD
HETATM   23  H           1     -13.558   1.908 -22.533  0.00  0.00     0.275 HD
HETATM   24  H           1     -13.585   2.820 -21.089  0.00  0.00     0.275 HD
ENDBRANCH  16  21
ENDBRANCH   2  16
TORSDOF 10
ENDMDL
MODEL 9
REMARK VINA RESULT:      -5.4     13.052     15.283
REMARK  10 active torsions:
REMARK  status: ('A' for Active; 'I' for Inactive)
REMARK    1  A    between atoms: C_1  and  C_8 
REMARK    2  A    between atoms: C_1  and  C_13 
REMARK    3  A    between atoms: N_3  and  C_8 
REMARK    4  A    between atoms: C_6  and  C_12 
REMARK    5  A    between atoms: N_7  and  C_12 
REMARK       I    between atoms: N_7  and  C_9 
REMARK    6  A    between atoms: C_8  and  C_9 
REMARK    7  A    between atoms: C_10  and  N_20 
REMARK    8  A    between atoms: C_10  and  C_14 
REMARK    9  A    between atoms: C_11  and  C_14 
REMARK   10  A    between atoms: C_11  and  C_12 
ROOT
HETATM    1  N           1     -21.000  -5.404  -5.057  0.00  0.00    -0.345 N 
HETATM    2  C           1     -21.461  -6.392  -4.230  0.00  0.00     0.249 C 
HETATM    3  O           1     -22.057  -7.337  -4.691  0.00  0.00    -0.271 OA
HETATM    4  H           1     -20.501  -4.613  -4.671  0.00  0.00     0.163 HD
ENDROOT
BRANCH   1   5
HETATM    5  C           1     -21.227  -5.490  -6.487  0.00  0.00     0.185 C 
BRANCH   5   6
HETATM    6  C           1     -19.919  -5.770  -7.187  0.00  0.00     0.196 C 
HETATM    7  O           1     -19.369  -6.885  -7.060  0.00  0.00    -0.646 OA
HETATM    8  O           1     -19.388  -4.888  -7.895  0.00  0.00    -0.646 OA
ENDBRANCH   5   6
BRANCH   5   9
HETATM    9  C           1     -21.801  -4.173  -6.990  0.00  0.00     0.038 C 
BRANCH   9  10
HETATM   10  C           1     -23.216  -4.399  -7.506  0.00  0.00     0.030 C 
BRANCH  10  11
HETATM   11  C           1     -23.317  -3.904  -8.943  0.00  0.00     0.230 C 
BRANCH  11  12
HETATM   12  N           1     -24.639  -3.225  -9.148  0.00  0.00    -0.079 N 
HETATM   13  H           1     -24.954  -2.797  -8.248  0.00  0.00     0.274 HD
HETATM   14  H           1     -25.345  -3.927  -9.466  0.00  0.00     0.274 HD
HETATM   15  H           1     -24.539  -2.479  -9.872  0.00  0.00     0.274 HD
ENDBRANCH  11  12
ENDBRANCH  10  11
ENDBRANCH   9  10
ENDBRANCH   5   9
ENDBRANCH   1   5
BRANCH   2  16
HETATM   16  C           1     -21.225  -6.303  -2.743  0.00  0.00     0.284 C 
BRANCH  16  17
HETATM   17  C           1     -20.664  -7.624  -2.236  0.00  0.00     0.155 C 
BRANCH  17  18
HETATM   18  C           1     -21.573  -8.182  -1.168  0.00  0.00     0.175 C 
HETATM   19  O           1     -21.525  -7.725  -0.006  0.00  0.00    -0.648 OA
HETATM   20  O           1     -22.375  -9.099  -1.446  0.00  0.00    -0.648 OA
ENDBRANCH  17  18
ENDBRANCH  16  17
BRANCH  16  21
HETATM   21  N           1     -22.522  -6.012  -2.048  0.00  0.00    -0.066 N 
HETATM   22  H           1     -22.574  -6.561  -1.160  0.00  0.00     0.275 HD
HETATM   23  H           1     -22.579  -4.991  -1.830  0.00  0.00     0.275 HD
HETATM   24  H           1     -23.318  -6.282  -2.670  0.00  0.00     0.275 HD
ENDBRANCH  16  21
ENDBRANCH   2  16
TORSDOF 10
ENDMDL
