MODEL 1
REMARK VINA RESULT:      -4.9      0.000      0.000
REMARK  4 active torsions:
REMARK  status: ('A' for Active; 'I' for Inactive)
REMARK    1  A    between atoms: N_1  and  C_6 
REMARK       I    between atoms: N_1  and  C_2 
REMARK    2  A    between atoms: C_2  and  C_10 
REMARK    3  A    between atoms: C_4  and  C_6 
REMARK    4  A    between atoms: C_10  and  N_11 
ROOT
HETATM    1  N           1     -28.217  -5.768 -17.173  0.00  0.00    -0.350 N 
HETATM    2  C           1     -28.755  -4.517 -17.038  0.00  0.00     0.243 C 
HETATM    3  H           1     -28.792  -6.535 -17.498  0.00  0.00     0.163 HD
HETATM    4  O           1     -28.069  -3.603 -16.650  0.00  0.00    -0.272 OA
ENDROOT
BRANCH   2   5
HETATM    5  C           1     -30.207  -4.280 -17.375  0.00  0.00     0.332 C 
BRANCH   5   6
HETATM    6  N           1     -30.442  -2.812 -17.575  0.00  0.00    -0.071 N 
HETATM    7  H           1     -29.818  -2.270 -16.936  0.00  0.00     0.274 HD
HETATM    8  H           1     -31.440  -2.587 -17.364  0.00  0.00     0.274 HD
HETATM    9  H           1     -30.230  -2.557 -18.566  0.00  0.00     0.274 HD
ENDBRANCH   5   6
ENDBRANCH   2   5
BRANCH   1  10
HETATM   10  C           1     -26.823  -5.997 -16.849  0.00  0.00     0.235 C 
BRANCH  10  11
HETATM   11  C           1     -26.723  -7.002 -15.728  0.00  0.00     0.191 C 
HETATM   12  O           1     -25.603  -7.424 -15.366  0.00  0.00    -0.647 OA
HETATM   13  O           1     -27.758  -7.412 -15.162  0.00  0.00    -0.647 OA
ENDBRANCH  10  11
ENDBRANCH   1  10
TORSDOF 4
ENDMDL
MODEL 2
REMARK VINA RESULT:      -4.8      2.177      2.711
REMARK  4 active torsions:
REMARK  status: ('A' for Active; 'I' for Inactive)
REMARK    1  A    between atoms: N_1  and  C_6 
REMARK       I    between atoms: N_1  and  C_2 
REMARK    2  A    between atoms: C_2  and  C_10 
REMARK    3  A    between atoms: C_4  and  C_6 
REMARK    4  A    between atoms: C_10  and  N_11 
ROOT
HETATM    1  N           1     -28.098  -6.567 -17.619  0.00  0.00    -0.350 N 
HETATM    2  C           1     -29.449  -6.598 -17.403  0.00  0.00     0.243 C 
HETATM    3  H           1     -27.678  -7.194 -18.293  0.00  0.00     0.163 HD
HETATM    4  O           1     -29.950  -5.849 -16.599  0.00  0.00    -0.272 OA
ENDROOT
BRANCH   2   5
HETATM    5  C           1     -30.315  -7.568 -18.170  0.00  0.00     0.332 C 
BRANCH   5   6
HETATM    6  N           1     -29.443  -8.523 -18.930  0.00  0.00    -0.071 N 
HETATM    7  H           1     -29.190  -9.328 -18.315  0.00  0.00     0.274 HD
HETATM    8  H           1     -28.574  -8.031 -19.238  0.00  0.00     0.274 HD
HETATM    9  H           1     -29.959  -8.874 -19.768  0.00  0.00     0.274 HD
ENDBRANCH   5   6
ENDBRANCH   2   5
BRANCH   1  10
HETATM   10  C           1     -27.267  -5.635 -16.882  0.00  0.00     0.235 C 
BRANCH  10  11
HETATM   11  C           1     -26.284  -6.400 -16.030  0.00  0.00     0.191 C 
HETATM   12  O           1     -25.106  -5.998 -15.922  0.00  0.00    -0.647 OA
HETATM   13  O           1     -26.649  -7.435 -15.432  0.00  0.00    -0.647 OA
ENDBRANCH  10  11
ENDBRANCH   1  10
TORSDOF 4
ENDMDL
MODEL 3
REMARK VINA RESULT:      -4.6      2.590      2.988
REMARK  4 active torsions:
REMARK  status: ('A' for Active; 'I' for Inactive)
REMARK    1  A    between atoms: N_1  and  C_6 
REMARK       I    between atoms: N_1  and  C_2 
REMARK    2  A    between atoms: C_2  and  C_10 
REMARK    3  A    between atoms: C_4  and  C_6 
REMARK    4  A    between atoms: C_10  and  N_11 
ROOT
HETATM    1  N           1     -29.239  -5.179 -18.294  0.00  0.00    -0.350 N 
HETATM    2  C           1     -28.675  -4.322 -17.388  0.00  0.00     0.243 C 
HETATM    3  H           1     -29.970  -4.853 -18.913  0.00  0.00     0.163 HD
HETATM    4  O           1     -27.803  -4.711 -16.650  0.00  0.00    -0.272 OA
ENDROOT
BRANCH   2   5
HETATM    5  C           1     -29.143  -2.889 -17.312  0.00  0.00     0.332 C 
BRANCH   5   6
HETATM    6  N           1     -30.608  -2.823 -17.631  0.00  0.00    -0.071 N 
HETATM    7  H           1     -30.740  -2.856 -18.666  0.00  0.00     0.274 HD
HETATM    8  H           1     -31.005  -1.933 -17.255  0.00  0.00     0.274 HD
HETATM    9  H           1     -31.096  -3.635 -17.191  0.00  0.00     0.274 HD
ENDBRANCH   5   6
ENDBRANCH   2   5
BRANCH   1  10
HETATM   10  C           1     -28.789  -6.556 -18.367  0.00  0.00     0.235 C 
BRANCH  10  11
HETATM   11  C           1     -29.977  -7.481 -18.274  0.00  0.00     0.191 C 
HETATM   12  O           1     -30.056  -8.475 -19.028  0.00  0.00    -0.647 OA
HETATM   13  O           1     -30.883  -7.253 -17.444  0.00  0.00    -0.647 OA
ENDBRANCH  10  11
ENDBRANCH   1  10
TORSDOF 4
ENDMDL
MODEL 4
REMARK VINA RESULT:      -4.6      2.036      4.689
REMARK  4 active torsions:
REMARK  status: ('A' for Active; 'I' for Inactive)
REMARK    1  A    between atoms: N_1  and  C_6 
REMARK       I    between atoms: N_1  and  C_2 
REMARK    2  A    between atoms: C_2  and  C_10 
REMARK    3  A    between atoms: C_4  and  C_6 
REMARK    4  A    between atoms: C_10  and  N_11 
ROOT
HETATM    1  N           1     -26.686  -6.272 -17.146  0.00  0.00    -0.350 N 
HETATM    2  C           1     -26.292  -6.952 -16.026  0.00  0.00     0.243 C 
HETATM    3  H           1     -25.993  -5.871 -17.765  0.00  0.00     0.163 HD
HETATM    4  O           1     -27.118  -7.431 -15.288  0.00  0.00    -0.272 OA
ENDROOT
BRANCH   2   5
HETATM    5  C           1     -24.823  -7.104 -15.712  0.00  0.00     0.332 C 
BRANCH   5   6
HETATM    6  N           1     -24.128  -7.754 -16.872  0.00  0.00    -0.071 N 
HETATM    7  H           1     -23.094  -7.667 -16.750  0.00  0.00     0.274 HD
HETATM    8  H           1     -24.416  -7.283 -17.759  0.00  0.00     0.274 HD
HETATM    9  H           1     -24.390  -8.764 -16.913  0.00  0.00     0.274 HD
ENDBRANCH   5   6
ENDBRANCH   2   5
BRANCH   1  10
HETATM   10  C           1     -28.096  -6.127 -17.447  0.00  0.00     0.235 C 
BRANCH  10  11
HETATM   11  C           1     -28.467  -4.664 -17.436  0.00  0.00     0.191 C 
HETATM   12  O           1     -29.319  -4.229 -18.241  0.00  0.00    -0.647 OA
HETATM   13  O           1     -27.921  -3.887 -16.623  0.00  0.00    -0.647 OA
ENDBRANCH  10  11
ENDBRANCH   1  10
TORSDOF 4
ENDMDL
MODEL 5
REMARK VINA RESULT:      -4.5      9.259     10.577
REMARK  4 active torsions:
REMARK  status: ('A' for Active; 'I' for Inactive)
REMARK    1  A    between atoms: N_1  and  C_6 
REMARK       I    between atoms: N_1  and  C_2 
REMARK    2  A    between atoms: C_2  and  C_10 
REMARK    3  A    between atoms: C_4  and  C_6 
REMARK    4  A    between atoms: C_10  and  N_11 
ROOT
HETATM    1  N           1     -22.509  -4.195  -8.586  0.00  0.00    -0.350 N 
HETATM    2  C           1     -22.173  -4.582  -7.317  0.00  0.00     0.243 C 
HETATM    3  H           1     -21.785  -4.036  -9.275  0.00  0.00     0.163 HD
HETATM    4  O           1     -23.037  -4.771  -6.496  0.00  0.00    -0.272 OA
ENDROOT
BRANCH   2   5
HETATM    5  C           1     -20.723  -4.771  -6.944  0.00  0.00     0.332 C 
BRANCH   5   6
HETATM    6  N           1     -20.297  -6.168  -7.286  0.00  0.00    -0.071 N 
HETATM    7  H           1     -19.283  -6.171  -7.536  0.00  0.00     0.274 HD
HETATM    8  H           1     -20.858  -6.515  -8.096  0.00  0.00     0.274 HD
HETATM    9  H           1     -20.453  -6.791  -6.462  0.00  0.00     0.274 HD
ENDBRANCH   5   6
ENDBRANCH   2   5
BRANCH   1  10
HETATM   10  C           1     -23.902  -4.013  -8.945  0.00  0.00     0.235 C 
BRANCH  10  11
HETATM   11  C           1     -23.994  -3.445 -10.340  0.00  0.00     0.191 C 
HETATM   12  O           1     -22.952  -3.222 -10.994  0.00  0.00    -0.647 OA
HETATM   13  O           1     -25.111  -3.198 -10.842  0.00  0.00    -0.647 OA
ENDBRANCH  10  11
ENDBRANCH   1  10
TORSDOF 4
ENDMDL
MODEL 6
REMARK VINA RESULT:      -4.3      9.032     10.377
REMARK  4 active torsions:
REMARK  status: ('A' for Active; 'I' for Inactive)
REMARK    1  A    between atoms: N_1  and  C_6 
REMARK       I    between atoms: N_1  and  C_2 
REMARK    2  A    between atoms: C_2  and  C_10 
REMARK    3  A    between atoms: C_4  and  C_6 
REMARK    4  A    between atoms: C_10  and  N_11 
ROOT
HETATM    1  N           1     -22.822  -3.836  -8.300  0.00  0.00    -0.350 N 
HETATM    2  C           1     -21.715  -4.604  -8.060  0.00  0.00     0.243 C 
HETATM    3  H           1     -23.471  -3.635  -7.551  0.00  0.00     0.163 HD
HETATM    4  O           1     -20.940  -4.843  -8.955  0.00  0.00    -0.272 OA
ENDROOT
BRANCH   2   5
HETATM    5  C           1     -21.461  -5.150  -6.677  0.00  0.00     0.332 C 
BRANCH   5   6
HETATM    6  N           1     -20.863  -6.522  -6.782  0.00  0.00    -0.071 N 
HETATM    7  H           1     -21.585  -7.190  -7.132  0.00  0.00     0.274 HD
HETATM    8  H           1     -20.529  -6.829  -5.840  0.00  0.00     0.274 HD
HETATM    9  H           1     -20.057  -6.501  -7.447  0.00  0.00     0.274 HD
ENDBRANCH   5   6
ENDBRANCH   2   5
BRANCH   1  10
HETATM   10  C           1     -23.066  -3.311  -9.629  0.00  0.00     0.235 C 
BRANCH  10  11
HETATM   11  C           1     -24.396  -3.815 -10.135  0.00  0.00     0.191 C 
HETATM   12  O           1     -24.808  -4.943  -9.791  0.00  0.00    -0.647 OA
HETATM   13  O           1     -25.084  -3.104 -10.898  0.00  0.00    -0.647 OA
ENDBRANCH  10  11
ENDBRANCH   1  10
TORSDOF 4
ENDMDL
MODEL 7
REMARK VINA RESULT:      -4.3      9.318     10.200
REMARK  4 active torsions:
REMARK  status: ('A' for Active; 'I' for Inactive)
REMARK    1  A    between atoms: N_1  and  C_6 
REMARK       I    between atoms: N_1  and  C_2 
REMARK    2  A    between atoms: C_2  and  C_10 
REMARK    3  A    between atoms: C_4  and  C_6 
REMARK    4  A    between atoms: C_10  and  N_11 
ROOT
HETATM    1  N           1     -22.729  -3.690  -7.933  0.00  0.00    -0.350 N 
HETATM    2  C           1     -22.783  -3.760  -9.299  0.00  0.00     0.243 C 
HETATM    3  H           1     -23.549  -3.414  -7.408  0.00  0.00     0.163 HD
HETATM    4  O           1     -21.805  -4.089  -9.925  0.00  0.00    -0.272 OA
ENDROOT
BRANCH   2   5
HETATM    5  C           1     -24.065  -3.426 -10.023  0.00  0.00     0.332 C 
BRANCH   5   6
HETATM    6  N           1     -25.157  -4.341  -9.555  0.00  0.00    -0.071 N 
HETATM    7  H           1     -25.615  -4.787 -10.381  0.00  0.00     0.274 HD
HETATM    8  H           1     -25.865  -3.792  -9.017  0.00  0.00     0.274 HD
HETATM    9  H           1     -24.751  -5.082  -8.940  0.00  0.00     0.274 HD
ENDBRANCH   5   6
ENDBRANCH   2   5
BRANCH   1  10
HETATM   10  C           1     -21.498  -4.011  -7.238  0.00  0.00     0.235 C 
BRANCH  10  11
HETATM   11  C           1     -21.590  -5.404  -6.666  0.00  0.00     0.191 C 
HETATM   12  O           1     -20.971  -6.344  -7.209  0.00  0.00    -0.647 OA
HETATM   13  O           1     -22.284  -5.617  -5.649  0.00  0.00    -0.647 OA
ENDBRANCH  10  11
ENDBRANCH   1  10
TORSDOF 4
ENDMDL
MODEL 8
REMARK VINA RESULT:      -4.3      8.227      9.004
REMARK  4 active torsions:
REMARK  status: ('A' for Active; 'I' for Inactive)
REMARK    1  A    between atoms: N_1  and  C_6 
REMARK       I    between atoms: N_1  and  C_2 
REMARK    2  A    between atoms: C_2  and  C_10 
REMARK    3  A    between atoms: C_4  and  C_6 
REMARK    4  A    between atoms: C_10  and  N_11 
ROOT
HETATM    1  N           1     -34.754  -1.389 -13.057  0.00  0.00    -0.350 N 
HETATM    2  C           1     -35.027  -0.057 -12.903  0.00  0.00     0.243 C 
HETATM    3  H           1     -34.400  -1.735 -13.940  0.00  0.00     0.163 HD
HETATM    4  O           1     -35.449   0.355 -11.850  0.00  0.00    -0.272 OA
ENDROOT
BRANCH   2   5
HETATM    5  C           1     -34.800   0.897 -14.050  0.00  0.00     0.332 C 
BRANCH   5   6
HETATM    6  N           1     -36.060   1.023 -14.854  0.00  0.00    -0.071 N 
HETATM    7  H           1     -36.792   0.394 -14.455  0.00  0.00     0.274 HD
HETATM    8  H           1     -35.869   0.753 -15.845  0.00  0.00     0.274 HD
HETATM    9  H           1     -36.396   2.012 -14.822  0.00  0.00     0.274 HD
ENDBRANCH   5   6
ENDBRANCH   2   5
BRANCH   1  10
HETATM   10  C           1     -34.972  -2.306 -11.955  0.00  0.00     0.235 C 
BRANCH  10  11
HETATM   11  C           1     -33.698  -2.454 -11.162  0.00  0.00     0.191 C 
HETATM   12  O           1     -32.838  -3.291 -11.512  0.00  0.00    -0.647 OA
HETATM   13  O           1     -33.502  -1.740 -10.155  0.00  0.00    -0.647 OA
ENDBRANCH  10  11
ENDBRANCH   1  10
TORSDOF 4
ENDMDL
MODEL 9
REMARK VINA RESULT:      -4.2      8.017      9.052
REMARK  4 active torsions:
REMARK  status: ('A' for Active; 'I' for Inactive)
REMARK    1  A    between atoms: N_1  and  C_6 
REMARK       I    between atoms: N_1  and  C_2 
REMARK    2  A    between atoms: C_2  and  C_10 
REMARK    3  A    between atoms: C_4  and  C_6 
REMARK    4  A    between atoms: C_10  and  N_11 
ROOT
HETATM    1  N           1     -35.056  -0.859 -13.701  0.00  0.00    -0.350 N 
HETATM    2  C           1     -36.222  -0.430 -14.274  0.00  0.00     0.243 C 
HETATM    3  H           1     -34.166  -0.584 -14.097  0.00  0.00     0.163 HD
HETATM    4  O           1     -37.284  -0.758 -13.801  0.00  0.00    -0.272 OA
ENDROOT
BRANCH   2   5
HETATM    5  C           1     -36.182   0.452 -15.498  0.00  0.00     0.332 C 
BRANCH   5   6
HETATM    6  N           1     -37.553   0.997 -15.768  0.00  0.00    -0.071 N 
HETATM    7  H           1     -38.182   0.768 -14.966  0.00  0.00     0.274 HD
HETATM    8  H           1     -37.932   0.569 -16.643  0.00  0.00     0.274 HD
HETATM    9  H           1     -37.499   2.034 -15.883  0.00  0.00     0.274 HD
ENDBRANCH   5   6
ENDBRANCH   2   5
BRANCH   1  10
HETATM   10  C           1     -35.094  -1.706 -12.525  0.00  0.00     0.235 C 
BRANCH  10  11
HETATM   11  C           1     -34.327  -2.977 -12.794  0.00  0.00     0.191 C 
HETATM   12  O           1     -34.406  -3.530 -13.912  0.00  0.00    -0.647 OA
HETATM   13  O           1     -33.612  -3.477 -11.899  0.00  0.00    -0.647 OA
ENDBRANCH  10  11
ENDBRANCH   1  10
TORSDOF 4
ENDMDL
