MODEL 1
REMARK VINA RESULT:      -8.5      0.000      0.000
REMARK  11 active torsions:
REMARK  status: ('A' for Active; 'I' for Inactive)
REMARK    1  A    between atoms: O_2  and  C_3 
REMARK    2  A    between atoms: O_2  and  P_37 
REMARK    3  A    between atoms: C_11  and  C_17 
REMARK    4  A    between atoms: C_17  and  C_18 
REMARK    5  A    between atoms: C_17  and  N_35 
REMARK    6  A    between atoms: C_18  and  C_19 
REMARK    7  A    between atoms: C_22  and  C_23 
REMARK    8  A    between atoms: C_23  and  C_29 
REMARK    9  A    between atoms: N_24  and  C_29 
REMARK   10  A    between atoms: O_25  and  P_37 
REMARK   11  A    between atoms: C_29  and  C_30 
REMARK       I    between atoms: C_30  and  N_35 
ROOT
HETATM    1  O           1     -22.765  -6.381  -3.779  0.00  0.00    -0.271 OA
HETATM    2  C           1     -21.827  -6.814  -3.153  0.00  0.00     0.249 C 
HETATM    3  N           1     -20.798  -7.439  -3.806  0.00  0.00    -0.344 N 
HETATM    4  H           1     -20.013  -7.802  -3.282  0.00  0.00     0.163 HD
ENDROOT
BRANCH   3   5
HETATM    5  C           1     -20.835  -7.580  -5.248  0.00  0.00     0.189 C 
BRANCH   5   6
HETATM    6  C           1     -20.382  -8.967  -5.631  0.00  0.00     0.197 C 
HETATM    7  O           1     -21.226  -9.839  -5.933  0.00  0.00    -0.646 OA
HETATM    8  O           1     -19.163  -9.244  -5.647  0.00  0.00    -0.646 OA
ENDBRANCH   5   6
BRANCH   5   9
HETATM    9  C           1     -19.908  -6.551  -5.883  0.00  0.00     0.074 C 
BRANCH   9  10
HETATM   10  C           1     -20.686  -5.696  -6.835  0.00  0.00    -0.056 A 
HETATM   11  C           1     -21.947  -5.222  -6.475  0.00  0.00     0.010 A 
HETATM   12  C           1     -22.671  -4.425  -7.362  0.00  0.00     0.038 A 
HETATM   13  C           1     -22.135  -4.104  -8.608  0.00  0.00     0.081 A 
HETATM   14  C           1     -20.874  -4.579  -8.968  0.00  0.00     0.038 A 
HETATM   15  C           1     -20.149  -5.375  -8.081  0.00  0.00     0.010 A 
BRANCH  13  16
HETATM   16  O           1     -22.838  -3.331  -9.469  0.00  0.00    -0.247 OA
BRANCH  16  17
HETATM   17  P           1     -23.697  -4.066 -10.623  0.00  0.00     0.411 P 
HETATM   18  O           1     -24.912  -3.273 -10.916  0.00  0.00    -0.624 OA
HETATM   19  O           1     -24.088  -5.417 -10.162  0.00  0.00    -0.624 OA
BRANCH  17  20
HETATM   20  O           1     -22.801  -4.192 -11.961  0.00  0.00    -0.300 OA
HETATM   21  H           1     -23.422  -4.200 -12.670  0.00  0.00     0.223 HD
ENDBRANCH  17  20
ENDBRANCH  16  17
ENDBRANCH  13  16
ENDBRANCH   9  10
ENDBRANCH   5   9
ENDBRANCH   3   5
BRANCH   2  22
HETATM   22  C           1     -21.789  -6.668  -1.652  0.00  0.00     0.278 C 
BRANCH  22  23
HETATM   23  C           1     -22.827  -7.590  -1.025  0.00  0.00     0.083 C 
BRANCH  23  24
HETATM   24  C           1     -22.135  -8.718  -0.326  0.00  0.00    -0.028 A 
HETATM   25  C           1     -20.939  -8.644   0.349  0.00  0.00     0.096 A 
HETATM   26  N           1     -20.656  -9.890   0.840  0.00  0.00    -0.365 N 
HETATM   27  C           1     -21.652 -10.776   0.494  0.00  0.00     0.042 A 
HETATM   28  H           1     -19.803 -10.136   1.401  0.00  0.00     0.165 HD
HETATM   29  C           1     -21.787 -12.140   0.774  0.00  0.00     0.030 A 
HETATM   30  C           1     -22.597 -10.061  -0.242  0.00  0.00    -0.002 A 
HETATM   31  C           1     -22.924 -12.792   0.284  0.00  0.00     0.002 A 
HETATM   32  C           1     -23.884 -12.104  -0.454  0.00  0.00     0.001 A 
HETATM   33  C           1     -23.733 -10.738  -0.725  0.00  0.00     0.014 A 
ENDBRANCH  23  24
ENDBRANCH  22  23
BRANCH  22  34
HETATM   34  N           1     -22.095  -5.246  -1.281  0.00  0.00    -0.066 N 
HETATM   35  H           1     -21.362  -4.617  -1.680  0.00  0.00     0.275 HD
HETATM   36  H           1     -23.030  -4.980  -1.664  0.00  0.00     0.275 HD
HETATM   37  H           1     -22.105  -5.152  -0.240  0.00  0.00     0.275 HD
ENDBRANCH  22  34
ENDBRANCH   2  22
TORSDOF 11
ENDMDL
MODEL 2
REMARK VINA RESULT:      -8.4      2.025      3.505
REMARK  11 active torsions:
REMARK  status: ('A' for Active; 'I' for Inactive)
REMARK    1  A    between atoms: O_2  and  C_3 
REMARK    2  A    between atoms: O_2  and  P_37 
REMARK    3  A    between atoms: C_11  and  C_17 
REMARK    4  A    between atoms: C_17  and  C_18 
REMARK    5  A    between atoms: C_17  and  N_35 
REMARK    6  A    between atoms: C_18  and  C_19 
REMARK    7  A    between atoms: C_22  and  C_23 
REMARK    8  A    between atoms: C_23  and  C_29 
REMARK    9  A    between atoms: N_24  and  C_29 
REMARK   10  A    between atoms: O_25  and  P_37 
REMARK   11  A    between atoms: C_29  and  C_30 
REMARK       I    between atoms: C_30  and  N_35 
ROOT
HETATM    1  O           1     -21.210 -10.959  -6.289  0.00  0.00    -0.271 OA
HETATM    2  C           1     -21.511 -10.654  -5.159  0.00  0.00     0.249 C 
HETATM    3  N           1     -21.059  -9.478  -4.624  0.00  0.00    -0.344 N 
HETATM    4  H           1     -21.310  -9.222  -3.678  0.00  0.00     0.163 HD
ENDROOT
BRANCH   3   5
HETATM    5  C           1     -20.218  -8.599  -5.413  0.00  0.00     0.189 C 
BRANCH   5   6
HETATM    6  C           1     -18.789  -9.081  -5.353  0.00  0.00     0.197 C 
HETATM    7  O           1     -18.133  -9.222  -6.408  0.00  0.00    -0.646 OA
HETATM    8  O           1     -18.262  -9.337  -4.250  0.00  0.00    -0.646 OA
ENDBRANCH   5   6
BRANCH   5   9
HETATM    9  C           1     -20.299  -7.184  -4.856  0.00  0.00     0.074 C 
BRANCH   9  10
HETATM   10  C           1     -20.705  -6.240  -5.946  0.00  0.00    -0.056 A 
HETATM   11  C           1     -19.851  -6.012  -7.025  0.00  0.00     0.010 A 
HETATM   12  C           1     -20.229  -5.134  -8.040  0.00  0.00     0.038 A 
HETATM   13  C           1     -21.461  -4.484  -7.976  0.00  0.00     0.081 A 
HETATM   14  C           1     -22.316  -4.712  -6.897  0.00  0.00     0.038 A 
HETATM   15  C           1     -21.937  -5.591  -5.883  0.00  0.00     0.010 A 
BRANCH  13  16
HETATM   16  O           1     -21.829  -3.630  -8.962  0.00  0.00    -0.247 OA
BRANCH  16  17
HETATM   17  P           1     -23.228  -3.905  -9.720  0.00  0.00     0.411 P 
HETATM   18  O           1     -23.371  -5.354  -9.984  0.00  0.00    -0.624 OA
HETATM   19  O           1     -23.249  -3.165 -11.002  0.00  0.00    -0.624 OA
BRANCH  17  20
HETATM   20  O           1     -24.450  -3.405  -8.789  0.00  0.00    -0.300 OA
HETATM   21  H           1     -25.006  -2.906  -9.363  0.00  0.00     0.223 HD
ENDBRANCH  17  20
ENDBRANCH  16  17
ENDBRANCH  13  16
ENDBRANCH   9  10
ENDBRANCH   5   9
ENDBRANCH   3   5
BRANCH   2  22
HETATM   22  C           1     -22.386 -11.569  -4.338  0.00  0.00     0.278 C 
BRANCH  22  23
HETATM   23  C           1     -21.711 -11.854  -3.002  0.00  0.00     0.083 C 
BRANCH  23  24
HETATM   24  C           1     -22.521 -11.254  -1.895  0.00  0.00    -0.028 A 
HETATM   25  C           1     -23.637 -11.809  -1.314  0.00  0.00     0.096 A 
HETATM   26  N           1     -24.079 -10.947  -0.346  0.00  0.00    -0.365 N 
HETATM   27  C           1     -23.265  -9.838  -0.289  0.00  0.00     0.042 A 
HETATM   28  H           1     -24.916 -11.108   0.266  0.00  0.00     0.165 HD
HETATM   29  C           1     -23.329  -8.710   0.536  0.00  0.00     0.030 A 
HETATM   30  C           1     -22.274 -10.007  -1.257  0.00  0.00    -0.002 A 
HETATM   31  C           1     -22.350  -7.725   0.364  0.00  0.00     0.002 A 
HETATM   32  C           1     -21.349  -7.868  -0.595  0.00  0.00     0.001 A 
HETATM   33  C           1     -21.299  -9.003  -1.413  0.00  0.00     0.014 A 
ENDBRANCH  23  24
ENDBRANCH  22  23
BRANCH  22  34
HETATM   34  N           1     -22.594 -12.858  -5.077  0.00  0.00    -0.066 N 
HETATM   35  H           1     -22.112 -12.810  -6.004  0.00  0.00     0.275 HD
HETATM   36  H           1     -22.197 -13.647  -4.518  0.00  0.00     0.275 HD
HETATM   37  H           1     -23.616 -13.015  -5.225  0.00  0.00     0.275 HD
ENDBRANCH  22  34
ENDBRANCH   2  22
TORSDOF 11
ENDMDL
MODEL 3
REMARK VINA RESULT:      -8.3      4.369      9.454
REMARK  11 active torsions:
REMARK  status: ('A' for Active; 'I' for Inactive)
REMARK    1  A    between atoms: O_2  and  C_3 
REMARK    2  A    between atoms: O_2  and  P_37 
REMARK    3  A    between atoms: C_11  and  C_17 
REMARK    4  A    between atoms: C_17  and  C_18 
REMARK    5  A    between atoms: C_17  and  N_35 
REMARK    6  A    between atoms: C_18  and  C_19 
REMARK    7  A    between atoms: C_22  and  C_23 
REMARK    8  A    between atoms: C_23  and  C_29 
REMARK    9  A    between atoms: N_24  and  C_29 
REMARK   10  A    between atoms: O_25  and  P_37 
REMARK   11  A    between atoms: C_29  and  C_30 
REMARK       I    between atoms: C_30  and  N_35 
ROOT
HETATM    1  O           1     -20.933  -8.284  -5.999  0.00  0.00    -0.271 OA
HETATM    2  C           1     -21.038  -7.567  -5.033  0.00  0.00     0.249 C 
HETATM    3  N           1     -20.762  -8.056  -3.784  0.00  0.00    -0.344 N 
HETATM    4  H           1     -20.850  -7.456  -2.974  0.00  0.00     0.163 HD
ENDROOT
BRANCH   3   5
HETATM    5  C           1     -20.344  -9.435  -3.622  0.00  0.00     0.189 C 
BRANCH   5   6
HETATM    6  C           1     -21.491 -10.249  -3.077  0.00  0.00     0.197 C 
HETATM    7  O           1     -21.480 -10.623  -1.884  0.00  0.00    -0.646 OA
HETATM    8  O           1     -22.452 -10.549  -3.817  0.00  0.00    -0.646 OA
ENDBRANCH   5   6
BRANCH   5   9
HETATM    9  C           1     -19.171  -9.500  -2.653  0.00  0.00     0.074 C 
BRANCH   9  10
HETATM   10  C           1     -17.931  -9.897  -3.394  0.00  0.00    -0.056 A 
HETATM   11  C           1     -17.931  -9.923  -4.789  0.00  0.00     0.010 A 
HETATM   12  C           1     -16.776 -10.293  -5.479  0.00  0.00     0.038 A 
HETATM   13  C           1     -15.622 -10.635  -4.774  0.00  0.00     0.081 A 
HETATM   14  C           1     -15.623 -10.609  -3.379  0.00  0.00     0.038 A 
HETATM   15  C           1     -16.778 -10.239  -2.690  0.00  0.00     0.010 A 
BRANCH  13  16
HETATM   16  O           1     -14.501 -10.994  -5.444  0.00  0.00    -0.247 OA
BRANCH  16  17
HETATM   17  P           1     -14.057 -12.546  -5.404  0.00  0.00     0.411 P 
HETATM   18  O           1     -13.141 -12.827  -6.532  0.00  0.00    -0.624 OA
HETATM   19  O           1     -15.256 -13.406  -5.516  0.00  0.00    -0.624 OA
BRANCH  17  20
HETATM   20  O           1     -13.301 -12.853  -4.010  0.00  0.00    -0.300 OA
HETATM   21  H           1     -13.202 -12.013  -3.596  0.00  0.00     0.223 HD
ENDBRANCH  17  20
ENDBRANCH  16  17
ENDBRANCH  13  16
ENDBRANCH   9  10
ENDBRANCH   5   9
ENDBRANCH   3   5
BRANCH   2  22
HETATM   22  C           1     -21.474  -6.132  -5.200  0.00  0.00     0.278 C 
BRANCH  22  23
HETATM   23  C           1     -20.733  -5.510  -6.377  0.00  0.00     0.083 C 
BRANCH  23  24
HETATM   24  C           1     -21.720  -4.895  -7.320  0.00  0.00    -0.028 A 
HETATM   25  C           1     -23.033  -4.597  -7.039  0.00  0.00     0.096 A 
HETATM   26  N           1     -23.589  -4.050  -8.165  0.00  0.00    -0.365 N 
HETATM   27  C           1     -22.655  -3.988  -9.175  0.00  0.00     0.042 A 
HETATM   28  H           1     -24.583  -3.723  -8.246  0.00  0.00     0.165 HD
HETATM   29  C           1     -22.770  -3.511 -10.485  0.00  0.00     0.030 A 
HETATM   30  C           1     -21.468  -4.516  -8.667  0.00  0.00    -0.002 A 
HETATM   31  C           1     -21.635  -3.576 -11.300  0.00  0.00     0.002 A 
HETATM   32  C           1     -20.436  -4.098 -10.820  0.00  0.00     0.001 A 
HETATM   33  C           1     -20.338  -4.572  -9.506  0.00  0.00     0.014 A 
ENDBRANCH  23  24
ENDBRANCH  22  23
BRANCH  22  34
HETATM   34  N           1     -21.158  -5.365  -3.950  0.00  0.00    -0.066 N 
HETATM   35  H           1     -20.129  -5.183  -3.903  0.00  0.00     0.275 HD
HETATM   36  H           1     -21.673  -4.455  -3.961  0.00  0.00     0.275 HD
HETATM   37  H           1     -21.451  -5.921  -3.116  0.00  0.00     0.275 HD
ENDBRANCH  22  34
ENDBRANCH   2  22
TORSDOF 11
ENDMDL
MODEL 4
REMARK VINA RESULT:      -8.0      3.045      4.991
REMARK  11 active torsions:
REMARK  status: ('A' for Active; 'I' for Inactive)
REMARK    1  A    between atoms: O_2  and  C_3 
REMARK    2  A    between atoms: O_2  and  P_37 
REMARK    3  A    between atoms: C_11  and  C_17 
REMARK    4  A    between atoms: C_17  and  C_18 
REMARK    5  A    between atoms: C_17  and  N_35 
REMARK    6  A    between atoms: C_18  and  C_19 
REMARK    7  A    between atoms: C_22  and  C_23 
REMARK    8  A    between atoms: C_23  and  C_29 
REMARK    9  A    between atoms: N_24  and  C_29 
REMARK   10  A    between atoms: O_25  and  P_37 
REMARK   11  A    between atoms: C_29  and  C_30 
REMARK       I    between atoms: C_30  and  N_35 
ROOT
HETATM    1  O           1     -20.856 -11.920  -3.325  0.00  0.00    -0.271 OA
HETATM    2  C           1     -20.307 -12.250  -2.301  0.00  0.00     0.249 C 
HETATM    3  N           1     -19.229 -11.542  -1.843  0.00  0.00    -0.344 N 
HETATM    4  H           1     -18.769 -11.818  -0.985  0.00  0.00     0.163 HD
ENDROOT
BRANCH   3   5
HETATM    5  C           1     -18.745 -10.397  -2.589  0.00  0.00     0.189 C 
BRANCH   5   6
HETATM    6  C           1     -17.236 -10.410  -2.611  0.00  0.00     0.197 C 
HETATM    7  O           1     -16.608  -9.404  -3.008  0.00  0.00    -0.646 OA
HETATM    8  O           1     -16.614 -11.426  -2.232  0.00  0.00    -0.646 OA
ENDBRANCH   5   6
BRANCH   5   9
HETATM    9  C           1     -19.230  -9.116  -1.924  0.00  0.00     0.074 C 
BRANCH   9  10
HETATM   10  C           1     -20.056  -8.330  -2.894  0.00  0.00    -0.056 A 
HETATM   11  C           1     -20.944  -7.359  -2.429  0.00  0.00     0.010 A 
HETATM   12  C           1     -21.713  -6.627  -3.333  0.00  0.00     0.038 A 
HETATM   13  C           1     -21.594  -6.864  -4.702  0.00  0.00     0.081 A 
HETATM   14  C           1     -20.706  -7.835  -5.167  0.00  0.00     0.038 A 
HETATM   15  C           1     -19.937  -8.567  -4.263  0.00  0.00     0.010 A 
BRANCH  13  16
HETATM   16  O           1     -22.340  -6.153  -5.580  0.00  0.00    -0.247 OA
BRANCH  16  17
HETATM   17  P           1     -21.573  -5.172  -6.608  0.00  0.00     0.411 P 
HETATM   18  O           1     -20.999  -5.968  -7.716  0.00  0.00    -0.624 OA
HETATM   19  O           1     -20.487  -4.461  -5.896  0.00  0.00    -0.624 OA
BRANCH  17  20
HETATM   20  O           1     -22.619  -4.096  -7.206  0.00  0.00    -0.300 OA
HETATM   21  H           1     -23.280  -4.611  -7.637  0.00  0.00     0.223 HD
ENDBRANCH  17  20
ENDBRANCH  16  17
ENDBRANCH  13  16
ENDBRANCH   9  10
ENDBRANCH   5   9
ENDBRANCH   3   5
BRANCH   2  22
HETATM   22  C           1     -20.810 -13.443  -1.525  0.00  0.00     0.278 C 
BRANCH  22  23
HETATM   23  C           1     -21.189 -13.009  -0.115  0.00  0.00     0.083 C 
BRANCH  23  24
HETATM   24  C           1     -22.203 -11.910  -0.185  0.00  0.00    -0.028 A 
HETATM   25  C           1     -23.468 -12.007  -0.718  0.00  0.00     0.096 A 
HETATM   26  N           1     -24.072 -10.785  -0.588  0.00  0.00    -0.365 N 
HETATM   27  C           1     -23.218  -9.894   0.021  0.00  0.00     0.042 A 
HETATM   28  H           1     -25.047 -10.560  -0.906  0.00  0.00     0.165 HD
HETATM   29  C           1     -23.402  -8.547   0.354  0.00  0.00     0.030 A 
HETATM   30  C           1     -22.031 -10.579   0.285  0.00  0.00    -0.002 A 
HETATM   31  C           1     -22.339  -7.883   0.976  0.00  0.00     0.002 A 
HETATM   32  C           1     -21.143  -8.542   1.252  0.00  0.00     0.001 A 
HETATM   33  C           1     -20.975  -9.890   0.911  0.00  0.00     0.014 A 
ENDBRANCH  23  24
ENDBRANCH  22  23
BRANCH  22  34
HETATM   34  N           1     -19.732 -14.484  -1.455  0.00  0.00    -0.066 N 
HETATM   35  H           1     -20.136 -15.380  -1.098  0.00  0.00     0.275 HD
HETATM   36  H           1     -19.334 -14.636  -2.408  0.00  0.00     0.275 HD
HETATM   37  H           1     -18.977 -14.161  -0.809  0.00  0.00     0.275 HD
ENDBRANCH  22  34
ENDBRANCH   2  22
TORSDOF 11
ENDMDL
MODEL 5
REMARK VINA RESULT:      -7.7     14.169     16.226
REMARK  11 active torsions:
REMARK  status: ('A' for Active; 'I' for Inactive)
REMARK    1  A    between atoms: O_2  and  C_3 
REMARK    2  A    between atoms: O_2  and  P_37 
REMARK    3  A    between atoms: C_11  and  C_17 
REMARK    4  A    between atoms: C_17  and  C_18 
REMARK    5  A    between atoms: C_17  and  N_35 
REMARK    6  A    between atoms: C_18  and  C_19 
REMARK    7  A    between atoms: C_22  and  C_23 
REMARK    8  A    between atoms: C_23  and  C_29 
REMARK    9  A    between atoms: N_24  and  C_29 
REMARK   10  A    between atoms: O_25  and  P_37 
REMARK   11  A    between atoms: C_29  and  C_30 
REMARK       I    between atoms: C_30  and  N_35 
ROOT
HETATM    1  O           1     -32.315  -4.305 -13.421  0.00  0.00    -0.271 OA
HETATM    2  C           1     -33.419  -4.414 -13.900  0.00  0.00     0.249 C 
HETATM    3  N           1     -33.576  -4.428 -15.260  0.00  0.00    -0.344 N 
HETATM    4  H           1     -34.500  -4.520 -15.661  0.00  0.00     0.163 HD
ENDROOT
BRANCH   3   5
HETATM    5  C           1     -32.418  -4.312 -16.124  0.00  0.00     0.189 C 
BRANCH   5   6
HETATM    6  C           1     -32.717  -3.339 -17.239  0.00  0.00     0.197 C 
HETATM    7  O           1     -33.865  -2.857 -17.356  0.00  0.00    -0.646 OA
HETATM    8  O           1     -31.817  -3.015 -18.043  0.00  0.00    -0.646 OA
ENDBRANCH   5   6
BRANCH   5   9
HETATM    9  C           1     -32.087  -5.675 -16.717  0.00  0.00     0.074 C 
BRANCH   9  10
HETATM   10  C           1     -30.606  -5.790 -16.911  0.00  0.00    -0.056 A 
HETATM   11  C           1     -30.097  -6.599 -17.927  0.00  0.00     0.010 A 
HETATM   12  C           1     -28.719  -6.705 -18.109  0.00  0.00     0.038 A 
HETATM   13  C           1     -27.849  -6.004 -17.274  0.00  0.00     0.081 A 
HETATM   14  C           1     -28.358  -5.196 -16.257  0.00  0.00     0.038 A 
HETATM   15  C           1     -29.737  -5.089 -16.077  0.00  0.00     0.010 A 
BRANCH  13  16
HETATM   16  O           1     -26.510  -6.108 -17.450  0.00  0.00    -0.247 OA
BRANCH  16  17
HETATM   17  P           1     -25.641  -6.792 -16.273  0.00  0.00     0.411 P 
HETATM   18  O           1     -26.535  -7.573 -15.389  0.00  0.00    -0.624 OA
HETATM   19  O           1     -24.963  -5.740 -15.484  0.00  0.00    -0.624 OA
BRANCH  17  20
HETATM   20  O           1     -24.536  -7.775 -16.923  0.00  0.00    -0.300 OA
HETATM   21  H           1     -24.896  -8.641 -16.833  0.00  0.00     0.223 HD
ENDBRANCH  17  20
ENDBRANCH  16  17
ENDBRANCH  13  16
ENDBRANCH   9  10
ENDBRANCH   5   9
ENDBRANCH   3   5
BRANCH   2  22
HETATM   22  C           1     -34.624  -4.536 -13.000  0.00  0.00     0.278 C 
BRANCH  22  23
HETATM   23  C           1     -34.449  -3.626 -11.791  0.00  0.00     0.083 C 
BRANCH  23  24
HETATM   24  C           1     -35.142  -2.323 -12.042  0.00  0.00    -0.028 A 
HETATM   25  C           1     -35.167  -1.633 -13.232  0.00  0.00     0.096 A 
HETATM   26  N           1     -35.903  -0.494 -13.042  0.00  0.00    -0.365 N 
HETATM   27  C           1     -36.357  -0.433 -11.744  0.00  0.00     0.042 A 
HETATM   28  H           1     -36.094   0.228 -13.780  0.00  0.00     0.165 HD
HETATM   29  C           1     -37.138   0.536 -11.103  0.00  0.00     0.030 A 
HETATM   30  C           1     -35.890  -1.574 -11.092  0.00  0.00    -0.002 A 
HETATM   31  C           1     -37.448   0.330  -9.755  0.00  0.00     0.002 A 
HETATM   32  C           1     -36.996  -0.801  -9.079  0.00  0.00     0.001 A 
HETATM   33  C           1     -36.215  -1.761  -9.735  0.00  0.00     0.014 A 
ENDBRANCH  23  24
ENDBRANCH  22  23
BRANCH  22  34
HETATM   34  N           1     -34.762  -5.957 -12.539  0.00  0.00    -0.066 N 
HETATM   35  H           1     -34.215  -6.093 -11.659  0.00  0.00     0.275 HD
HETATM   36  H           1     -35.770  -6.168 -12.360  0.00  0.00     0.275 HD
HETATM   37  H           1     -34.398  -6.600 -13.278  0.00  0.00     0.275 HD
ENDBRANCH  22  34
ENDBRANCH   2  22
TORSDOF 11
ENDMDL
MODEL 6
REMARK VINA RESULT:      -7.7      3.974      8.777
REMARK  11 active torsions:
REMARK  status: ('A' for Active; 'I' for Inactive)
REMARK    1  A    between atoms: O_2  and  C_3 
REMARK    2  A    between atoms: O_2  and  P_37 
REMARK    3  A    between atoms: C_11  and  C_17 
REMARK    4  A    between atoms: C_17  and  C_18 
REMARK    5  A    between atoms: C_17  and  N_35 
REMARK    6  A    between atoms: C_18  and  C_19 
REMARK    7  A    between atoms: C_22  and  C_23 
REMARK    8  A    between atoms: C_23  and  C_29 
REMARK    9  A    between atoms: N_24  and  C_29 
REMARK   10  A    between atoms: O_25  and  P_37 
REMARK   11  A    between atoms: C_29  and  C_30 
REMARK       I    between atoms: C_30  and  N_35 
ROOT
HETATM    1  O           1     -21.766  -7.582  -5.323  0.00  0.00    -0.271 OA
HETATM    2  C           1     -20.880  -6.849  -4.953  0.00  0.00     0.249 C 
HETATM    3  N           1     -20.559  -6.779  -3.624  0.00  0.00    -0.344 N 
HETATM    4  H           1     -19.818  -6.165  -3.313  0.00  0.00     0.163 HD
ENDROOT
BRANCH   3   5
HETATM    5  C           1     -21.284  -7.585  -2.661  0.00  0.00     0.189 C 
BRANCH   5   6
HETATM    6  C           1     -22.083  -6.686  -1.750  0.00  0.00     0.197 C 
HETATM    7  O           1     -22.311  -5.503  -2.083  0.00  0.00    -0.646 OA
HETATM    8  O           1     -22.517  -7.125  -0.663  0.00  0.00    -0.646 OA
ENDBRANCH   5   6
BRANCH   5   9
HETATM    9  C           1     -20.296  -8.397  -1.833  0.00  0.00     0.074 C 
BRANCH   9  10
HETATM   10  C           1     -19.663  -9.445  -2.695  0.00  0.00    -0.056 A 
HETATM   11  C           1     -20.441 -10.471  -3.229  0.00  0.00     0.010 A 
HETATM   12  C           1     -19.851 -11.447  -4.033  0.00  0.00     0.038 A 
HETATM   13  C           1     -18.483 -11.396  -4.301  0.00  0.00     0.081 A 
HETATM   14  C           1     -17.705 -10.370  -3.766  0.00  0.00     0.038 A 
HETATM   15  C           1     -18.296  -9.394  -2.963  0.00  0.00     0.010 A 
BRANCH  13  16
HETATM   16  O           1     -17.911 -12.344  -5.081  0.00  0.00    -0.247 OA
BRANCH  16  17
HETATM   17  P           1     -18.201 -12.296  -6.669  0.00  0.00     0.411 P 
HETATM   18  O           1     -16.982 -12.700  -7.406  0.00  0.00    -0.624 OA
HETATM   19  O           1     -18.582 -10.921  -7.061  0.00  0.00    -0.624 OA
BRANCH  17  20
HETATM   20  O           1     -19.405 -13.312  -7.026  0.00  0.00    -0.300 OA
HETATM   21  H           1     -18.992 -14.152  -7.134  0.00  0.00     0.223 HD
ENDBRANCH  17  20
ENDBRANCH  16  17
ENDBRANCH  13  16
ENDBRANCH   9  10
ENDBRANCH   5   9
ENDBRANCH   3   5
BRANCH   2  22
HETATM   22  C           1     -20.127  -6.009  -5.955  0.00  0.00     0.278 C 
BRANCH  22  23
HETATM   23  C           1     -20.672  -4.587  -5.940  0.00  0.00     0.083 C 
BRANCH  23  24
HETATM   24  C           1     -21.698  -4.434  -7.019  0.00  0.00    -0.028 A 
HETATM   25  C           1     -23.062  -4.524  -6.861  0.00  0.00     0.096 A 
HETATM   26  N           1     -23.640  -4.325  -8.086  0.00  0.00    -0.365 N 
HETATM   27  C           1     -22.671  -4.107  -9.040  0.00  0.00     0.042 A 
HETATM   28  H           1     -24.673  -4.335  -8.272  0.00  0.00     0.165 HD
HETATM   29  C           1     -22.792  -3.861 -10.412  0.00  0.00     0.030 A 
HETATM   30  C           1     -21.437  -4.171  -8.393  0.00  0.00    -0.002 A 
HETATM   31  C           1     -21.613  -3.676 -11.143  0.00  0.00     0.002 A 
HETATM   32  C           1     -20.367  -3.735 -10.522  0.00  0.00     0.001 A 
HETATM   33  C           1     -20.264  -3.982  -9.148  0.00  0.00     0.014 A 
ENDBRANCH  23  24
ENDBRANCH  22  23
BRANCH  22  34
HETATM   34  N           1     -20.297  -6.595  -7.326  0.00  0.00    -0.066 N 
HETATM   35  H           1     -19.456  -6.374  -7.906  0.00  0.00     0.275 HD
HETATM   36  H           1     -20.406  -7.631  -7.250  0.00  0.00     0.275 HD
HETATM   37  H           1     -21.147  -6.187  -7.776  0.00  0.00     0.275 HD
ENDBRANCH  22  34
ENDBRANCH   2  22
TORSDOF 11
ENDMDL
MODEL 7
REMARK VINA RESULT:      -7.7      4.017      6.030
REMARK  11 active torsions:
REMARK  status: ('A' for Active; 'I' for Inactive)
REMARK    1  A    between atoms: O_2  and  C_3 
REMARK    2  A    between atoms: O_2  and  P_37 
REMARK    3  A    between atoms: C_11  and  C_17 
REMARK    4  A    between atoms: C_17  and  C_18 
REMARK    5  A    between atoms: C_17  and  N_35 
REMARK    6  A    between atoms: C_18  and  C_19 
REMARK    7  A    between atoms: C_22  and  C_23 
REMARK    8  A    between atoms: C_23  and  C_29 
REMARK    9  A    between atoms: N_24  and  C_29 
REMARK   10  A    between atoms: O_25  and  P_37 
REMARK   11  A    between atoms: C_29  and  C_30 
REMARK       I    between atoms: C_30  and  N_35 
ROOT
HETATM    1  O           1     -19.011 -12.857  -2.752  0.00  0.00    -0.271 OA
HETATM    2  C           1     -18.367 -12.719  -1.739  0.00  0.00     0.249 C 
HETATM    3  N           1     -17.163 -12.068  -1.778  0.00  0.00    -0.344 N 
HETATM    4  H           1     -16.623 -11.951  -0.931  0.00  0.00     0.163 HD
ENDROOT
BRANCH   3   5
HETATM    5  C           1     -16.663 -11.544  -3.034  0.00  0.00     0.189 C 
BRANCH   5   6
HETATM    6  C           1     -15.260 -12.049  -3.267  0.00  0.00     0.197 C 
HETATM    7  O           1     -14.624 -11.682  -4.280  0.00  0.00    -0.646 OA
HETATM    8  O           1     -14.733 -12.832  -2.448  0.00  0.00    -0.646 OA
ENDBRANCH   5   6
BRANCH   5   9
HETATM    9  C           1     -16.651 -10.022  -2.981  0.00  0.00     0.074 C 
BRANCH   9  10
HETATM   10  C           1     -17.997  -9.498  -3.377  0.00  0.00    -0.056 A 
HETATM   11  C           1     -18.918  -9.131  -2.396  0.00  0.00     0.010 A 
HETATM   12  C           1     -20.171  -8.642  -2.764  0.00  0.00     0.038 A 
HETATM   13  C           1     -20.504  -8.520  -4.113  0.00  0.00     0.081 A 
HETATM   14  C           1     -19.583  -8.887  -5.094  0.00  0.00     0.038 A 
HETATM   15  C           1     -18.329  -9.375  -4.725  0.00  0.00     0.010 A 
BRANCH  13  16
HETATM   16  O           1     -21.721  -8.045  -4.470  0.00  0.00    -0.247 OA
BRANCH  16  17
HETATM   17  P           1     -21.972  -6.453  -4.373  0.00  0.00     0.411 P 
HETATM   18  O           1     -22.212  -6.076  -2.962  0.00  0.00    -0.624 OA
HETATM   19  O           1     -23.152  -6.088  -5.189  0.00  0.00    -0.624 OA
BRANCH  17  20
HETATM   20  O           1     -20.672  -5.669  -4.926  0.00  0.00    -0.300 OA
HETATM   21  H           1     -20.917  -5.364  -5.783  0.00  0.00     0.223 HD
ENDBRANCH  17  20
ENDBRANCH  16  17
ENDBRANCH  13  16
ENDBRANCH   9  10
ENDBRANCH   5   9
ENDBRANCH   3   5
BRANCH   2  22
HETATM   22  C           1     -18.887 -13.264  -0.432  0.00  0.00     0.278 C 
BRANCH  22  23
HETATM   23  C           1     -19.321 -12.111   0.463  0.00  0.00     0.083 C 
BRANCH  23  24
HETATM   24  C           1     -20.737 -11.741   0.150  0.00  0.00    -0.028 A 
HETATM   25  C           1     -21.691 -12.569  -0.395  0.00  0.00     0.096 A 
HETATM   26  N           1     -22.849 -11.849  -0.522  0.00  0.00    -0.365 N 
HETATM   27  C           1     -22.662 -10.563  -0.066  0.00  0.00     0.042 A 
HETATM   28  H           1     -23.750 -12.223  -0.909  0.00  0.00     0.165 HD
HETATM   29  C           1     -23.554  -9.487  -0.003  0.00  0.00     0.030 A 
HETATM   30  C           1     -21.338 -10.469   0.363  0.00  0.00    -0.002 A 
HETATM   31  C           1     -23.075  -8.279   0.515  0.00  0.00     0.002 A 
HETATM   32  C           1     -21.758  -8.156   0.952  0.00  0.00     0.001 A 
HETATM   33  C           1     -20.878  -9.243   0.881  0.00  0.00     0.014 A 
ENDBRANCH  23  24
ENDBRANCH  22  23
BRANCH  22  34
HETATM   34  N           1     -17.803 -14.046   0.250  0.00  0.00    -0.066 N 
HETATM   35  H           1     -18.225 -14.860   0.753  0.00  0.00     0.275 HD
HETATM   36  H           1     -17.122 -14.392  -0.463  0.00  0.00     0.275 HD
HETATM   37  H           1     -17.309 -13.432   0.935  0.00  0.00     0.275 HD
ENDBRANCH  22  34
ENDBRANCH   2  22
TORSDOF 11
ENDMDL
MODEL 8
REMARK VINA RESULT:      -7.5      2.961      4.577
REMARK  11 active torsions:
REMARK  status: ('A' for Active; 'I' for Inactive)
REMARK    1  A    between atoms: O_2  and  C_3 
REMARK    2  A    between atoms: O_2  and  P_37 
REMARK    3  A    between atoms: C_11  and  C_17 
REMARK    4  A    between atoms: C_17  and  C_18 
REMARK    5  A    between atoms: C_17  and  N_35 
REMARK    6  A    between atoms: C_18  and  C_19 
REMARK    7  A    between atoms: C_22  and  C_23 
REMARK    8  A    between atoms: C_23  and  C_29 
REMARK    9  A    between atoms: N_24  and  C_29 
REMARK   10  A    between atoms: O_25  and  P_37 
REMARK   11  A    between atoms: C_29  and  C_30 
REMARK       I    between atoms: C_30  and  N_35 
ROOT
HETATM    1  O           1     -22.903 -11.341  -3.366  0.00  0.00    -0.271 OA
HETATM    2  C           1     -22.265 -12.157  -2.745  0.00  0.00     0.249 C 
HETATM    3  N           1     -20.898 -12.086  -2.724  0.00  0.00    -0.344 N 
HETATM    4  H           1     -20.363 -12.769  -2.204  0.00  0.00     0.163 HD
ENDROOT
BRANCH   3   5
HETATM    5  C           1     -20.216 -11.030  -3.448  0.00  0.00     0.189 C 
BRANCH   5   6
HETATM    6  C           1     -18.799 -11.454  -3.742  0.00  0.00     0.197 C 
HETATM    7  O           1     -18.060 -10.725  -4.440  0.00  0.00    -0.646 OA
HETATM    8  O           1     -18.362 -12.533  -3.288  0.00  0.00    -0.646 OA
ENDBRANCH   5   6
BRANCH   5   9
HETATM    9  C           1     -20.201  -9.763  -2.602  0.00  0.00     0.074 C 
BRANCH   9  10
HETATM   10  C           1     -20.727  -8.616  -3.409  0.00  0.00    -0.056 A 
HETATM   11  C           1     -20.988  -7.392  -2.794  0.00  0.00     0.010 A 
HETATM   12  C           1     -21.478  -6.324  -3.545  0.00  0.00     0.038 A 
HETATM   13  C           1     -21.706  -6.481  -4.912  0.00  0.00     0.081 A 
HETATM   14  C           1     -21.445  -7.705  -5.528  0.00  0.00     0.038 A 
HETATM   15  C           1     -20.954  -8.772  -4.776  0.00  0.00     0.010 A 
BRANCH  13  16
HETATM   16  O           1     -22.182  -5.443  -5.642  0.00  0.00    -0.247 OA
BRANCH  16  17
HETATM   17  P           1     -21.188  -4.748  -6.709  0.00  0.00     0.411 P 
HETATM   18  O           1     -21.135  -5.566  -7.941  0.00  0.00    -0.624 OA
HETATM   19  O           1     -19.832  -4.644  -6.126  0.00  0.00    -0.624 OA
BRANCH  17  20
HETATM   20  O           1     -21.735  -3.270  -7.068  0.00  0.00    -0.300 OA
HETATM   21  H           1     -22.671  -3.328  -6.978  0.00  0.00     0.223 HD
ENDBRANCH  17  20
ENDBRANCH  16  17
ENDBRANCH  13  16
ENDBRANCH   9  10
ENDBRANCH   5   9
ENDBRANCH   3   5
BRANCH   2  22
HETATM   22  C           1     -22.974 -13.256  -1.992  0.00  0.00     0.278 C 
BRANCH  22  23
HETATM   23  C           1     -23.518 -12.705  -0.681  0.00  0.00     0.083 C 
BRANCH  23  24
HETATM   24  C           1     -22.455 -11.905   0.005  0.00  0.00    -0.028 A 
HETATM   25  C           1     -21.302 -12.402   0.568  0.00  0.00     0.096 A 
HETATM   26  N           1     -20.602 -11.348   1.091  0.00  0.00    -0.365 N 
HETATM   27  C           1     -21.283 -10.171   0.876  0.00  0.00     0.042 A 
HETATM   28  H           1     -19.678 -11.425   1.584  0.00  0.00     0.165 HD
HETATM   29  C           1     -20.955  -8.858   1.231  0.00  0.00     0.030 A 
HETATM   30  C           1     -22.456 -10.495   0.194  0.00  0.00    -0.002 A 
HETATM   31  C           1     -21.855  -7.847   0.877  0.00  0.00     0.002 A 
HETATM   32  C           1     -23.033  -8.142   0.195  0.00  0.00     0.001 A 
HETATM   33  C           1     -23.347  -9.461  -0.153  0.00  0.00     0.014 A 
ENDBRANCH  23  24
ENDBRANCH  22  23
BRANCH  22  34
HETATM   34  N           1     -22.008 -14.367  -1.704  0.00  0.00    -0.066 N 
HETATM   35  H           1     -21.830 -14.910  -2.579  0.00  0.00     0.275 HD
HETATM   36  H           1     -21.109 -13.965  -1.354  0.00  0.00     0.275 HD
HETATM   37  H           1     -22.411 -15.001  -0.977  0.00  0.00     0.275 HD
ENDBRANCH  22  34
ENDBRANCH   2  22
TORSDOF 11
ENDMDL
MODEL 9
REMARK VINA RESULT:      -7.3     16.290     18.383
REMARK  11 active torsions:
REMARK  status: ('A' for Active; 'I' for Inactive)
REMARK    1  A    between atoms: O_2  and  C_3 
REMARK    2  A    between atoms: O_2  and  P_37 
REMARK    3  A    between atoms: C_11  and  C_17 
REMARK    4  A    between atoms: C_17  and  C_18 
REMARK    5  A    between atoms: C_17  and  N_35 
REMARK    6  A    between atoms: C_18  and  C_19 
REMARK    7  A    between atoms: C_22  and  C_23 
REMARK    8  A    between atoms: C_23  and  C_29 
REMARK    9  A    between atoms: N_24  and  C_29 
REMARK   10  A    between atoms: O_25  and  P_37 
REMARK   11  A    between atoms: C_29  and  C_30 
REMARK       I    between atoms: C_30  and  N_35 
ROOT
HETATM    1  O           1     -20.321   8.091   2.613  0.00  0.00    -0.271 OA
HETATM    2  C           1     -20.687   9.057   3.239  0.00  0.00     0.249 C 
HETATM    3  N           1     -21.633   9.896   2.713  0.00  0.00    -0.344 N 
HETATM    4  H           1     -21.940  10.704   3.238  0.00  0.00     0.163 HD
ENDROOT
BRANCH   3   5
HETATM    5  C           1     -22.193   9.625   1.404  0.00  0.00     0.189 C 
BRANCH   5   6
HETATM    6  C           1     -22.242  10.903   0.602  0.00  0.00     0.197 C 
HETATM    7  O           1     -21.634  10.980  -0.488  0.00  0.00    -0.646 OA
HETATM    8  O           1     -22.891  11.883   1.027  0.00  0.00    -0.646 OA
ENDBRANCH   5   6
BRANCH   5   9
HETATM    9  C           1     -23.603   9.071   1.560  0.00  0.00     0.074 C 
BRANCH   9  10
HETATM   10  C           1     -23.972   8.289   0.336  0.00  0.00    -0.056 A 
HETATM   11  C           1     -22.987   7.610  -0.380  0.00  0.00     0.010 A 
HETATM   12  C           1     -23.330   6.881  -1.518  0.00  0.00     0.038 A 
HETATM   13  C           1     -24.658   6.833  -1.941  0.00  0.00     0.081 A 
HETATM   14  C           1     -25.643   7.513  -1.225  0.00  0.00     0.038 A 
HETATM   15  C           1     -25.300   8.240  -0.086  0.00  0.00     0.010 A 
BRANCH  13  16
HETATM   16  O           1     -24.991   6.126  -3.047  0.00  0.00    -0.247 OA
BRANCH  16  17
HETATM   17  P           1     -25.510   6.941  -4.341  0.00  0.00     0.411 P 
HETATM   18  O           1     -26.972   7.151  -4.239  0.00  0.00    -0.624 OA
HETATM   19  O           1     -25.207   6.168  -5.566  0.00  0.00    -0.624 OA
BRANCH  17  20
HETATM   20  O           1     -24.765   8.372  -4.409  0.00  0.00    -0.300 OA
HETATM   21  H           1     -24.950   8.783  -3.581  0.00  0.00     0.223 HD
ENDBRANCH  17  20
ENDBRANCH  16  17
ENDBRANCH  13  16
ENDBRANCH   9  10
ENDBRANCH   5   9
ENDBRANCH   3   5
BRANCH   2  22
HETATM   22  C           1     -20.104   9.339   4.602  0.00  0.00     0.278 C 
BRANCH  22  23
HETATM   23  C           1     -18.727   8.696   4.708  0.00  0.00     0.083 C 
BRANCH  23  24
HETATM   24  C           1     -17.808   9.604   5.464  0.00  0.00    -0.028 A 
HETATM   25  C           1     -18.160  10.780   6.085  0.00  0.00     0.096 A 
HETATM   26  N           1     -17.032  11.305   6.658  0.00  0.00    -0.365 N 
HETATM   27  C           1     -15.951  10.487   6.418  0.00  0.00     0.042 A 
HETATM   28  H           1     -16.997  12.202   7.203  0.00  0.00     0.165 HD
HETATM   29  C           1     -14.613  10.620   6.804  0.00  0.00     0.030 A 
HETATM   30  C           1     -16.414   9.407   5.665  0.00  0.00    -0.002 A 
HETATM   31  C           1     -13.722   9.616   6.407  0.00  0.00     0.002 A 
HETATM   32  C           1     -14.156   8.527   5.656  0.00  0.00     0.001 A 
HETATM   33  C           1     -15.499   8.409   5.278  0.00  0.00     0.014 A 
ENDBRANCH  23  24
ENDBRANCH  22  23
BRANCH  22  34
HETATM   34  N           1     -21.004   8.769   5.658  0.00  0.00    -0.066 N 
HETATM   35  H           1     -20.729   7.780   5.855  0.00  0.00     0.275 HD
HETATM   36  H           1     -20.916   9.336   6.532  0.00  0.00     0.275 HD
HETATM   37  H           1     -21.994   8.795   5.325  0.00  0.00     0.275 HD
ENDBRANCH  22  34
ENDBRANCH   2  22
TORSDOF 11
ENDMDL
