MODEL 1
REMARK VINA RESULT:      -5.4      0.000      0.000
REMARK  5 active torsions:
REMARK  status: ('A' for Active; 'I' for Inactive)
REMARK    1  A    between atoms: C_2  and  C_7 
REMARK    2  A    between atoms: C_7  and  C_8 
REMARK    3  A    between atoms: C_7  and  N_15 
REMARK    4  A    between atoms: C_8  and  Se_12 
REMARK       I    between atoms: C_9  and  N_15 
REMARK    5  A    between atoms: C_9  and  C_10 
ROOT
HETATM    1  C           1     -22.170  -4.785  -7.902  0.00  0.00     0.251 C 
HETATM    2  H           1     -21.381  -5.253  -9.756  0.00  0.00     0.163 HD
HETATM    3  N           1     -22.005  -4.636  -9.252  0.00  0.00    -0.345 N 
HETATM    4  O           1     -22.913  -4.047  -7.299  0.00  0.00    -0.271 OA
ENDROOT
BRANCH   3   5
HETATM    5  C           1     -22.722  -3.594  -9.960  0.00  0.00     0.185 C 
BRANCH   5   6
HETATM    6  C           1     -24.006  -4.158 -10.518  0.00  0.00     0.196 C 
HETATM    7  O           1     -24.121  -5.391 -10.698  0.00  0.00    -0.646 OA
HETATM    8  O           1     -24.954  -3.394 -10.798  0.00  0.00    -0.646 OA
ENDBRANCH   5   6
BRANCH   5   9
HETATM    9  C           1     -21.861  -3.070 -11.102  0.00  0.00     0.039 C 
BRANCH   9  10
HETATM   10 Se           1     -20.185  -4.065 -11.164  0.00  0.00     0.000 Se
HETATM   11  H           1     -19.805  -3.736  -9.780  0.00  0.00     0.000 HD
ENDBRANCH   9  10
ENDBRANCH   5   9
ENDBRANCH   3   5
BRANCH   1  12
HETATM   12  C           1     -21.422  -5.868  -7.164  0.00  0.00     0.311 C 
HETATM   13  C           1     -21.322  -5.544  -5.684  0.00  0.00     0.047 C 
HETATM   14  C           1     -19.973  -4.853  -5.519  0.00  0.00     0.033 C 
HETATM   15  C           1     -19.369  -4.825  -6.912  0.00  0.00     0.271 C 
HETATM   16  N           1     -20.030  -5.930  -7.602  0.00  0.00     0.097 N 
HETATM   17  H           1     -19.601  -6.812  -7.321  0.00  0.00     0.317 HD
ENDBRANCH   1  12
TORSDOF 5
ENDMDL
MODEL 2
REMARK VINA RESULT:      -5.2     10.925     12.319
REMARK  5 active torsions:
REMARK  status: ('A' for Active; 'I' for Inactive)
REMARK    1  A    between atoms: C_2  and  C_7 
REMARK    2  A    between atoms: C_7  and  C_8 
REMARK    3  A    between atoms: C_7  and  N_15 
REMARK    4  A    between atoms: C_8  and  Se_12 
REMARK       I    between atoms: C_9  and  N_15 
REMARK    5  A    between atoms: C_9  and  C_10 
ROOT
HETATM    1  C           1     -27.420  -6.216 -19.508  0.00  0.00     0.251 C 
HETATM    2  H           1     -26.299  -7.667 -18.550  0.00  0.00     0.163 HD
HETATM    3  N           1     -26.330  -7.025 -19.330  0.00  0.00    -0.345 N 
HETATM    4  O           1     -27.457  -5.448 -20.440  0.00  0.00    -0.271 OA
ENDROOT
BRANCH   3   5
HETATM    5  C           1     -25.220  -6.961 -20.260  0.00  0.00     0.185 C 
BRANCH   5   6
HETATM    6  C           1     -25.399  -8.009 -21.330  0.00  0.00     0.196 C 
HETATM    7  O           1     -26.457  -8.674 -21.382  0.00  0.00    -0.646 OA
HETATM    8  O           1     -24.490  -8.213 -22.164  0.00  0.00    -0.646 OA
ENDBRANCH   5   6
BRANCH   5   9
HETATM    9  C           1     -23.917  -7.215 -19.514  0.00  0.00     0.039 C 
BRANCH   9  10
HETATM   10 Se           1     -24.249  -7.181 -17.593  0.00  0.00     0.000 Se
HETATM   11  H           1     -25.514  -6.437 -17.708  0.00  0.00     0.000 HD
ENDBRANCH   9  10
ENDBRANCH   5   9
ENDBRANCH   3   5
BRANCH   1  12
HETATM   12  C           1     -28.576  -6.283 -18.540  0.00  0.00     0.311 C 
HETATM   13  C           1     -29.256  -4.930 -18.418  0.00  0.00     0.047 C 
HETATM   14  C           1     -28.609  -4.268 -17.207  0.00  0.00     0.033 C 
HETATM   15  C           1     -27.597  -5.279 -16.695  0.00  0.00     0.271 C 
HETATM   16  N           1     -28.104  -6.558 -17.185  0.00  0.00     0.097 N 
HETATM   17  H           1     -28.872  -6.870 -16.592  0.00  0.00     0.317 HD
ENDBRANCH   1  12
TORSDOF 5
ENDMDL
MODEL 3
REMARK VINA RESULT:      -5.2      2.413      2.741
REMARK  5 active torsions:
REMARK  status: ('A' for Active; 'I' for Inactive)
REMARK    1  A    between atoms: C_2  and  C_7 
REMARK    2  A    between atoms: C_7  and  C_8 
REMARK    3  A    between atoms: C_7  and  N_15 
REMARK    4  A    between atoms: C_8  and  Se_12 
REMARK       I    between atoms: C_9  and  N_15 
REMARK    5  A    between atoms: C_9  and  C_10 
ROOT
HETATM    1  C           1     -21.079  -4.619  -8.232  0.00  0.00     0.251 C 
HETATM    2  H           1     -22.828  -3.614  -8.693  0.00  0.00     0.163 HD
HETATM    3  N           1     -22.080  -4.189  -9.060  0.00  0.00    -0.345 N 
HETATM    4  O           1     -20.186  -5.305  -8.669  0.00  0.00    -0.271 OA
ENDROOT
BRANCH   3   5
HETATM    5  C           1     -22.070  -4.556 -10.462  0.00  0.00     0.185 C 
BRANCH   5   6
HETATM    6  C           1     -21.304  -3.520 -11.247  0.00  0.00     0.196 C 
HETATM    7  O           1     -20.085  -3.685 -11.478  0.00  0.00    -0.646 OA
HETATM    8  O           1     -21.886  -2.497 -11.668  0.00  0.00    -0.646 OA
ENDBRANCH   5   6
BRANCH   5   9
HETATM    9  C           1     -23.501  -4.627 -10.979  0.00  0.00     0.039 C 
BRANCH   9  10
HETATM   10 Se           1     -24.662  -3.559  -9.833  0.00  0.00     0.000 Se
HETATM   11  H           1     -25.696  -4.600  -9.716  0.00  0.00     0.000 HD
ENDBRANCH   9  10
ENDBRANCH   5   9
ENDBRANCH   3   5
BRANCH   1  12
HETATM   12  C           1     -21.090  -4.237  -6.772  0.00  0.00     0.311 C 
HETATM   13  C           1     -19.883  -4.814  -6.053  0.00  0.00     0.047 C 
HETATM   14  C           1     -20.369  -6.128  -5.453  0.00  0.00     0.033 C 
HETATM   15  C           1     -21.831  -6.230  -5.853  0.00  0.00     0.271 C 
HETATM   16  N           1     -22.227  -4.843  -6.085  0.00  0.00     0.097 N 
HETATM   17  H           1     -22.396  -4.383  -5.190  0.00  0.00     0.317 HD
ENDBRANCH   1  12
TORSDOF 5
ENDMDL
MODEL 4
REMARK VINA RESULT:      -4.8      3.948      6.211
REMARK  5 active torsions:
REMARK  status: ('A' for Active; 'I' for Inactive)
REMARK    1  A    between atoms: C_2  and  C_7 
REMARK    2  A    between atoms: C_7  and  C_8 
REMARK    3  A    between atoms: C_7  and  N_15 
REMARK    4  A    between atoms: C_8  and  Se_12 
REMARK       I    between atoms: C_9  and  N_15 
REMARK    5  A    between atoms: C_9  and  C_10 
ROOT
HETATM    1  C           1     -21.386  -5.407  -5.600  0.00  0.00     0.251 C 
HETATM    2  H           1     -19.703  -6.069  -4.594  0.00  0.00     0.163 HD
HETATM    3  N           1     -20.694  -6.216  -4.739  0.00  0.00    -0.345 N 
HETATM    4  O           1     -22.569  -5.582  -5.774  0.00  0.00    -0.271 OA
ENDROOT
BRANCH   3   5
HETATM    5  C           1     -21.379  -7.281  -4.035  0.00  0.00     0.185 C 
BRANCH   5   6
HETATM    6  C           1     -21.605  -6.872  -2.601  0.00  0.00     0.196 C 
HETATM    7  O           1     -20.952  -7.418  -1.684  0.00  0.00    -0.646 OA
HETATM    8  O           1     -22.444  -5.986  -2.328  0.00  0.00    -0.646 OA
ENDBRANCH   5   6
BRANCH   5   9
HETATM    9  C           1     -20.529  -8.545  -4.074  0.00  0.00     0.039 C 
BRANCH   9  10
HETATM   10 Se           1     -21.687 -10.111  -3.978  0.00  0.00     0.000 Se
HETATM   11  H           1     -21.414 -10.368  -2.554  0.00  0.00     0.000 HD
ENDBRANCH   9  10
ENDBRANCH   5   9
ENDBRANCH   3   5
BRANCH   1  12
HETATM   12  C           1     -20.672  -4.298  -6.333  0.00  0.00     0.311 C 
HETATM   13  C           1     -21.563  -3.701  -7.409  0.00  0.00     0.047 C 
HETATM   14  C           1     -21.191  -4.443  -8.688  0.00  0.00     0.033 C 
HETATM   15  C           1     -20.103  -5.419  -8.278  0.00  0.00     0.271 C 
HETATM   16  N           1     -19.528  -4.818  -7.077  0.00  0.00     0.097 N 
HETATM   17  H           1     -18.896  -4.064  -7.343  0.00  0.00     0.317 HD
ENDBRANCH   1  12
TORSDOF 5
ENDMDL
MODEL 5
REMARK VINA RESULT:      -4.8      9.148     10.894
REMARK  5 active torsions:
REMARK  status: ('A' for Active; 'I' for Inactive)
REMARK    1  A    between atoms: C_2  and  C_7 
REMARK    2  A    between atoms: C_7  and  C_8 
REMARK    3  A    between atoms: C_7  and  N_15 
REMARK    4  A    between atoms: C_8  and  Se_12 
REMARK       I    between atoms: C_9  and  N_15 
REMARK    5  A    between atoms: C_9  and  C_10 
ROOT
HETATM    1  C           1     -27.763  -6.043 -16.495  0.00  0.00     0.251 C 
HETATM    2  H           1     -26.103  -4.941 -17.054  0.00  0.00     0.163 HD
HETATM    3  N           1     -26.485  -5.873 -16.956  0.00  0.00    -0.345 N 
HETATM    4  O           1     -28.220  -7.155 -16.379  0.00  0.00    -0.271 OA
ENDROOT
BRANCH   3   5
HETATM    5  C           1     -25.680  -7.027 -17.303  0.00  0.00     0.185 C 
BRANCH   5   6
HETATM    6  C           1     -24.844  -7.433 -16.115  0.00  0.00     0.196 C 
HETATM    7  O           1     -23.894  -8.232 -16.263  0.00  0.00    -0.646 OA
HETATM    8  O           1     -25.101  -6.969 -14.983  0.00  0.00    -0.646 OA
ENDBRANCH   5   6
BRANCH   5   9
HETATM    9  C           1     -24.765  -6.676 -18.470  0.00  0.00     0.039 C 
BRANCH   9  10
HETATM   10 Se           1     -25.757  -6.824 -20.142  0.00  0.00     0.000 Se
HETATM   11  H           1     -26.796  -5.859 -19.746  0.00  0.00     0.000 HD
ENDBRANCH   9  10
ENDBRANCH   5   9
ENDBRANCH   3   5
BRANCH   1  12
HETATM   12  C           1     -28.601  -4.842 -16.134  0.00  0.00     0.311 C 
HETATM   13  C           1     -30.072  -5.215 -16.049  0.00  0.00     0.047 C 
HETATM   14  C           1     -30.644  -4.885 -17.423  0.00  0.00     0.033 C 
HETATM   15  C           1     -29.474  -4.334 -18.219  0.00  0.00     0.271 C 
HETATM   16  N           1     -28.557  -3.839 -17.195  0.00  0.00     0.097 N 
HETATM   17  H           1     -28.885  -2.936 -16.852  0.00  0.00     0.317 HD
ENDBRANCH   1  12
TORSDOF 5
ENDMDL
MODEL 6
REMARK VINA RESULT:      -4.7     17.466     19.215
REMARK  5 active torsions:
REMARK  status: ('A' for Active; 'I' for Inactive)
REMARK    1  A    between atoms: C_2  and  C_7 
REMARK    2  A    between atoms: C_7  and  C_8 
REMARK    3  A    between atoms: C_7  and  N_15 
REMARK    4  A    between atoms: C_8  and  Se_12 
REMARK       I    between atoms: C_9  and  N_15 
REMARK    5  A    between atoms: C_9  and  C_10 
ROOT
HETATM    1  C           1     -12.193   7.252 -20.568  0.00  0.00     0.251 C 
HETATM    2  H           1     -11.635   5.396 -19.844  0.00  0.00     0.163 HD
HETATM    3  N           1     -12.249   5.888 -20.482  0.00  0.00    -0.345 N 
HETATM    4  O           1     -12.924   7.840 -21.330  0.00  0.00    -0.271 OA
ENDROOT
BRANCH   3   5
HETATM    5  C           1     -13.186   5.146 -21.302  0.00  0.00     0.185 C 
BRANCH   5   6
HETATM    6  C           1     -14.505   5.033 -20.580  0.00  0.00     0.196 C 
HETATM    7  O           1     -15.568   5.324 -21.172  0.00  0.00    -0.646 OA
HETATM    8  O           1     -14.536   4.648 -19.391  0.00  0.00    -0.646 OA
ENDBRANCH   5   6
BRANCH   5   9
HETATM    9  C           1     -12.633   3.752 -21.571  0.00  0.00     0.039 C 
BRANCH   9  10
HETATM   10 Se           1     -11.220   3.354 -20.288  0.00  0.00     0.000 Se
HETATM   11  H           1     -10.392   4.511 -20.666  0.00  0.00     0.000 HD
ENDBRANCH   9  10
ENDBRANCH   5   9
ENDBRANCH   3   5
BRANCH   1  12
HETATM   12  C           1     -11.216   8.024 -19.714  0.00  0.00     0.311 C 
HETATM   13  C           1     -10.823   9.328 -20.387  0.00  0.00     0.047 C 
HETATM   14  C           1      -9.532   9.015 -21.135  0.00  0.00     0.033 C 
HETATM   15  C           1      -9.251   7.552 -20.844  0.00  0.00     0.271 C 
HETATM   16  N           1      -9.953   7.303 -19.588  0.00  0.00     0.097 N 
HETATM   17  H           1      -9.403   7.671 -18.812  0.00  0.00     0.317 HD
ENDBRANCH   1  12
TORSDOF 5
ENDMDL
MODEL 7
REMARK VINA RESULT:      -4.5      6.277      8.069
REMARK  5 active torsions:
REMARK  status: ('A' for Active; 'I' for Inactive)
REMARK    1  A    between atoms: C_2  and  C_7 
REMARK    2  A    between atoms: C_7  and  C_8 
REMARK    3  A    between atoms: C_7  and  N_15 
REMARK    4  A    between atoms: C_8  and  Se_12 
REMARK       I    between atoms: C_9  and  N_15 
REMARK    5  A    between atoms: C_9  and  C_10 
ROOT
HETATM    1  C           1     -20.909  -9.145  -1.571  0.00  0.00     0.251 C 
HETATM    2  H           1     -22.687  -8.539  -2.438  0.00  0.00     0.163 HD
HETATM    3  N           1     -21.679  -8.521  -2.516  0.00  0.00    -0.345 N 
HETATM    4  O           1     -19.705  -9.126  -1.664  0.00  0.00    -0.271 OA
ENDROOT
BRANCH   3   5
HETATM    5  C           1     -21.050  -7.835  -3.626  0.00  0.00     0.185 C 
BRANCH   5   6
HETATM    6  C           1     -21.460  -6.384  -3.618  0.00  0.00     0.196 C 
HETATM    7  O           1     -21.013  -5.602  -4.486  0.00  0.00    -0.646 OA
HETATM    8  O           1     -22.248  -5.962  -2.743  0.00  0.00    -0.646 OA
ENDBRANCH   5   6
BRANCH   5   9
HETATM    9  C           1     -21.489  -8.478  -4.936  0.00  0.00     0.039 C 
BRANCH   9  10
HETATM   10 Se           1     -20.603 -10.203  -5.143  0.00  0.00     0.000 Se
HETATM   11  H           1     -21.712 -10.812  -5.896  0.00  0.00     0.000 HD
ENDBRANCH   9  10
ENDBRANCH   5   9
ENDBRANCH   3   5
BRANCH   1  12
HETATM   12  C           1     -21.564  -9.861  -0.415  0.00  0.00     0.311 C 
HETATM   13  C           1     -23.052  -9.555  -0.363  0.00  0.00     0.047 C 
HETATM   14  C           1     -23.183  -8.390   0.611  0.00  0.00     0.033 C 
HETATM   15  C           1     -21.766  -8.096   1.072  0.00  0.00     0.271 C 
HETATM   16  N           1     -21.061  -9.358   0.860  0.00  0.00     0.097 N 
HETATM   17  H           1     -21.284 -10.003   1.617  0.00  0.00     0.317 HD
ENDBRANCH   1  12
TORSDOF 5
ENDMDL
MODEL 8
REMARK VINA RESULT:      -4.5      1.732      2.285
REMARK  5 active torsions:
REMARK  status: ('A' for Active; 'I' for Inactive)
REMARK    1  A    between atoms: C_2  and  C_7 
REMARK    2  A    between atoms: C_7  and  C_8 
REMARK    3  A    between atoms: C_7  and  N_15 
REMARK    4  A    between atoms: C_8  and  Se_12 
REMARK       I    between atoms: C_9  and  N_15 
REMARK    5  A    between atoms: C_9  and  C_10 
ROOT
HETATM    1  C           1     -20.855  -4.593  -6.711  0.00  0.00     0.251 C 
HETATM    2  H           1     -20.695  -6.030  -8.190  0.00  0.00     0.163 HD
HETATM    3  N           1     -20.972  -5.079  -7.985  0.00  0.00    -0.345 N 
HETATM    4  O           1     -21.185  -3.457  -6.465  0.00  0.00    -0.271 OA
ENDROOT
BRANCH   3   5
HETATM    5  C           1     -21.494  -4.233  -9.039  0.00  0.00     0.185 C 
BRANCH   5   6
HETATM    6  C           1     -22.960  -4.525  -9.239  0.00  0.00     0.196 C 
HETATM    7  O           1     -23.332  -5.226 -10.206  0.00  0.00    -0.646 OA
HETATM    8  O           1     -23.804  -4.066  -8.438  0.00  0.00    -0.646 OA
ENDBRANCH   5   6
BRANCH   5   9
HETATM    9  C           1     -20.740  -4.511 -10.334  0.00  0.00     0.039 C 
BRANCH   9  10
HETATM   10 Se           1     -21.019  -3.037 -11.579  0.00  0.00     0.000 Se
HETATM   11  H           1     -22.078  -3.725 -12.337  0.00  0.00     0.000 HD
ENDBRANCH   9  10
ENDBRANCH   5   9
ENDBRANCH   3   5
BRANCH   1  12
HETATM   12  C           1     -20.311  -5.474  -5.613  0.00  0.00     0.311 C 
HETATM   13  C           1     -20.168  -6.909  -6.093  0.00  0.00     0.047 C 
HETATM   14  C           1     -21.456  -7.601  -5.664  0.00  0.00     0.033 C 
HETATM   15  C           1     -22.266  -6.530  -4.955  0.00  0.00     0.271 C 
HETATM   16  N           1     -21.259  -5.571  -4.506  0.00  0.00     0.097 N 
HETATM   17  H           1     -20.800  -5.927  -3.668  0.00  0.00     0.317 HD
ENDBRANCH   1  12
TORSDOF 5
ENDMDL
MODEL 9
REMARK VINA RESULT:      -4.4     10.365     11.591
REMARK  5 active torsions:
REMARK  status: ('A' for Active; 'I' for Inactive)
REMARK    1  A    between atoms: C_2  and  C_7 
REMARK    2  A    between atoms: C_7  and  C_8 
REMARK    3  A    between atoms: C_7  and  N_15 
REMARK    4  A    between atoms: C_8  and  Se_12 
REMARK       I    between atoms: C_9  and  N_15 
REMARK    5  A    between atoms: C_9  and  C_10 
ROOT
HETATM    1  C           1     -27.860  -6.176 -18.648  0.00  0.00     0.251 C 
HETATM    2  H           1     -26.196  -5.273 -17.815  0.00  0.00     0.163 HD
HETATM    3  N           1     -26.522  -6.032 -18.398  0.00  0.00    -0.345 N 
HETATM    4  O           1     -28.251  -7.082 -19.345  0.00  0.00    -0.271 OA
ENDROOT
BRANCH   3   5
HETATM    5  C           1     -25.573  -6.967 -18.969  0.00  0.00     0.185 C 
BRANCH   5   6
HETATM    6  C           1     -24.361  -7.060 -18.076  0.00  0.00     0.196 C 
HETATM    7  O           1     -24.493  -7.381 -16.874  0.00  0.00    -0.646 OA
HETATM    8  O           1     -23.224  -6.818 -18.538  0.00  0.00    -0.646 OA
ENDBRANCH   5   6
BRANCH   5   9
HETATM    9  C           1     -25.149  -6.482 -20.350  0.00  0.00     0.039 C 
BRANCH   9  10
HETATM   10 Se           1     -24.781  -8.017 -21.494  0.00  0.00     0.000 Se
HETATM   11  H           1     -23.385  -7.630 -21.759  0.00  0.00     0.000 HD
ENDBRANCH   9  10
ENDBRANCH   5   9
ENDBRANCH   3   5
BRANCH   1  12
HETATM   12  C           1     -28.849  -5.202 -18.054  0.00  0.00     0.311 C 
HETATM   13  C           1     -28.209  -4.399 -16.934  0.00  0.00     0.047 C 
HETATM   14  C           1     -28.566  -5.150 -15.655  0.00  0.00     0.033 C 
HETATM   15  C           1     -29.396  -6.337 -16.110  0.00  0.00     0.271 C 
HETATM   16  N           1     -29.943  -5.909 -17.395  0.00  0.00     0.097 N 
HETATM   17  H           1     -30.734  -5.284 -17.237  0.00  0.00     0.317 HD
ENDBRANCH   1  12
TORSDOF 5
ENDMDL
