MODEL 1
REMARK VINA RESULT:      -6.6      0.000      0.000
REMARK  9 active torsions:
REMARK  status: ('A' for Active; 'I' for Inactive)
REMARK    1  A    between atoms: C_2  and  C_19 
REMARK    2  A    between atoms: N_5  and  C_7 
REMARK       I    between atoms: N_5  and  C_15 
REMARK    3  A    between atoms: O_6  and  C_12 
REMARK    4  A    between atoms: C_7  and  C_14 
REMARK    5  A    between atoms: C_7  and  C_18 
REMARK    6  A    between atoms: N_11  and  C_13 
REMARK    7  A    between atoms: C_12  and  C_13 
REMARK    8  A    between atoms: C_13  and  C_15 
REMARK    9  A    between atoms: C_14  and  C_19 
ROOT
HETATM    1  N           1     -27.566  -6.397 -19.107  0.00  0.00    -0.345 N 
HETATM    2  O           1     -26.058  -6.270 -17.464  0.00  0.00    -0.271 OA
HETATM    3  C           1     -26.279  -6.440 -18.640  0.00  0.00     0.251 C 
HETATM    4  H           1     -27.753  -6.539 -20.091  0.00  0.00     0.163 HD
ENDROOT
BRANCH   1   5
HETATM    5  C           1     -28.663  -6.148 -18.190  0.00  0.00     0.186 C 
BRANCH   5   6
HETATM    6  C           1     -29.394  -4.879 -18.607  0.00  0.00     0.046 C 
BRANCH   6   7
HETATM    7  C           1     -29.657  -4.017 -17.380  0.00  0.00     0.116 C 
BRANCH   7   8
HETATM    8  C           1     -31.143  -3.815 -17.216  0.00  0.00     0.172 C 
HETATM    9  O           1     -31.747  -2.994 -17.940  0.00  0.00    -0.648 OA
HETATM   10  O           1     -31.772  -4.468 -16.354  0.00  0.00    -0.648 OA
ENDBRANCH   7   8
ENDBRANCH   6   7
ENDBRANCH   5   6
BRANCH   5  11
HETATM   11  C           1     -29.619  -7.314 -18.223  0.00  0.00     0.196 C 
HETATM   12  O           1     -30.582  -7.355 -17.426  0.00  0.00    -0.646 OA
HETATM   13  O           1     -29.449  -8.240 -19.045  0.00  0.00    -0.646 OA
ENDBRANCH   5  11
ENDBRANCH   1   5
BRANCH   3  14
HETATM   14  C           1     -25.140  -6.699 -19.593  0.00  0.00     0.302 C 
BRANCH  14  15
HETATM   15  N           1     -24.188  -7.682 -18.977  0.00  0.00    -0.064 N 
HETATM   16  H           1     -24.529  -8.655 -19.153  0.00  0.00     0.275 HD
HETATM   17  H           1     -23.242  -7.564 -19.404  0.00  0.00     0.275 HD
HETATM   18  H           1     -24.132  -7.514 -17.948  0.00  0.00     0.275 HD
ENDBRANCH  14  15
BRANCH  14  19
HETATM   19  C           1     -25.686  -7.270 -20.895  0.00  0.00     0.153 C 
HETATM   20  C           1     -24.533  -7.786 -21.746  0.00  0.00     0.042 C 
BRANCH  19  21
HETATM   21  O           1     -26.565  -8.325 -20.611  0.00  0.00    -0.393 OA
HETATM   22  H           1     -26.750  -8.755 -21.429  0.00  0.00     0.210 HD
ENDBRANCH  19  21
ENDBRANCH  14  19
ENDBRANCH   3  14
TORSDOF 9
ENDMDL
MODEL 2
REMARK VINA RESULT:      -6.0      1.624      2.892
REMARK  9 active torsions:
REMARK  status: ('A' for Active; 'I' for Inactive)
REMARK    1  A    between atoms: C_2  and  C_19 
REMARK    2  A    between atoms: N_5  and  C_7 
REMARK       I    between atoms: N_5  and  C_15 
REMARK    3  A    between atoms: O_6  and  C_12 
REMARK    4  A    between atoms: C_7  and  C_14 
REMARK    5  A    between atoms: C_7  and  C_18 
REMARK    6  A    between atoms: N_11  and  C_13 
REMARK    7  A    between atoms: C_12  and  C_13 
REMARK    8  A    between atoms: C_13  and  C_15 
REMARK    9  A    between atoms: C_14  and  C_19 
ROOT
HETATM    1  N           1     -26.735  -6.370 -18.078  0.00  0.00    -0.345 N 
HETATM    2  O           1     -27.198  -6.277 -20.261  0.00  0.00    -0.271 OA
HETATM    3  C           1     -26.373  -6.457 -19.396  0.00  0.00     0.251 C 
HETATM    4  H           1     -26.046  -6.520 -17.353  0.00  0.00     0.163 HD
ENDROOT
BRANCH   1   5
HETATM    5  C           1     -28.107  -6.062 -17.721  0.00  0.00     0.186 C 
BRANCH   5   6
HETATM    6  C           1     -28.510  -6.884 -16.504  0.00  0.00     0.046 C 
BRANCH   6   7
HETATM    7  C           1     -29.371  -8.059 -16.947  0.00  0.00     0.116 C 
BRANCH   7   8
HETATM    8  C           1     -30.511  -7.556 -17.799  0.00  0.00     0.172 C 
HETATM    9  O           1     -31.273  -6.667 -17.361  0.00  0.00    -0.648 OA
HETATM   10  O           1     -30.693  -8.028 -18.942  0.00  0.00    -0.648 OA
ENDBRANCH   7   8
ENDBRANCH   6   7
ENDBRANCH   5   6
BRANCH   5  11
HETATM   11  C           1     -28.224  -4.593 -17.399  0.00  0.00     0.196 C 
HETATM   12  O           1     -29.070  -3.889 -17.994  0.00  0.00    -0.646 OA
HETATM   13  O           1     -27.477  -4.079 -16.539  0.00  0.00    -0.646 OA
ENDBRANCH   5  11
ENDBRANCH   1   5
BRANCH   3  14
HETATM   14  C           1     -24.947  -6.776 -19.767  0.00  0.00     0.302 C 
BRANCH  14  15
HETATM   15  N           1     -24.321  -7.599 -18.680  0.00  0.00    -0.064 N 
HETATM   16  H           1     -24.919  -8.435 -18.487  0.00  0.00     0.275 HD
HETATM   17  H           1     -23.372  -7.913 -18.983  0.00  0.00     0.275 HD
HETATM   18  H           1     -24.238  -7.024 -17.812  0.00  0.00     0.275 HD
ENDBRANCH  14  15
BRANCH  14  19
HETATM   19  C           1     -24.924  -7.560 -21.073  0.00  0.00     0.153 C 
HETATM   20  C           1     -23.571  -8.241 -21.232  0.00  0.00     0.042 C 
BRANCH  19  21
HETATM   21  O           1     -25.935  -8.532 -21.052  0.00  0.00    -0.393 OA
HETATM   22  H           1     -25.783  -9.101 -21.788  0.00  0.00     0.210 HD
ENDBRANCH  19  21
ENDBRANCH  14  19
ENDBRANCH   3  14
TORSDOF 9
ENDMDL
MODEL 3
REMARK VINA RESULT:      -5.8      1.701      2.348
REMARK  9 active torsions:
REMARK  status: ('A' for Active; 'I' for Inactive)
REMARK    1  A    between atoms: C_2  and  C_19 
REMARK    2  A    between atoms: N_5  and  C_7 
REMARK       I    between atoms: N_5  and  C_15 
REMARK    3  A    between atoms: O_6  and  C_12 
REMARK    4  A    between atoms: C_7  and  C_14 
REMARK    5  A    between atoms: C_7  and  C_18 
REMARK    6  A    between atoms: N_11  and  C_13 
REMARK    7  A    between atoms: C_12  and  C_13 
REMARK    8  A    between atoms: C_13  and  C_15 
REMARK    9  A    between atoms: C_14  and  C_19 
ROOT
HETATM    1  N           1     -26.987  -6.774 -19.245  0.00  0.00    -0.345 N 
HETATM    2  O           1     -24.834  -6.184 -19.316  0.00  0.00    -0.271 OA
HETATM    3  C           1     -25.696  -6.955 -19.666  0.00  0.00     0.251 C 
HETATM    4  H           1     -27.709  -7.419 -19.537  0.00  0.00     0.163 HD
ENDROOT
BRANCH   1   5
HETATM    5  C           1     -27.318  -5.657 -18.380  0.00  0.00     0.186 C 
BRANCH   5   6
HETATM    6  C           1     -28.775  -5.269 -18.589  0.00  0.00     0.046 C 
BRANCH   6   7
HETATM    7  C           1     -29.085  -4.010 -17.791  0.00  0.00     0.116 C 
BRANCH   7   8
HETATM    8  C           1     -30.519  -4.053 -17.319  0.00  0.00     0.172 C 
HETATM    9  O           1     -30.937  -5.042 -16.679  0.00  0.00    -0.648 OA
HETATM   10  O           1     -31.288  -3.100 -17.568  0.00  0.00    -0.648 OA
ENDBRANCH   7   8
ENDBRANCH   6   7
ENDBRANCH   5   6
BRANCH   5  11
HETATM   11  C           1     -27.104  -6.057 -16.941  0.00  0.00     0.196 C 
HETATM   12  O           1     -27.869  -6.887 -16.403  0.00  0.00    -0.646 OA
HETATM   13  O           1     -26.163  -5.559 -16.286  0.00  0.00    -0.646 OA
ENDBRANCH   5  11
ENDBRANCH   1   5
BRANCH   3  14
HETATM   14  C           1     -25.352  -8.116 -20.565  0.00  0.00     0.302 C 
BRANCH  14  15
HETATM   15  N           1     -26.580  -8.554 -21.305  0.00  0.00    -0.064 N 
HETATM   16  H           1     -26.385  -9.452 -21.805  0.00  0.00     0.275 HD
HETATM   17  H           1     -27.363  -8.698 -20.628  0.00  0.00     0.275 HD
HETATM   18  H           1     -26.849  -7.821 -22.000  0.00  0.00     0.275 HD
ENDBRANCH  14  15
BRANCH  14  19
HETATM   19  C           1     -24.284  -7.687 -21.563  0.00  0.00     0.153 C 
HETATM   20  C           1     -22.963  -8.359 -21.212  0.00  0.00     0.042 C 
BRANCH  19  21
HETATM   21  O           1     -24.672  -8.068 -22.855  0.00  0.00    -0.393 OA
HETATM   22  H           1     -24.076  -8.742 -23.132  0.00  0.00     0.210 HD
ENDBRANCH  19  21
ENDBRANCH  14  19
ENDBRANCH   3  14
TORSDOF 9
ENDMDL
MODEL 4
REMARK VINA RESULT:      -5.8     12.244     13.797
REMARK  9 active torsions:
REMARK  status: ('A' for Active; 'I' for Inactive)
REMARK    1  A    between atoms: C_2  and  C_19 
REMARK    2  A    between atoms: N_5  and  C_7 
REMARK       I    between atoms: N_5  and  C_15 
REMARK    3  A    between atoms: O_6  and  C_12 
REMARK    4  A    between atoms: C_7  and  C_14 
REMARK    5  A    between atoms: C_7  and  C_18 
REMARK    6  A    between atoms: N_11  and  C_13 
REMARK    7  A    between atoms: C_12  and  C_13 
REMARK    8  A    between atoms: C_13  and  C_15 
REMARK    9  A    between atoms: C_14  and  C_19 
ROOT
HETATM    1  N           1     -21.197  -4.900  -6.781  0.00  0.00    -0.345 N 
HETATM    2  O           1     -21.142  -7.129  -6.902  0.00  0.00    -0.271 OA
HETATM    3  C           1     -21.027  -6.138  -6.221  0.00  0.00     0.251 C 
HETATM    4  H           1     -21.101  -4.069  -6.211  0.00  0.00     0.163 HD
ENDROOT
BRANCH   1   5
HETATM    5  C           1     -21.514  -4.779  -8.192  0.00  0.00     0.186 C 
BRANCH   5   6
HETATM    6  C           1     -22.587  -3.715  -8.380  0.00  0.00     0.046 C 
BRANCH   6   7
HETATM    7  C           1     -23.754  -4.304  -9.163  0.00  0.00     0.116 C 
BRANCH   7   8
HETATM    8  C           1     -23.961  -3.510 -10.430  0.00  0.00     0.172 C 
HETATM    9  O           1     -25.117  -3.202 -10.793  0.00  0.00    -0.648 OA
HETATM   10  O           1     -22.977  -3.159 -11.117  0.00  0.00    -0.648 OA
ENDBRANCH   7   8
ENDBRANCH   6   7
ENDBRANCH   5   6
BRANCH   5  11
HETATM   11  C           1     -20.273  -4.383  -8.953  0.00  0.00     0.196 C 
HETATM   12  O           1     -20.154  -4.693 -10.158  0.00  0.00    -0.646 OA
HETATM   13  O           1     -19.363  -3.747  -8.379  0.00  0.00    -0.646 OA
ENDBRANCH   5  11
ENDBRANCH   1   5
BRANCH   3  14
HETATM   14  C           1     -20.698  -6.263  -4.755  0.00  0.00     0.302 C 
BRANCH  14  15
HETATM   15  N           1     -20.258  -4.930  -4.226  0.00  0.00    -0.064 N 
HETATM   16  H           1     -19.825  -5.054  -3.283  0.00  0.00     0.275 HD
HETATM   17  H           1     -19.557  -4.511  -4.878  0.00  0.00     0.275 HD
HETATM   18  H           1     -21.085  -4.296  -4.148  0.00  0.00     0.275 HD
ENDBRANCH  14  15
BRANCH  14  19
HETATM   19  C           1     -21.933  -6.728  -3.994  0.00  0.00     0.153 C 
HETATM   20  C           1     -21.880  -6.195  -2.568  0.00  0.00     0.042 C 
BRANCH  19  21
HETATM   21  O           1     -23.084  -6.243  -4.631  0.00  0.00    -0.393 OA
HETATM   22  H           1     -22.809  -5.539  -5.193  0.00  0.00     0.210 HD
ENDBRANCH  19  21
ENDBRANCH  14  19
ENDBRANCH   3  14
TORSDOF 9
ENDMDL
MODEL 5
REMARK VINA RESULT:      -5.7      1.914      2.224
REMARK  9 active torsions:
REMARK  status: ('A' for Active; 'I' for Inactive)
REMARK    1  A    between atoms: C_2  and  C_19 
REMARK    2  A    between atoms: N_5  and  C_7 
REMARK       I    between atoms: N_5  and  C_15 
REMARK    3  A    between atoms: O_6  and  C_12 
REMARK    4  A    between atoms: C_7  and  C_14 
REMARK    5  A    between atoms: C_7  and  C_18 
REMARK    6  A    between atoms: N_11  and  C_13 
REMARK    7  A    between atoms: C_12  and  C_13 
REMARK    8  A    between atoms: C_13  and  C_15 
REMARK    9  A    between atoms: C_14  and  C_19 
ROOT
HETATM    1  N           1     -27.817  -6.893 -19.523  0.00  0.00    -0.345 N 
HETATM    2  O           1     -25.918  -6.265 -18.529  0.00  0.00    -0.271 OA
HETATM    3  C           1     -26.464  -6.681 -19.524  0.00  0.00     0.251 C 
HETATM    4  H           1     -28.275  -7.243 -20.356  0.00  0.00     0.163 HD
ENDROOT
BRANCH   1   5
HETATM    5  C           1     -28.594  -6.618 -18.330  0.00  0.00     0.186 C 
BRANCH   5   6
HETATM    6  C           1     -29.365  -5.319 -18.516  0.00  0.00     0.046 C 
BRANCH   6   7
HETATM    7  C           1     -29.819  -4.798 -17.159  0.00  0.00     0.116 C 
BRANCH   7   8
HETATM    8  C           1     -28.622  -4.649 -16.251  0.00  0.00     0.172 C 
HETATM    9  O           1     -28.548  -5.319 -15.198  0.00  0.00    -0.648 OA
HETATM   10  O           1     -27.705  -3.854 -16.552  0.00  0.00    -0.648 OA
ENDBRANCH   7   8
ENDBRANCH   6   7
ENDBRANCH   5   6
BRANCH   5  11
HETATM   11  C           1     -29.563  -7.750 -18.090  0.00  0.00     0.196 C 
HETATM   12  O           1     -30.299  -8.149 -19.019  0.00  0.00    -0.646 OA
HETATM   13  O           1     -29.631  -8.288 -16.964  0.00  0.00    -0.646 OA
ENDBRANCH   5  11
ENDBRANCH   1   5
BRANCH   3  14
HETATM   14  C           1     -25.656  -6.968 -20.765  0.00  0.00     0.302 C 
BRANCH  14  15
HETATM   15  N           1     -25.029  -5.697 -21.256  0.00  0.00    -0.064 N 
HETATM   16  H           1     -24.718  -5.821 -22.247  0.00  0.00     0.275 HD
HETATM   17  H           1     -25.729  -4.922 -21.207  0.00  0.00     0.275 HD
HETATM   18  H           1     -24.204  -5.461 -20.660  0.00  0.00     0.275 HD
ENDBRANCH  14  15
BRANCH  14  19
HETATM   19  C           1     -24.564  -7.978 -20.438  0.00  0.00     0.153 C 
HETATM   20  C           1     -23.730  -8.244 -21.685  0.00  0.00     0.042 C 
BRANCH  19  21
HETATM   21  O           1     -23.739  -7.465 -19.427  0.00  0.00    -0.393 OA
HETATM   22  H           1     -24.035  -6.588 -19.252  0.00  0.00     0.210 HD
ENDBRANCH  19  21
ENDBRANCH  14  19
ENDBRANCH   3  14
TORSDOF 9
ENDMDL
MODEL 6
REMARK VINA RESULT:      -5.5     12.604     14.171
REMARK  9 active torsions:
REMARK  status: ('A' for Active; 'I' for Inactive)
REMARK    1  A    between atoms: C_2  and  C_19 
REMARK    2  A    between atoms: N_5  and  C_7 
REMARK       I    between atoms: N_5  and  C_15 
REMARK    3  A    between atoms: O_6  and  C_12 
REMARK    4  A    between atoms: C_7  and  C_14 
REMARK    5  A    between atoms: C_7  and  C_18 
REMARK    6  A    between atoms: N_11  and  C_13 
REMARK    7  A    between atoms: C_12  and  C_13 
REMARK    8  A    between atoms: C_13  and  C_15 
REMARK    9  A    between atoms: C_14  and  C_19 
ROOT
HETATM    1  N           1     -21.487  -5.501  -7.819  0.00  0.00    -0.345 N 
HETATM    2  O           1     -22.688  -3.620  -7.905  0.00  0.00    -0.271 OA
HETATM    3  C           1     -22.196  -4.549  -8.502  0.00  0.00     0.251 C 
HETATM    4  H           1     -21.074  -6.279  -8.317  0.00  0.00     0.163 HD
ENDROOT
BRANCH   1   5
HETATM    5  C           1     -21.327  -5.395  -6.381  0.00  0.00     0.186 C 
BRANCH   5   6
HETATM    6  C           1     -21.418  -6.781  -5.757  0.00  0.00     0.046 C 
BRANCH   6   7
HETATM    7  C           1     -22.499  -6.786  -4.685  0.00  0.00     0.116 C 
BRANCH   7   8
HETATM    8  C           1     -21.860  -6.649  -3.324  0.00  0.00     0.172 C 
HETATM    9  O           1     -20.800  -7.258  -3.068  0.00  0.00    -0.648 OA
HETATM   10  O           1     -22.392  -5.925  -2.454  0.00  0.00    -0.648 OA
ENDBRANCH   7   8
ENDBRANCH   6   7
ENDBRANCH   5   6
BRANCH   5  11
HETATM   11  C           1     -19.981  -4.789  -6.070  0.00  0.00     0.196 C 
HETATM   12  O           1     -19.723  -4.403  -4.908  0.00  0.00    -0.646 OA
HETATM   13  O           1     -19.123  -4.672  -6.971  0.00  0.00    -0.646 OA
ENDBRANCH   5  11
ENDBRANCH   1   5
BRANCH   3  14
HETATM   14  C           1     -22.362  -4.659  -9.996  0.00  0.00     0.302 C 
BRANCH  14  15
HETATM   15  N           1     -23.462  -3.744 -10.445  0.00  0.00    -0.064 N 
HETATM   16  H           1     -24.385  -4.221 -10.324  0.00  0.00     0.275 HD
HETATM   17  H           1     -23.445  -2.871  -9.872  0.00  0.00     0.275 HD
HETATM   18  H           1     -23.326  -3.504 -11.453  0.00  0.00     0.275 HD
ENDBRANCH  14  15
BRANCH  14  19
HETATM   19  C           1     -21.061  -4.263 -10.683  0.00  0.00     0.153 C 
HETATM   20  C           1     -21.296  -3.027 -11.541  0.00  0.00     0.042 C 
BRANCH  19  21
HETATM   21  O           1     -20.088  -3.980  -9.714  0.00  0.00    -0.393 OA
HETATM   22  H           1     -19.656  -3.188  -9.983  0.00  0.00     0.210 HD
ENDBRANCH  19  21
ENDBRANCH  14  19
ENDBRANCH   3  14
TORSDOF 9
ENDMDL
MODEL 7
REMARK VINA RESULT:      -5.4     14.822     16.136
REMARK  9 active torsions:
REMARK  status: ('A' for Active; 'I' for Inactive)
REMARK    1  A    between atoms: C_2  and  C_19 
REMARK    2  A    between atoms: N_5  and  C_7 
REMARK       I    between atoms: N_5  and  C_15 
REMARK    3  A    between atoms: O_6  and  C_12 
REMARK    4  A    between atoms: C_7  and  C_14 
REMARK    5  A    between atoms: C_7  and  C_18 
REMARK    6  A    between atoms: N_11  and  C_13 
REMARK    7  A    between atoms: C_12  and  C_13 
REMARK    8  A    between atoms: C_13  and  C_15 
REMARK    9  A    between atoms: C_14  and  C_19 
ROOT
HETATM    1  N           1     -21.594  -7.865  -4.903  0.00  0.00    -0.345 N 
HETATM    2  O           1     -19.687  -7.361  -5.952  0.00  0.00    -0.271 OA
HETATM    3  C           1     -20.855  -7.109  -5.775  0.00  0.00     0.251 C 
HETATM    4  H           1     -22.572  -7.655  -4.754  0.00  0.00     0.163 HD
ENDROOT
BRANCH   1   5
HETATM    5  C           1     -20.973  -8.968  -4.195  0.00  0.00     0.186 C 
BRANCH   5   6
HETATM    6  C           1     -21.440  -8.966  -2.745  0.00  0.00     0.046 C 
BRANCH   6   7
HETATM    7  C           1     -20.926  -7.714  -2.048  0.00  0.00     0.116 C 
BRANCH   7   8
HETATM    8  C           1     -22.077  -6.773  -1.788  0.00  0.00     0.172 C 
HETATM    9  O           1     -22.713  -6.843  -0.714  0.00  0.00    -0.648 OA
HETATM   10  O           1     -22.396  -5.923  -2.648  0.00  0.00    -0.648 OA
ENDBRANCH   7   8
ENDBRANCH   6   7
ENDBRANCH   5   6
BRANCH   5  11
HETATM   11  C           1     -21.367 -10.270  -4.849  0.00  0.00     0.196 C 
HETATM   12  O           1     -22.106 -11.075  -4.242  0.00  0.00    -0.646 OA
HETATM   13  O           1     -20.954 -10.543  -5.996  0.00  0.00    -0.646 OA
ENDBRANCH   5  11
ENDBRANCH   1   5
BRANCH   3  14
HETATM   14  C           1     -21.501  -5.962  -6.512  0.00  0.00     0.302 C 
BRANCH  14  15
HETATM   15  N           1     -22.733  -5.527  -5.776  0.00  0.00    -0.064 N 
HETATM   16  H           1     -23.454  -6.283  -5.824  0.00  0.00     0.275 HD
HETATM   17  H           1     -22.494  -5.339  -4.776  0.00  0.00     0.275 HD
HETATM   18  H           1     -23.112  -4.658  -6.214  0.00  0.00     0.275 HD
ENDBRANCH  14  15
BRANCH  14  19
HETATM   19  C           1     -20.523  -4.798  -6.596  0.00  0.00     0.153 C 
HETATM   20  C           1     -21.226  -3.587  -7.196  0.00  0.00     0.042 C 
BRANCH  19  21
HETATM   21  O           1     -20.063  -4.479  -5.310  0.00  0.00    -0.393 OA
HETATM   22  H           1     -19.662  -3.628  -5.366  0.00  0.00     0.210 HD
ENDBRANCH  19  21
ENDBRANCH  14  19
ENDBRANCH   3  14
TORSDOF 9
ENDMDL
MODEL 8
REMARK VINA RESULT:      -5.4     14.239     15.638
REMARK  9 active torsions:
REMARK  status: ('A' for Active; 'I' for Inactive)
REMARK    1  A    between atoms: C_2  and  C_19 
REMARK    2  A    between atoms: N_5  and  C_7 
REMARK       I    between atoms: N_5  and  C_15 
REMARK    3  A    between atoms: O_6  and  C_12 
REMARK    4  A    between atoms: C_7  and  C_14 
REMARK    5  A    between atoms: C_7  and  C_18 
REMARK    6  A    between atoms: N_11  and  C_13 
REMARK    7  A    between atoms: C_12  and  C_13 
REMARK    8  A    between atoms: C_13  and  C_15 
REMARK    9  A    between atoms: C_14  and  C_19 
ROOT
HETATM    1  N           1     -20.777  -6.276  -6.121  0.00  0.00    -0.345 N 
HETATM    2  O           1     -20.018  -4.365  -5.249  0.00  0.00    -0.271 OA
HETATM    3  C           1     -20.438  -4.952  -6.217  0.00  0.00     0.251 C 
HETATM    4  H           1     -21.128  -6.768  -6.932  0.00  0.00     0.163 HD
ENDROOT
BRANCH   1   5
HETATM    5  C           1     -20.632  -6.971  -4.857  0.00  0.00     0.186 C 
BRANCH   5   6
HETATM    6  C           1     -21.927  -6.854  -4.063  0.00  0.00     0.046 C 
BRANCH   6   7
HETATM    7  C           1     -21.637  -6.223  -2.708  0.00  0.00     0.116 C 
BRANCH   7   8
HETATM    8  C           1     -22.005  -7.193  -1.612  0.00  0.00     0.172 C 
HETATM    9  O           1     -21.566  -8.363  -1.638  0.00  0.00    -0.648 OA
HETATM   10  O           1     -22.750  -6.826  -0.677  0.00  0.00    -0.648 OA
ENDBRANCH   7   8
ENDBRANCH   6   7
ENDBRANCH   5   6
BRANCH   5  11
HETATM   11  C           1     -20.330  -8.427  -5.116  0.00  0.00     0.196 C 
HETATM   12  O           1     -21.173  -9.302  -4.822  0.00  0.00    -0.646 OA
HETATM   13  O           1     -19.238  -8.758  -5.625  0.00  0.00    -0.646 OA
ENDBRANCH   5  11
ENDBRANCH   1   5
BRANCH   3  14
HETATM   14  C           1     -20.588  -4.229  -7.532  0.00  0.00     0.302 C 
BRANCH  14  15
HETATM   15  N           1     -20.144  -5.127  -8.649  0.00  0.00    -0.064 N 
HETATM   16  H           1     -20.810  -5.928  -8.739  0.00  0.00     0.275 HD
HETATM   17  H           1     -20.127  -4.587  -9.544  0.00  0.00     0.275 HD
HETATM   18  H           1     -19.188  -5.493  -8.443  0.00  0.00     0.275 HD
ENDBRANCH  14  15
BRANCH  14  19
HETATM   19  C           1     -22.048  -3.847  -7.739  0.00  0.00     0.153 C 
HETATM   20  C           1     -22.542  -4.426  -9.058  0.00  0.00     0.042 C 
BRANCH  19  21
HETATM   21  O           1     -22.819  -4.361  -6.686  0.00  0.00    -0.393 OA
HETATM   22  H           1     -23.685  -4.506  -7.027  0.00  0.00     0.210 HD
ENDBRANCH  19  21
ENDBRANCH  14  19
ENDBRANCH   3  14
TORSDOF 9
ENDMDL
MODEL 9
REMARK VINA RESULT:      -5.4     19.655     21.303
REMARK  9 active torsions:
REMARK  status: ('A' for Active; 'I' for Inactive)
REMARK    1  A    between atoms: C_2  and  C_19 
REMARK    2  A    between atoms: N_5  and  C_7 
REMARK       I    between atoms: N_5  and  C_15 
REMARK    3  A    between atoms: O_6  and  C_12 
REMARK    4  A    between atoms: C_7  and  C_14 
REMARK    5  A    between atoms: C_7  and  C_18 
REMARK    6  A    between atoms: N_11  and  C_13 
REMARK    7  A    between atoms: C_12  and  C_13 
REMARK    8  A    between atoms: C_13  and  C_15 
REMARK    9  A    between atoms: C_14  and  C_19 
ROOT
HETATM    1  N           1     -12.555   7.606 -19.941  0.00  0.00    -0.345 N 
HETATM    2  O           1     -11.930   6.637 -21.854  0.00  0.00    -0.271 OA
HETATM    3  C           1     -12.498   6.535 -20.793  0.00  0.00     0.251 C 
HETATM    4  H           1     -13.031   7.521 -19.052  0.00  0.00     0.163 HD
ENDROOT
BRANCH   1   5
HETATM    5  C           1     -11.934   8.863 -20.314  0.00  0.00     0.186 C 
BRANCH   5   6
HETATM    6  C           1     -12.765  10.019 -19.774  0.00  0.00     0.046 C 
BRANCH   6   7
HETATM    7  C           1     -13.154   9.733 -18.329  0.00  0.00     0.116 C 
BRANCH   7   8
HETATM    8  C           1     -14.453  10.433 -18.010  0.00  0.00     0.172 C 
HETATM    9  O           1     -14.864  10.481 -16.830  0.00  0.00    -0.648 OA
HETATM   10  O           1     -15.118  10.965 -18.926  0.00  0.00    -0.648 OA
ENDBRANCH   7   8
ENDBRANCH   6   7
ENDBRANCH   5   6
BRANCH   5  11
HETATM   11  C           1     -10.543   8.927 -19.733  0.00  0.00     0.196 C 
HETATM   12  O           1     -10.228   8.176 -18.784  0.00  0.00    -0.646 OA
HETATM   13  O           1      -9.706   9.730 -20.198  0.00  0.00    -0.646 OA
ENDBRANCH   5  11
ENDBRANCH   1   5
BRANCH   3  14
HETATM   14  C           1     -13.144   5.228 -20.404  0.00  0.00     0.302 C 
BRANCH  14  15
HETATM   15  N           1     -13.432   4.428 -21.640  0.00  0.00    -0.064 N 
HETATM   16  H           1     -13.755   3.471 -21.369  0.00  0.00     0.275 HD
HETATM   17  H           1     -14.180   4.902 -22.195  0.00  0.00     0.275 HD
HETATM   18  H           1     -12.564   4.351 -22.216  0.00  0.00     0.275 HD
ENDBRANCH  14  15
BRANCH  14  19
HETATM   19  C           1     -12.201   4.444 -19.501  0.00  0.00     0.153 C 
HETATM   20  C           1     -11.417   3.440 -20.335  0.00  0.00     0.042 C 
BRANCH  19  21
HETATM   21  O           1     -11.310   5.328 -18.875  0.00  0.00    -0.393 OA
HETATM   22  H           1     -11.714   6.179 -18.890  0.00  0.00     0.210 HD
ENDBRANCH  19  21
ENDBRANCH  14  19
ENDBRANCH   3  14
TORSDOF 9
ENDMDL
