MODEL 1
REMARK VINA RESULT:      -5.4      0.000      0.000
REMARK  9 active torsions:
REMARK  status: ('A' for Active; 'I' for Inactive)
REMARK    1  A    between atoms: N_2  and  C_5 
REMARK    2  A    between atoms: C_5  and  C_8 
REMARK    3  A    between atoms: C_5  and  C_12 
REMARK    4  A    between atoms: N_6  and  C_7 
REMARK       I    between atoms: N_6  and  C_8 
REMARK    5  A    between atoms: C_7  and  C_16 
REMARK    6  A    between atoms: C_7  and  C_13 
REMARK    7  A    between atoms: S_11  and  C_14 
REMARK    8  A    between atoms: C_12  and  C_14 
REMARK    9  A    between atoms: Se_15  and  C_16 
ROOT
HETATM    1  H           1     -27.400  -6.969 -18.613  0.00  0.00     0.163 HD
HETATM    2  O           1     -24.303  -6.475 -18.575  0.00  0.00    -0.271 OA
HETATM    3  N           1     -26.507  -6.645 -18.264  0.00  0.00    -0.345 N 
HETATM    4  C           1     -25.368  -6.863 -18.991  0.00  0.00     0.249 C 
ENDROOT
BRANCH   4   5
HETATM    5  C           1     -25.444  -7.585 -20.314  0.00  0.00     0.275 C 
BRANCH   5   6
HETATM    6  N           1     -26.877  -7.882 -20.639  0.00  0.00    -0.066 N 
HETATM    7  H           1     -26.939  -8.300 -21.595  0.00  0.00     0.275 HD
HETATM    8  H           1     -27.260  -8.558 -19.940  0.00  0.00     0.275 HD
HETATM    9  H           1     -27.432  -6.997 -20.609  0.00  0.00     0.275 HD
ENDBRANCH   5   6
BRANCH   5  10
HETATM   10  C           1     -24.847  -6.709 -21.407  0.00  0.00     0.053 C 
BRANCH  10  11
HETATM   11  C           1     -24.042  -7.575 -22.369  0.00  0.00     0.076 C 
BRANCH  11  12
HETATM   12  S           1     -22.803  -8.521 -21.440  0.00  0.00    -0.173 SA
HETATM   13  C           1     -21.930  -9.181 -22.888  0.00  0.00     0.089 C 
ENDBRANCH  11  12
ENDBRANCH  10  11
ENDBRANCH   5  10
ENDBRANCH   4   5
BRANCH   3  14
HETATM   14  C           1     -26.434  -5.951 -16.993  0.00  0.00     0.185 C 
BRANCH  14  15
HETATM   15  C           1     -27.665  -5.069 -16.826  0.00  0.00     0.039 C 
BRANCH  15  16
HETATM   16 Se           1     -28.808  -5.245 -18.395  0.00  0.00     0.000 Se
HETATM   17  H           1     -27.772  -5.883 -19.223  0.00  0.00     0.000 HD
ENDBRANCH  15  16
ENDBRANCH  14  15
BRANCH  14  18
HETATM   18  C           1     -26.382  -6.960 -15.872  0.00  0.00     0.196 C 
HETATM   19  O           1     -25.278  -7.345 -15.429  0.00  0.00    -0.646 OA
HETATM   20  O           1     -27.442  -7.410 -15.386  0.00  0.00    -0.646 OA
ENDBRANCH  14  18
ENDBRANCH   3  14
TORSDOF 9
ENDMDL
MODEL 2
REMARK VINA RESULT:      -5.3     11.505     12.961
REMARK  9 active torsions:
REMARK  status: ('A' for Active; 'I' for Inactive)
REMARK    1  A    between atoms: N_2  and  C_5 
REMARK    2  A    between atoms: C_5  and  C_8 
REMARK    3  A    between atoms: C_5  and  C_12 
REMARK    4  A    between atoms: N_6  and  C_7 
REMARK       I    between atoms: N_6  and  C_8 
REMARK    5  A    between atoms: C_7  and  C_16 
REMARK    6  A    between atoms: C_7  and  C_13 
REMARK    7  A    between atoms: S_11  and  C_14 
REMARK    8  A    between atoms: C_12  and  C_14 
REMARK    9  A    between atoms: Se_15  and  C_16 
ROOT
HETATM    1  H           1     -35.380  -1.859 -13.817  0.00  0.00     0.163 HD
HETATM    2  O           1     -33.757  -1.825 -11.134  0.00  0.00    -0.271 OA
HETATM    3  N           1     -34.970  -1.476 -12.975  0.00  0.00    -0.345 N 
HETATM    4  C           1     -34.248  -2.283 -12.138  0.00  0.00     0.249 C 
ENDROOT
BRANCH   4   5
HETATM    5  C           1     -34.064  -3.743 -12.470  0.00  0.00     0.275 C 
BRANCH   5   6
HETATM    6  N           1     -33.877  -3.899 -13.950  0.00  0.00    -0.066 N 
HETATM    7  H           1     -32.896  -4.199 -14.148  0.00  0.00     0.275 HD
HETATM    8  H           1     -34.540  -4.622 -14.310  0.00  0.00     0.275 HD
HETATM    9  H           1     -34.065  -2.987 -14.423  0.00  0.00     0.275 HD
ENDBRANCH   5   6
BRANCH   5  10
HETATM   10  C           1     -32.836  -4.279 -11.745  0.00  0.00     0.053 C 
BRANCH  10  11
HETATM   11  C           1     -33.107  -5.701 -11.269  0.00  0.00     0.076 C 
BRANCH  11  12
HETATM   12  S           1     -34.724  -5.765 -10.446  0.00  0.00    -0.173 SA
HETATM   13  C           1     -34.716  -7.552 -10.130  0.00  0.00     0.089 C 
ENDBRANCH  11  12
ENDBRANCH  10  11
ENDBRANCH   5  10
ENDBRANCH   4   5
BRANCH   3  14
HETATM   14  C           1     -35.146  -0.073 -12.657  0.00  0.00     0.185 C 
BRANCH  14  15
HETATM   15  C           1     -35.263   0.729 -13.947  0.00  0.00     0.039 C 
BRANCH  15  16
HETATM   16 Se           1     -35.632  -0.478 -15.431  0.00  0.00     0.000 Se
HETATM   17  H           1     -34.462  -0.057 -16.217  0.00  0.00     0.000 HD
ENDBRANCH  15  16
ENDBRANCH  14  15
BRANCH  14  18
HETATM   18  C           1     -36.403   0.102 -11.839  0.00  0.00     0.196 C 
HETATM   19  O           1     -37.522  -0.060 -12.372  0.00  0.00    -0.646 OA
HETATM   20  O           1     -36.324   0.408 -10.630  0.00  0.00    -0.646 OA
ENDBRANCH  14  18
ENDBRANCH   3  14
TORSDOF 9
ENDMDL
MODEL 3
REMARK VINA RESULT:      -5.2     10.651     13.086
REMARK  9 active torsions:
REMARK  status: ('A' for Active; 'I' for Inactive)
REMARK    1  A    between atoms: N_2  and  C_5 
REMARK    2  A    between atoms: C_5  and  C_8 
REMARK    3  A    between atoms: C_5  and  C_12 
REMARK    4  A    between atoms: N_6  and  C_7 
REMARK       I    between atoms: N_6  and  C_8 
REMARK    5  A    between atoms: C_7  and  C_16 
REMARK    6  A    between atoms: C_7  and  C_13 
REMARK    7  A    between atoms: S_11  and  C_14 
REMARK    8  A    between atoms: C_12  and  C_14 
REMARK    9  A    between atoms: Se_15  and  C_16 
ROOT
HETATM    1  H           1     -22.330  -5.694  -9.450  0.00  0.00     0.163 HD
HETATM    2  O           1     -21.803  -3.574  -7.199  0.00  0.00    -0.271 OA
HETATM    3  N           1     -22.325  -4.788  -8.998  0.00  0.00    -0.345 N 
HETATM    4  C           1     -21.809  -4.656  -7.738  0.00  0.00     0.249 C 
ENDROOT
BRANCH   4   5
HETATM    5  C           1     -21.248  -5.859  -7.021  0.00  0.00     0.275 C 
BRANCH   5   6
HETATM    6  N           1     -19.853  -6.123  -7.506  0.00  0.00    -0.066 N 
HETATM    7  H           1     -19.583  -5.394  -8.204  0.00  0.00     0.275 HD
HETATM    8  H           1     -19.191  -6.092  -6.698  0.00  0.00     0.275 HD
HETATM    9  H           1     -19.813  -7.066  -7.954  0.00  0.00     0.275 HD
ENDBRANCH   5   6
BRANCH   5  10
HETATM   10  C           1     -21.220  -5.591  -5.522  0.00  0.00     0.053 C 
BRANCH  10  11
HETATM   11  C           1     -22.147  -6.571  -4.814  0.00  0.00     0.076 C 
BRANCH  11  12
HETATM   12  S           1     -21.302  -7.265  -3.365  0.00  0.00    -0.173 SA
HETATM   13  C           1     -22.109  -6.202  -2.135  0.00  0.00     0.089 C 
ENDBRANCH  11  12
ENDBRANCH  10  11
ENDBRANCH   5  10
ENDBRANCH   4   5
BRANCH   3  14
HETATM   14  C           1     -22.864  -3.632  -9.687  0.00  0.00     0.185 C 
BRANCH  14  15
HETATM   15  C           1     -22.015  -3.332 -10.915  0.00  0.00     0.039 C 
BRANCH  15  16
HETATM   16 Se           1     -20.354  -4.347 -10.821  0.00  0.00     0.000 Se
HETATM   17  H           1     -20.348  -4.424  -9.351  0.00  0.00     0.000 HD
ENDBRANCH  15  16
ENDBRANCH  14  15
BRANCH  14  18
HETATM   18  C           1     -24.283  -3.919 -10.113  0.00  0.00     0.196 C 
HETATM   19  O           1     -24.833  -4.989  -9.774  0.00  0.00    -0.646 OA
HETATM   20  O           1     -24.909  -3.086 -10.804  0.00  0.00    -0.646 OA
ENDBRANCH  14  18
ENDBRANCH   3  14
TORSDOF 9
ENDMDL
MODEL 4
REMARK VINA RESULT:      -5.1      2.231      3.256
REMARK  9 active torsions:
REMARK  status: ('A' for Active; 'I' for Inactive)
REMARK    1  A    between atoms: N_2  and  C_5 
REMARK    2  A    between atoms: C_5  and  C_8 
REMARK    3  A    between atoms: C_5  and  C_12 
REMARK    4  A    between atoms: N_6  and  C_7 
REMARK       I    between atoms: N_6  and  C_8 
REMARK    5  A    between atoms: C_7  and  C_16 
REMARK    6  A    between atoms: C_7  and  C_13 
REMARK    7  A    between atoms: S_11  and  C_14 
REMARK    8  A    between atoms: C_12  and  C_14 
REMARK    9  A    between atoms: Se_15  and  C_16 
ROOT
HETATM    1  H           1     -27.524  -6.183 -17.988  0.00  0.00     0.163 HD
HETATM    2  O           1     -26.387  -7.362 -15.313  0.00  0.00    -0.271 OA
HETATM    3  N           1     -27.539  -6.558 -17.048  0.00  0.00    -0.345 N 
HETATM    4  C           1     -26.369  -6.915 -16.435  0.00  0.00     0.249 C 
ENDROOT
BRANCH   4   5
HETATM    5  C           1     -25.056  -6.752 -17.161  0.00  0.00     0.275 C 
BRANCH   5   6
HETATM    6  N           1     -24.134  -7.872 -16.782  0.00  0.00    -0.066 N 
HETATM    7  H           1     -23.387  -7.969 -17.507  0.00  0.00     0.275 HD
HETATM    8  H           1     -23.694  -7.664 -15.857  0.00  0.00     0.275 HD
HETATM    9  H           1     -24.676  -8.763 -16.718  0.00  0.00     0.275 HD
ENDBRANCH   5   6
BRANCH   5  10
HETATM   10  C           1     -25.298  -6.781 -18.664  0.00  0.00     0.053 C 
BRANCH  10  11
HETATM   11  C           1     -24.047  -7.289 -19.370  0.00  0.00     0.076 C 
BRANCH  11  12
HETATM   12  S           1     -24.490  -7.895 -21.023  0.00  0.00    -0.173 SA
HETATM   13  C           1     -22.835  -8.497 -21.464  0.00  0.00     0.089 C 
ENDBRANCH  11  12
ENDBRANCH  10  11
ENDBRANCH   5  10
ENDBRANCH   4   5
BRANCH   3  14
HETATM   14  C           1     -28.801  -6.716 -16.351  0.00  0.00     0.185 C 
BRANCH  14  15
HETATM   15  C           1     -29.265  -5.362 -15.830  0.00  0.00     0.039 C 
BRANCH  15  16
HETATM   16 Se           1     -28.682  -3.960 -17.053  0.00  0.00     0.000 Se
HETATM   17  H           1     -28.352  -3.004 -15.984  0.00  0.00     0.000 HD
ENDBRANCH  15  16
ENDBRANCH  14  15
BRANCH  14  18
HETATM   18  C           1     -29.834  -7.270 -17.301  0.00  0.00     0.196 C 
HETATM   19  O           1     -30.982  -6.777 -17.334  0.00  0.00    -0.646 OA
HETATM   20  O           1     -29.541  -8.222 -18.056  0.00  0.00    -0.646 OA
ENDBRANCH  14  18
ENDBRANCH   3  14
TORSDOF 9
ENDMDL
MODEL 5
REMARK VINA RESULT:      -4.6     12.272     14.309
REMARK  9 active torsions:
REMARK  status: ('A' for Active; 'I' for Inactive)
REMARK    1  A    between atoms: N_2  and  C_5 
REMARK    2  A    between atoms: C_5  and  C_8 
REMARK    3  A    between atoms: C_5  and  C_12 
REMARK    4  A    between atoms: N_6  and  C_7 
REMARK       I    between atoms: N_6  and  C_8 
REMARK    5  A    between atoms: C_7  and  C_16 
REMARK    6  A    between atoms: C_7  and  C_13 
REMARK    7  A    between atoms: S_11  and  C_14 
REMARK    8  A    between atoms: C_12  and  C_14 
REMARK    9  A    between atoms: Se_15  and  C_16 
ROOT
HETATM    1  H           1     -19.894  -6.781  -4.958  0.00  0.00     0.163 HD
HETATM    2  O           1     -22.680  -5.571  -5.742  0.00  0.00    -0.271 OA
HETATM    3  N           1     -20.898  -6.650  -4.940  0.00  0.00    -0.345 N 
HETATM    4  C           1     -21.482  -5.726  -5.763  0.00  0.00     0.249 C 
ENDROOT
BRANCH   4   5
HETATM    5  C           1     -20.631  -4.901  -6.697  0.00  0.00     0.275 C 
BRANCH   5   6
HETATM    6  N           1     -20.105  -5.776  -7.796  0.00  0.00    -0.066 N 
HETATM    7  H           1     -20.576  -6.707  -7.756  0.00  0.00     0.275 HD
HETATM    8  H           1     -20.298  -5.328  -8.720  0.00  0.00     0.275 HD
HETATM    9  H           1     -19.074  -5.901  -7.678  0.00  0.00     0.275 HD
ENDBRANCH   5   6
BRANCH   5  10
HETATM   10  C           1     -21.473  -3.783  -7.299  0.00  0.00     0.053 C 
BRANCH  10  11
HETATM   11  C           1     -21.779  -4.106  -8.756  0.00  0.00     0.076 C 
BRANCH  11  12
HETATM   12  S           1     -23.570  -4.013  -9.032  0.00  0.00    -0.173 SA
HETATM   13  C           1     -23.562  -4.815 -10.661  0.00  0.00     0.089 C 
ENDBRANCH  11  12
ENDBRANCH  10  11
ENDBRANCH   5  10
ENDBRANCH   4   5
BRANCH   3  14
HETATM   14  C           1     -21.715  -7.443  -4.043  0.00  0.00     0.185 C 
BRANCH  14  15
HETATM   15  C           1     -21.214  -8.882  -4.038  0.00  0.00     0.039 C 
BRANCH  15  16
HETATM   16 Se           1     -19.451  -8.959  -4.865  0.00  0.00     0.000 Se
HETATM   17  H           1     -19.513 -10.403  -5.137  0.00  0.00     0.000 HD
ENDBRANCH  15  16
ENDBRANCH  14  15
BRANCH  14  18
HETATM   18  C           1     -21.626  -6.874  -2.648  0.00  0.00     0.196 C 
HETATM   19  O           1     -22.359  -5.917  -2.315  0.00  0.00    -0.646 OA
HETATM   20  O           1     -20.820  -7.360  -1.825  0.00  0.00    -0.646 OA
ENDBRANCH  14  18
ENDBRANCH   3  14
TORSDOF 9
ENDMDL
MODEL 6
REMARK VINA RESULT:      -4.6     18.466     19.503
REMARK  9 active torsions:
REMARK  status: ('A' for Active; 'I' for Inactive)
REMARK    1  A    between atoms: N_2  and  C_5 
REMARK    2  A    between atoms: C_5  and  C_8 
REMARK    3  A    between atoms: C_5  and  C_12 
REMARK    4  A    between atoms: N_6  and  C_7 
REMARK       I    between atoms: N_6  and  C_8 
REMARK    5  A    between atoms: C_7  and  C_16 
REMARK    6  A    between atoms: C_7  and  C_13 
REMARK    7  A    between atoms: S_11  and  C_14 
REMARK    8  A    between atoms: C_12  and  C_14 
REMARK    9  A    between atoms: Se_15  and  C_16 
ROOT
HETATM    1  H           1     -10.643   4.531 -21.190  0.00  0.00     0.163 HD
HETATM    2  O           1     -12.494   6.406 -19.488  0.00  0.00    -0.271 OA
HETATM    3  N           1     -11.503   4.902 -20.807  0.00  0.00    -0.345 N 
HETATM    4  C           1     -11.466   5.964 -19.945  0.00  0.00     0.249 C 
ENDROOT
BRANCH   4   5
HETATM    5  C           1     -10.144   6.583 -19.565  0.00  0.00     0.275 C 
BRANCH   5   6
HETATM    6  N           1      -9.349   5.602 -18.755  0.00  0.00    -0.066 N 
HETATM    7  H           1      -9.817   5.450 -17.833  0.00  0.00     0.275 HD
HETATM    8  H           1      -9.289   4.694 -19.268  0.00  0.00     0.275 HD
HETATM    9  H           1      -8.386   5.978 -18.599  0.00  0.00     0.275 HD
ENDBRANCH   5   6
BRANCH   5  10
HETATM   10  C           1      -9.370   6.944 -20.826  0.00  0.00     0.053 C 
BRANCH  10  11
HETATM   11  C           1      -9.296   8.460 -20.960  0.00  0.00     0.076 C 
BRANCH  11  12
HETATM   12  S           1     -10.604   9.033 -22.080  0.00  0.00    -0.173 SA
HETATM   13  C           1     -11.634   9.810 -20.804  0.00  0.00     0.089 C 
ENDBRANCH  11  12
ENDBRANCH  10  11
ENDBRANCH   5  10
ENDBRANCH   4   5
BRANCH   3  14
HETATM   14  C           1     -12.774   4.307 -21.172  0.00  0.00     0.185 C 
BRANCH  14  15
HETATM   15  C           1     -13.160   4.756 -22.576  0.00  0.00     0.039 C 
BRANCH  15  16
HETATM   16 Se           1     -15.023   5.326 -22.586  0.00  0.00     0.000 Se
HETATM   17  H           1     -15.548   4.015 -22.171  0.00  0.00     0.000 HD
ENDBRANCH  15  16
ENDBRANCH  14  15
BRANCH  14  18
HETATM   18  C           1     -12.651   2.803 -21.141  0.00  0.00     0.196 C 
HETATM   19  O           1     -13.655   2.090 -21.357  0.00  0.00    -0.646 OA
HETATM   20  O           1     -11.547   2.271 -20.900  0.00  0.00    -0.646 OA
ENDBRANCH  14  18
ENDBRANCH   3  14
TORSDOF 9
ENDMDL
MODEL 7
REMARK VINA RESULT:      -4.5     13.622     16.186
REMARK  9 active torsions:
REMARK  status: ('A' for Active; 'I' for Inactive)
REMARK    1  A    between atoms: N_2  and  C_5 
REMARK    2  A    between atoms: C_5  and  C_8 
REMARK    3  A    between atoms: C_5  and  C_12 
REMARK    4  A    between atoms: N_6  and  C_7 
REMARK       I    between atoms: N_6  and  C_8 
REMARK    5  A    between atoms: C_7  and  C_16 
REMARK    6  A    between atoms: C_7  and  C_13 
REMARK    7  A    between atoms: S_11  and  C_14 
REMARK    8  A    between atoms: C_12  and  C_14 
REMARK    9  A    between atoms: Se_15  and  C_16 
ROOT
HETATM    1  H           1     -20.583  -4.644  -4.563  0.00  0.00     0.163 HD
HETATM    2  O           1     -21.993  -7.415  -4.975  0.00  0.00    -0.271 OA
HETATM    3  N           1     -21.020  -5.408  -5.063  0.00  0.00    -0.345 N 
HETATM    4  C           1     -21.471  -6.504  -4.378  0.00  0.00     0.249 C 
ENDROOT
BRANCH   4   5
HETATM    5  C           1     -21.315  -6.575  -2.879  0.00  0.00     0.275 C 
BRANCH   5   6
HETATM    6  N           1     -22.467  -5.871  -2.225  0.00  0.00    -0.066 N 
HETATM    7  H           1     -22.599  -6.244  -1.257  0.00  0.00     0.275 HD
HETATM    8  H           1     -22.269  -4.847  -2.178  0.00  0.00     0.275 HD
HETATM    9  H           1     -23.336  -6.033  -2.782  0.00  0.00     0.275 HD
ENDBRANCH   5   6
BRANCH   5  10
HETATM   10  C           1     -21.295  -8.032  -2.438  0.00  0.00     0.053 C 
BRANCH  10  11
HETATM   11  C           1     -20.948  -8.109  -0.956  0.00  0.00     0.076 C 
BRANCH  11  12
HETATM   12  S           1     -22.026  -9.323  -0.145  0.00  0.00    -0.173 SA
HETATM   13  C           1     -23.175  -8.118   0.578  0.00  0.00     0.089 C 
ENDBRANCH  11  12
ENDBRANCH  10  11
ENDBRANCH   5  10
ENDBRANCH   4   5
BRANCH   3  14
HETATM   14  C           1     -21.169  -5.340  -6.503  0.00  0.00     0.185 C 
BRANCH  14  15
HETATM   15  C           1     -21.659  -3.952  -6.897  0.00  0.00     0.039 C 
BRANCH  15  16
HETATM   16 Se           1     -22.651  -4.064  -8.571  0.00  0.00     0.000 Se
HETATM   17  H           1     -21.839  -5.165  -9.114  0.00  0.00     0.000 HD
ENDBRANCH  15  16
ENDBRANCH  14  15
BRANCH  14  18
HETATM   18  C           1     -19.837  -5.609  -7.159  0.00  0.00     0.196 C 
HETATM   19  O           1     -19.393  -6.776  -7.216  0.00  0.00    -0.646 OA
HETATM   20  O           1     -19.178  -4.665  -7.645  0.00  0.00    -0.646 OA
ENDBRANCH  14  18
ENDBRANCH   3  14
TORSDOF 9
ENDMDL
MODEL 8
REMARK VINA RESULT:      -4.5      2.993      6.069
REMARK  9 active torsions:
REMARK  status: ('A' for Active; 'I' for Inactive)
REMARK    1  A    between atoms: N_2  and  C_5 
REMARK    2  A    between atoms: C_5  and  C_8 
REMARK    3  A    between atoms: C_5  and  C_12 
REMARK    4  A    between atoms: N_6  and  C_7 
REMARK       I    between atoms: N_6  and  C_8 
REMARK    5  A    between atoms: C_7  and  C_16 
REMARK    6  A    between atoms: C_7  and  C_13 
REMARK    7  A    between atoms: S_11  and  C_14 
REMARK    8  A    between atoms: C_12  and  C_14 
REMARK    9  A    between atoms: Se_15  and  C_16 
ROOT
HETATM    1  H           1     -26.432  -7.781 -18.366  0.00  0.00     0.163 HD
HETATM    2  O           1     -27.633  -5.513 -20.169  0.00  0.00    -0.271 OA
HETATM    3  N           1     -26.464  -7.088 -19.102  0.00  0.00    -0.345 N 
HETATM    4  C           1     -27.595  -6.341 -19.290  0.00  0.00     0.249 C 
ENDROOT
BRANCH   4   5
HETATM    5  C           1     -28.796  -6.551 -18.400  0.00  0.00     0.275 C 
BRANCH   5   6
HETATM    6  N           1     -29.269  -7.968 -18.528  0.00  0.00    -0.066 N 
HETATM    7  H           1     -28.613  -8.603 -18.019  0.00  0.00     0.275 HD
HETATM    8  H           1     -30.226  -8.055 -18.116  0.00  0.00     0.275 HD
HETATM    9  H           1     -29.300  -8.236 -19.538  0.00  0.00     0.275 HD
ENDBRANCH   5   6
BRANCH   5  10
HETATM   10  C           1     -28.411  -6.275 -16.953  0.00  0.00     0.053 C 
BRANCH  10  11
HETATM   11  C           1     -28.826  -4.857 -16.579  0.00  0.00     0.076 C 
BRANCH  11  12
HETATM   12  S           1     -30.065  -4.258 -17.761  0.00  0.00    -0.173 SA
HETATM   13  C           1     -31.517  -4.638 -16.740  0.00  0.00     0.089 C 
ENDBRANCH  11  12
ENDBRANCH  10  11
ENDBRANCH   5  10
ENDBRANCH   4   5
BRANCH   3  14
HETATM   14  C           1     -25.310  -6.886 -19.957  0.00  0.00     0.185 C 
BRANCH  14  15
HETATM   15  C           1     -24.037  -7.049 -19.138  0.00  0.00     0.039 C 
BRANCH  15  16
HETATM   16 Se           1     -24.492  -7.170 -17.246  0.00  0.00     0.000 Se
HETATM   17  H           1     -23.093  -7.159 -16.790  0.00  0.00     0.000 HD
ENDBRANCH  15  16
ENDBRANCH  14  15
BRANCH  14  18
HETATM   18  C           1     -25.327  -7.904 -21.071  0.00  0.00     0.196 C 
HETATM   19  O           1     -26.373  -8.541 -21.319  0.00  0.00    -0.646 OA
HETATM   20  O           1     -24.295  -8.109 -21.746  0.00  0.00    -0.646 OA
ENDBRANCH  14  18
ENDBRANCH   3  14
TORSDOF 9
ENDMDL
MODEL 9
REMARK VINA RESULT:      -4.3     18.559     19.619
REMARK  9 active torsions:
REMARK  status: ('A' for Active; 'I' for Inactive)
REMARK    1  A    between atoms: N_2  and  C_5 
REMARK    2  A    between atoms: C_5  and  C_8 
REMARK    3  A    between atoms: C_5  and  C_12 
REMARK    4  A    between atoms: N_6  and  C_7 
REMARK       I    between atoms: N_6  and  C_8 
REMARK    5  A    between atoms: C_7  and  C_16 
REMARK    6  A    between atoms: C_7  and  C_13 
REMARK    7  A    between atoms: S_11  and  C_14 
REMARK    8  A    between atoms: C_12  and  C_14 
REMARK    9  A    between atoms: Se_15  and  C_16 
ROOT
HETATM    1  H           1     -12.198   5.077 -19.341  0.00  0.00     0.163 HD
HETATM    2  O           1     -11.165   6.216 -22.075  0.00  0.00    -0.271 OA
HETATM    3  N           1     -12.169   5.232 -20.341  0.00  0.00    -0.345 N 
HETATM    4  C           1     -11.199   6.032 -20.881  0.00  0.00     0.249 C 
ENDROOT
BRANCH   4   5
HETATM    5  C           1     -10.172   6.683 -19.988  0.00  0.00     0.275 C 
BRANCH   5   6
HETATM    6  N           1      -9.356   5.623 -19.311  0.00  0.00    -0.066 N 
HETATM    7  H           1      -8.691   6.070 -18.640  0.00  0.00     0.275 HD
HETATM    8  H           1      -9.989   4.974 -18.792  0.00  0.00     0.275 HD
HETATM    9  H           1      -8.819   5.086 -20.028  0.00  0.00     0.275 HD
ENDBRANCH   5   6
BRANCH   5  10
HETATM   10  C           1      -9.259   7.570 -20.823  0.00  0.00     0.053 C 
BRANCH  10  11
HETATM   11  C           1      -9.608   9.032 -20.579  0.00  0.00     0.076 C 
BRANCH  11  12
HETATM   12  S           1     -10.761   9.154 -19.182  0.00  0.00    -0.173 SA
HETATM   13  C           1     -12.179   9.749 -20.146  0.00  0.00     0.089 C 
ENDBRANCH  11  12
ENDBRANCH  10  11
ENDBRANCH   5  10
ENDBRANCH   4   5
BRANCH   3  14
HETATM   14  C           1     -13.156   4.606 -21.200  0.00  0.00     0.185 C 
BRANCH  14  15
HETATM   15  C           1     -13.071   3.093 -21.050  0.00  0.00     0.039 C 
BRANCH  15  16
HETATM   16 Se           1     -11.221   2.574 -20.727  0.00  0.00     0.000 Se
HETATM   17  H           1     -10.685   3.343 -21.862  0.00  0.00     0.000 HD
ENDBRANCH  15  16
ENDBRANCH  14  15
BRANCH  14  18
HETATM   18  C           1     -14.535   5.076 -20.805  0.00  0.00     0.196 C 
HETATM   19  O           1     -14.812   5.255 -19.599  0.00  0.00    -0.646 OA
HETATM   20  O           1     -15.399   5.286 -21.683  0.00  0.00    -0.646 OA
ENDBRANCH  14  18
ENDBRANCH   3  14
TORSDOF 9
ENDMDL
