MODEL 1
REMARK VINA RESULT:      -6.8      0.000      0.000
REMARK  9 active torsions:
REMARK  status: ('A' for Active; 'I' for Inactive)
REMARK       I    between atoms: N_1  and  C_13 
REMARK    1  A    between atoms: N_3  and  C_22 
REMARK    2  A    between atoms: C_5  and  C_16 
REMARK    3  A    between atoms: C_5  and  C_6 
REMARK    4  A    between atoms: C_5  and  N_24 
REMARK    5  A    between atoms: C_13  and  C_18 
REMARK    6  A    between atoms: C_16  and  C_20 
REMARK    7  A    between atoms: C_18  and  C_19 
REMARK    8  A    between atoms: C_19  and  C_22 
REMARK    9  A    between atoms: C_22  and  C_23 
REMARK       I    between atoms: C_23  and  N_24 
ROOT
HETATM    1  C           1     -33.138  -4.515 -16.590  0.00  0.00     0.275 C 
ENDROOT
BRANCH   1   2
HETATM    2  N           1     -33.430  -3.251 -17.343  0.00  0.00    -0.066 N 
HETATM    3  H           1     -33.672  -3.482 -18.334  0.00  0.00     0.275 HD
HETATM    4  H           1     -34.235  -2.758 -16.896  0.00  0.00     0.275 HD
HETATM    5  H           1     -32.588  -2.633 -17.327  0.00  0.00     0.275 HD
ENDBRANCH   1   2
BRANCH   1   6
HETATM    6  C           1     -31.661  -4.555 -16.221  0.00  0.00     0.052 C 
BRANCH   6   7
HETATM    7  C           1     -30.884  -5.281 -17.311  0.00  0.00     0.105 C 
BRANCH   7   8
HETATM    8  C           1     -29.914  -4.325 -17.962  0.00  0.00     0.215 C 
HETATM    9  N           1     -30.017  -2.980 -17.728  0.00  0.00    -0.370 N 
HETATM   10  H           1     -29.367  -2.340 -18.164  0.00  0.00     0.159 HD
HETATM   11  H           1     -30.744  -2.627 -17.119  0.00  0.00     0.159 HD
HETATM   12  O           1     -29.046  -4.747 -18.688  0.00  0.00    -0.274 OA
ENDBRANCH   7   8
ENDBRANCH   6   7
ENDBRANCH   1   6
BRANCH   1  13
HETATM   13  C           1     -33.972  -4.554 -15.334  0.00  0.00     0.249 C 
HETATM   14  O           1     -35.056  -5.086 -15.344  0.00  0.00    -0.271 OA
HETATM   15  N           1     -33.499  -3.988 -14.180  0.00  0.00    -0.344 N 
HETATM   16  H           1     -32.590  -3.543 -14.171  0.00  0.00     0.163 HD
BRANCH  15  17
HETATM   17  C           1     -34.299  -4.026 -12.972  0.00  0.00     0.189 C 
BRANCH  17  18
HETATM   18  C           1     -33.395  -4.270 -11.771  0.00  0.00     0.014 C 
HETATM   19  C           1     -32.859  -2.938 -11.263  0.00  0.00     0.012 C 
BRANCH  18  20
HETATM   20  C           1     -34.191  -4.952 -10.667  0.00  0.00     0.002 C 
HETATM   21  C           1     -34.065  -6.464 -10.808  0.00  0.00     0.005 C 
ENDBRANCH  18  20
ENDBRANCH  17  18
BRANCH  17  22
HETATM   22  C           1     -35.016  -2.708 -12.803  0.00  0.00     0.197 C 
HETATM   23  O           1     -34.785  -1.766 -13.591  0.00  0.00    -0.646 OA
HETATM   24  O           1     -35.839  -2.559 -11.874  0.00  0.00    -0.646 OA
ENDBRANCH  17  22
ENDBRANCH  15  17
ENDBRANCH   1  13
TORSDOF 9
ENDMDL
MODEL 2
REMARK VINA RESULT:      -6.5     13.532     14.778
REMARK  9 active torsions:
REMARK  status: ('A' for Active; 'I' for Inactive)
REMARK       I    between atoms: N_1  and  C_13 
REMARK    1  A    between atoms: N_3  and  C_22 
REMARK    2  A    between atoms: C_5  and  C_16 
REMARK    3  A    between atoms: C_5  and  C_6 
REMARK    4  A    between atoms: C_5  and  N_24 
REMARK    5  A    between atoms: C_13  and  C_18 
REMARK    6  A    between atoms: C_16  and  C_20 
REMARK    7  A    between atoms: C_18  and  C_19 
REMARK    8  A    between atoms: C_19  and  C_22 
REMARK    9  A    between atoms: C_22  and  C_23 
REMARK       I    between atoms: C_23  and  N_24 
ROOT
HETATM    1  C           1     -22.073  -4.489  -7.192  0.00  0.00     0.275 C 
ENDROOT
BRANCH   1   2
HETATM    2  N           1     -21.661  -3.048  -7.142  0.00  0.00    -0.066 N 
HETATM    3  H           1     -20.720  -2.937  -7.584  0.00  0.00     0.275 HD
HETATM    4  H           1     -22.359  -2.469  -7.662  0.00  0.00     0.275 HD
HETATM    5  H           1     -21.617  -2.732  -6.147  0.00  0.00     0.275 HD
ENDBRANCH   1   2
BRANCH   1   6
HETATM    6  C           1     -22.034  -4.977  -8.635  0.00  0.00     0.052 C 
BRANCH   6   7
HETATM    7  C           1     -22.525  -3.871  -9.559  0.00  0.00     0.105 C 
BRANCH   7   8
HETATM    8  C           1     -23.762  -4.335 -10.288  0.00  0.00     0.215 C 
HETATM    9  N           1     -24.938  -4.495  -9.607  0.00  0.00    -0.370 N 
HETATM   10  H           1     -25.768  -4.806 -10.095  0.00  0.00     0.159 HD
HETATM   11  H           1     -24.978  -4.304  -8.614  0.00  0.00     0.159 HD
HETATM   12  O           1     -23.714  -4.563 -11.473  0.00  0.00    -0.274 OA
ENDBRANCH   7   8
ENDBRANCH   6   7
ENDBRANCH   1   6
BRANCH   1  13
HETATM   13  C           1     -21.123  -5.312  -6.357  0.00  0.00     0.249 C 
HETATM   14  O           1     -19.934  -5.109  -6.418  0.00  0.00    -0.271 OA
HETATM   15  N           1     -21.610  -6.288  -5.530  0.00  0.00    -0.344 N 
HETATM   16  H           1     -22.606  -6.457  -5.479  0.00  0.00     0.163 HD
BRANCH  15  17
HETATM   17  C           1     -20.698  -7.079  -4.726  0.00  0.00     0.189 C 
BRANCH  17  18
HETATM   18  C           1     -21.373  -7.455  -3.414  0.00  0.00     0.014 C 
HETATM   19  C           1     -20.413  -8.281  -2.569  0.00  0.00     0.012 C 
BRANCH  18  20
HETATM   20  C           1     -21.753  -6.188  -2.659  0.00  0.00     0.002 C 
HETATM   21  C           1     -22.306  -6.558  -1.289  0.00  0.00     0.005 C 
ENDBRANCH  18  20
ENDBRANCH  17  18
BRANCH  17  22
HETATM   22  C           1     -20.326  -8.334  -5.478  0.00  0.00     0.197 C 
HETATM   23  O           1     -21.215  -9.147  -5.814  0.00  0.00    -0.646 OA
HETATM   24  O           1     -19.131  -8.561  -5.764  0.00  0.00    -0.646 OA
ENDBRANCH  17  22
ENDBRANCH  15  17
ENDBRANCH   1  13
TORSDOF 9
ENDMDL
MODEL 3
REMARK VINA RESULT:      -6.3     14.441     15.488
REMARK  9 active torsions:
REMARK  status: ('A' for Active; 'I' for Inactive)
REMARK       I    between atoms: N_1  and  C_13 
REMARK    1  A    between atoms: N_3  and  C_22 
REMARK    2  A    between atoms: C_5  and  C_16 
REMARK    3  A    between atoms: C_5  and  C_6 
REMARK    4  A    between atoms: C_5  and  N_24 
REMARK    5  A    between atoms: C_13  and  C_18 
REMARK    6  A    between atoms: C_16  and  C_20 
REMARK    7  A    between atoms: C_18  and  C_19 
REMARK    8  A    between atoms: C_19  and  C_22 
REMARK    9  A    between atoms: C_22  and  C_23 
REMARK       I    between atoms: C_23  and  N_24 
ROOT
HETATM    1  C           1     -20.522  -5.065  -6.396  0.00  0.00     0.275 C 
ENDROOT
BRANCH   1   2
HETATM    2  N           1     -19.920  -5.925  -7.467  0.00  0.00    -0.066 N 
HETATM    3  H           1     -19.368  -5.329  -8.125  0.00  0.00     0.275 HD
HETATM    4  H           1     -19.290  -6.635  -7.029  0.00  0.00     0.275 HD
HETATM    5  H           1     -20.681  -6.411  -7.993  0.00  0.00     0.275 HD
ENDBRANCH   1   2
BRANCH   1   6
HETATM    6  C           1     -21.398  -3.996  -7.038  0.00  0.00     0.052 C 
BRANCH   6   7
HETATM    7  C           1     -21.483  -4.241  -8.538  0.00  0.00     0.105 C 
BRANCH   7   8
HETATM    8  C           1     -22.858  -3.865  -9.034  0.00  0.00     0.215 C 
HETATM    9  N           1     -23.942  -3.990  -8.207  0.00  0.00    -0.370 N 
HETATM   10  H           1     -24.863  -3.738  -8.539  0.00  0.00     0.159 HD
HETATM   11  H           1     -23.821  -4.336  -7.264  0.00  0.00     0.159 HD
HETATM   12  O           1     -23.002  -3.453 -10.160  0.00  0.00    -0.274 OA
ENDBRANCH   7   8
ENDBRANCH   6   7
ENDBRANCH   1   6
BRANCH   1  13
HETATM   13  C           1     -21.361  -5.919  -5.479  0.00  0.00     0.249 C 
HETATM   14  O           1     -22.566  -5.858  -5.531  0.00  0.00    -0.271 OA
HETATM   15  N           1     -20.757  -6.763  -4.586  0.00  0.00    -0.344 N 
HETATM   16  H           1     -19.747  -6.814  -4.543  0.00  0.00     0.163 HD
BRANCH  15  17
HETATM   17  C           1     -21.563  -7.584  -3.704  0.00  0.00     0.189 C 
BRANCH  17  18
HETATM   18  C           1     -20.907  -8.949  -3.541  0.00  0.00     0.014 C 
HETATM   19  C           1     -21.799 -10.017  -4.161  0.00  0.00     0.012 C 
BRANCH  18  20
HETATM   20  C           1     -19.555  -8.948  -4.241  0.00  0.00     0.002 C 
HETATM   21  C           1     -18.470  -9.353  -3.253  0.00  0.00     0.005 C 
ENDBRANCH  18  20
ENDBRANCH  17  18
BRANCH  17  22
HETATM   22  C           1     -21.673  -6.915  -2.356  0.00  0.00     0.197 C 
HETATM   23  O           1     -21.060  -7.385  -1.373  0.00  0.00    -0.646 OA
HETATM   24  O           1     -22.376  -5.890  -2.222  0.00  0.00    -0.646 OA
ENDBRANCH  17  22
ENDBRANCH  15  17
ENDBRANCH   1  13
TORSDOF 9
ENDMDL
MODEL 4
REMARK VINA RESULT:      -5.9      4.085      5.418
REMARK  9 active torsions:
REMARK  status: ('A' for Active; 'I' for Inactive)
REMARK       I    between atoms: N_1  and  C_13 
REMARK    1  A    between atoms: N_3  and  C_22 
REMARK    2  A    between atoms: C_5  and  C_16 
REMARK    3  A    between atoms: C_5  and  C_6 
REMARK    4  A    between atoms: C_5  and  N_24 
REMARK    5  A    between atoms: C_13  and  C_18 
REMARK    6  A    between atoms: C_16  and  C_20 
REMARK    7  A    between atoms: C_18  and  C_19 
REMARK    8  A    between atoms: C_19  and  C_22 
REMARK    9  A    between atoms: C_22  and  C_23 
REMARK       I    between atoms: C_23  and  N_24 
ROOT
HETATM    1  C           1     -35.163  -0.742 -14.911  0.00  0.00     0.275 C 
ENDROOT
BRANCH   1   2
HETATM    2  N           1     -35.083  -1.788 -15.982  0.00  0.00    -0.066 N 
HETATM    3  H           1     -34.641  -1.380 -16.837  0.00  0.00     0.275 HD
HETATM    4  H           1     -34.505  -2.590 -15.642  0.00  0.00     0.275 HD
HETATM    5  H           1     -36.045  -2.124 -16.215  0.00  0.00     0.275 HD
ENDBRANCH   1   2
BRANCH   1   6
HETATM    6  C           1     -36.281   0.238 -15.242  0.00  0.00     0.052 C 
BRANCH   6   7
HETATM    7  C           1     -35.679   1.555 -15.716  0.00  0.00     0.105 C 
BRANCH   7   8
HETATM    8  C           1     -36.758   2.409 -16.336  0.00  0.00     0.215 C 
HETATM    9  N           1     -38.074   2.057 -16.198  0.00  0.00    -0.370 N 
HETATM   10  H           1     -38.797   2.630 -16.613  0.00  0.00     0.159 HD
HETATM   11  H           1     -38.323   1.224 -15.681  0.00  0.00     0.159 HD
HETATM   12  O           1     -36.460   3.403 -16.953  0.00  0.00    -0.274 OA
ENDBRANCH   7   8
ENDBRANCH   6   7
ENDBRANCH   1   6
BRANCH   1  13
HETATM   13  C           1     -35.450  -1.402 -13.585  0.00  0.00     0.249 C 
HETATM   14  O           1     -36.440  -1.100 -12.962  0.00  0.00    -0.271 OA
HETATM   15  N           1     -34.589  -2.342 -13.088  0.00  0.00    -0.344 N 
HETATM   16  H           1     -33.760  -2.595 -13.610  0.00  0.00     0.163 HD
BRANCH  15  17
HETATM   17  C           1     -34.864  -2.978 -11.814  0.00  0.00     0.189 C 
BRANCH  17  18
HETATM   18  C           1     -34.107  -4.297 -11.730  0.00  0.00     0.014 C 
HETATM   19  C           1     -32.623  -4.043 -11.956  0.00  0.00     0.012 C 
BRANCH  18  20
HETATM   20  C           1     -34.314  -4.912 -10.353  0.00  0.00     0.002 C 
HETATM   21  C           1     -34.352  -6.430 -10.474  0.00  0.00     0.005 C 
ENDBRANCH  18  20
ENDBRANCH  17  18
BRANCH  17  22
HETATM   22  C           1     -34.418  -2.070 -10.694  0.00  0.00     0.197 C 
HETATM   23  O           1     -33.207  -1.784 -10.565  0.00  0.00    -0.646 OA
HETATM   24  O           1     -35.258  -1.603  -9.894  0.00  0.00    -0.646 OA
ENDBRANCH  17  22
ENDBRANCH  15  17
ENDBRANCH   1  13
TORSDOF 9
ENDMDL
MODEL 5
REMARK VINA RESULT:      -5.8     15.519     16.639
REMARK  9 active torsions:
REMARK  status: ('A' for Active; 'I' for Inactive)
REMARK       I    between atoms: N_1  and  C_13 
REMARK    1  A    between atoms: N_3  and  C_22 
REMARK    2  A    between atoms: C_5  and  C_16 
REMARK    3  A    between atoms: C_5  and  C_6 
REMARK    4  A    between atoms: C_5  and  N_24 
REMARK    5  A    between atoms: C_13  and  C_18 
REMARK    6  A    between atoms: C_16  and  C_20 
REMARK    7  A    between atoms: C_18  and  C_19 
REMARK    8  A    between atoms: C_19  and  C_22 
REMARK    9  A    between atoms: C_22  and  C_23 
REMARK       I    between atoms: C_23  and  N_24 
ROOT
HETATM    1  C           1     -21.440  -7.056  -5.625  0.00  0.00     0.275 C 
ENDROOT
BRANCH   1   2
HETATM    2  N           1     -22.529  -6.144  -5.146  0.00  0.00    -0.066 N 
HETATM    3  H           1     -23.381  -6.275  -5.739  0.00  0.00     0.275 HD
HETATM    4  H           1     -22.761  -6.371  -4.152  0.00  0.00     0.275 HD
HETATM    5  H           1     -22.209  -5.152  -5.212  0.00  0.00     0.275 HD
ENDBRANCH   1   2
BRANCH   1   6
HETATM    6  C           1     -20.401  -6.246  -6.389  0.00  0.00     0.052 C 
BRANCH   6   7
HETATM    7  C           1     -20.515  -4.778  -6.002  0.00  0.00     0.105 C 
BRANCH   7   8
HETATM    8  C           1     -20.757  -3.947  -7.239  0.00  0.00     0.215 C 
HETATM    9  N           1     -21.996  -3.417  -7.476  0.00  0.00    -0.370 N 
HETATM   10  H           1     -22.158  -2.861  -8.305  0.00  0.00     0.159 HD
HETATM   11  H           1     -22.751  -3.584  -6.823  0.00  0.00     0.159 HD
HETATM   12  O           1     -19.856  -3.750  -8.019  0.00  0.00    -0.274 OA
ENDBRANCH   7   8
ENDBRANCH   6   7
ENDBRANCH   1   6
BRANCH   1  13
HETATM   13  C           1     -20.786  -7.723  -4.441  0.00  0.00     0.249 C 
HETATM   14  O           1     -19.649  -8.123  -4.524  0.00  0.00    -0.271 OA
HETATM   15  N           1     -21.481  -7.876  -3.271  0.00  0.00    -0.344 N 
HETATM   16  H           1     -22.433  -7.541  -3.202  0.00  0.00     0.163 HD
BRANCH  15  17
HETATM   17  C           1     -20.853  -8.517  -2.132  0.00  0.00     0.189 C 
BRANCH  17  18
HETATM   18  C           1     -21.284  -7.813  -0.852  0.00  0.00     0.014 C 
HETATM   19  C           1     -22.234  -6.674  -1.197  0.00  0.00     0.012 C 
BRANCH  18  20
HETATM   20  C           1     -21.991  -8.806   0.059  0.00  0.00     0.002 C 
HETATM   21  C           1     -23.261  -8.174   0.613  0.00  0.00     0.005 C 
ENDBRANCH  18  20
ENDBRANCH  17  18
BRANCH  17  22
HETATM   22  C           1     -21.274  -9.965  -2.076  0.00  0.00     0.197 C 
HETATM   23  O           1     -20.518 -10.816  -1.559  0.00  0.00    -0.646 OA
HETATM   24  O           1     -22.378 -10.314  -2.546  0.00  0.00    -0.646 OA
ENDBRANCH  17  22
ENDBRANCH  15  17
ENDBRANCH   1  13
TORSDOF 9
ENDMDL
MODEL 6
REMARK VINA RESULT:      -5.8     12.839     14.348
REMARK  9 active torsions:
REMARK  status: ('A' for Active; 'I' for Inactive)
REMARK       I    between atoms: N_1  and  C_13 
REMARK    1  A    between atoms: N_3  and  C_22 
REMARK    2  A    between atoms: C_5  and  C_16 
REMARK    3  A    between atoms: C_5  and  C_6 
REMARK    4  A    between atoms: C_5  and  N_24 
REMARK    5  A    between atoms: C_13  and  C_18 
REMARK    6  A    between atoms: C_16  and  C_20 
REMARK    7  A    between atoms: C_18  and  C_19 
REMARK    8  A    between atoms: C_19  and  C_22 
REMARK    9  A    between atoms: C_22  and  C_23 
REMARK       I    between atoms: C_23  and  N_24 
ROOT
HETATM    1  C           1     -21.567  -5.366  -5.802  0.00  0.00     0.275 C 
ENDROOT
BRANCH   1   2
HETATM    2  N           1     -22.900  -5.923  -5.398  0.00  0.00    -0.066 N 
HETATM    3  H           1     -23.287  -5.363  -4.605  0.00  0.00     0.275 HD
HETATM    4  H           1     -23.557  -5.875  -6.210  0.00  0.00     0.275 HD
HETATM    5  H           1     -22.786  -6.918  -5.099  0.00  0.00     0.275 HD
ENDBRANCH   1   2
BRANCH   1   6
HETATM    6  C           1     -20.617  -6.511  -6.127  0.00  0.00     0.052 C 
BRANCH   6   7
HETATM    7  C           1     -21.142  -7.799  -5.509  0.00  0.00     0.105 C 
BRANCH   7   8
HETATM    8  C           1     -20.291  -8.172  -4.320  0.00  0.00     0.215 C 
HETATM    9  N           1     -20.710  -7.864  -3.054  0.00  0.00    -0.370 N 
HETATM   10  H           1     -20.139  -8.113  -2.257  0.00  0.00     0.159 HD
HETATM   11  H           1     -21.591  -7.386  -2.915  0.00  0.00     0.159 HD
HETATM   12  O           1     -19.239  -8.743  -4.486  0.00  0.00    -0.274 OA
ENDBRANCH   7   8
ENDBRANCH   6   7
ENDBRANCH   1   6
BRANCH   1  13
HETATM   13  C           1     -21.736  -4.491  -7.019  0.00  0.00     0.249 C 
HETATM   14  O           1     -21.163  -3.430  -7.085  0.00  0.00    -0.271 OA
HETATM   15  N           1     -22.540  -4.900  -8.050  0.00  0.00    -0.344 N 
HETATM   16  H           1     -23.020  -5.789  -7.994  0.00  0.00     0.163 HD
BRANCH  15  17
HETATM   17  C           1     -22.702  -4.060  -9.220  0.00  0.00     0.189 C 
BRANCH  17  18
HETATM   18  C           1     -21.955  -4.677 -10.395  0.00  0.00     0.014 C 
HETATM   19  C           1     -22.672  -4.326 -11.692  0.00  0.00     0.012 C 
BRANCH  18  20
HETATM   20  C           1     -20.535  -4.129 -10.435  0.00  0.00     0.002 C 
HETATM   21  C           1     -20.488  -2.902 -11.337  0.00  0.00     0.005 C 
ENDBRANCH  18  20
ENDBRANCH  17  18
BRANCH  17  22
HETATM   22  C           1     -24.169  -3.950  -9.559  0.00  0.00     0.197 C 
HETATM   23  O           1     -24.720  -2.828  -9.592  0.00  0.00    -0.646 OA
HETATM   24  O           1     -24.833  -4.979  -9.806  0.00  0.00    -0.646 OA
ENDBRANCH  17  22
ENDBRANCH  15  17
ENDBRANCH   1  13
TORSDOF 9
ENDMDL
MODEL 7
REMARK VINA RESULT:      -5.8     16.358     17.535
REMARK  9 active torsions:
REMARK  status: ('A' for Active; 'I' for Inactive)
REMARK       I    between atoms: N_1  and  C_13 
REMARK    1  A    between atoms: N_3  and  C_22 
REMARK    2  A    between atoms: C_5  and  C_16 
REMARK    3  A    between atoms: C_5  and  C_6 
REMARK    4  A    between atoms: C_5  and  N_24 
REMARK    5  A    between atoms: C_13  and  C_18 
REMARK    6  A    between atoms: C_16  and  C_20 
REMARK    7  A    between atoms: C_18  and  C_19 
REMARK    8  A    between atoms: C_19  and  C_22 
REMARK    9  A    between atoms: C_22  and  C_23 
REMARK       I    between atoms: C_23  and  N_24 
ROOT
HETATM    1  C           1     -21.730  -7.576  -4.250  0.00  0.00     0.275 C 
ENDROOT
BRANCH   1   2
HETATM    2  N           1     -22.569  -6.334  -4.295  0.00  0.00    -0.066 N 
HETATM    3  H           1     -23.438  -6.519  -4.846  0.00  0.00     0.275 HD
HETATM    4  H           1     -22.828  -6.054  -3.322  0.00  0.00     0.275 HD
HETATM    5  H           1     -22.028  -5.563  -4.749  0.00  0.00     0.275 HD
ENDBRANCH   1   2
BRANCH   1   6
HETATM    6  C           1     -20.497  -7.386  -5.124  0.00  0.00     0.052 C 
BRANCH   6   7
HETATM    7  C           1     -20.845  -6.494  -6.308  0.00  0.00     0.105 C 
BRANCH   7   8
HETATM    8  C           1     -20.070  -5.203  -6.213  0.00  0.00     0.215 C 
HETATM    9  N           1     -19.295  -4.791  -7.263  0.00  0.00    -0.370 N 
HETATM   10  H           1     -18.775  -3.925  -7.198  0.00  0.00     0.159 HD
HETATM   11  H           1     -19.241  -5.352  -8.103  0.00  0.00     0.159 HD
HETATM   12  O           1     -20.134  -4.533  -5.209  0.00  0.00    -0.274 OA
ENDBRANCH   7   8
ENDBRANCH   6   7
ENDBRANCH   1   6
BRANCH   1  13
HETATM   13  C           1     -21.302  -7.841  -2.828  0.00  0.00     0.249 C 
HETATM   14  O           1     -20.693  -6.999  -2.213  0.00  0.00    -0.271 OA
HETATM   15  N           1     -21.603  -9.037  -2.234  0.00  0.00    -0.344 N 
HETATM   16  H           1     -22.114  -9.743  -2.750  0.00  0.00     0.163 HD
BRANCH  15  17
HETATM   17  C           1     -21.193  -9.293  -0.867  0.00  0.00     0.189 C 
BRANCH  17  18
HETATM   18  C           1     -22.423  -9.554  -0.008  0.00  0.00     0.014 C 
HETATM   19  C           1     -23.083  -8.228   0.347  0.00  0.00     0.012 C 
BRANCH  18  20
HETATM   20  C           1     -23.408 -10.419  -0.783  0.00  0.00     0.002 C 
HETATM   21  C           1     -23.777 -11.640   0.048  0.00  0.00     0.005 C 
ENDBRANCH  18  20
ENDBRANCH  17  18
BRANCH  17  22
HETATM   22  C           1     -20.290 -10.502  -0.833  0.00  0.00     0.197 C 
HETATM   23  O           1     -19.823 -10.964  -1.897  0.00  0.00    -0.646 OA
HETATM   24  O           1     -20.009 -11.042   0.259  0.00  0.00    -0.646 OA
ENDBRANCH  17  22
ENDBRANCH  15  17
ENDBRANCH   1  13
TORSDOF 9
ENDMDL
MODEL 8
REMARK VINA RESULT:      -5.7     14.829     16.104
REMARK  9 active torsions:
REMARK  status: ('A' for Active; 'I' for Inactive)
REMARK       I    between atoms: N_1  and  C_13 
REMARK    1  A    between atoms: N_3  and  C_22 
REMARK    2  A    between atoms: C_5  and  C_16 
REMARK    3  A    between atoms: C_5  and  C_6 
REMARK    4  A    between atoms: C_5  and  N_24 
REMARK    5  A    between atoms: C_13  and  C_18 
REMARK    6  A    between atoms: C_16  and  C_20 
REMARK    7  A    between atoms: C_18  and  C_19 
REMARK    8  A    between atoms: C_19  and  C_22 
REMARK    9  A    between atoms: C_22  and  C_23 
REMARK       I    between atoms: C_23  and  N_24 
ROOT
HETATM    1  C           1     -21.053  -5.495  -5.531  0.00  0.00     0.275 C 
ENDROOT
BRANCH   1   2
HETATM    2  N           1     -19.989  -4.439  -5.581  0.00  0.00    -0.066 N 
HETATM    3  H           1     -19.410  -4.485  -4.712  0.00  0.00     0.275 HD
HETATM    4  H           1     -19.379  -4.599  -6.414  0.00  0.00     0.275 HD
HETATM    5  H           1     -20.436  -3.497  -5.650  0.00  0.00     0.275 HD
ENDBRANCH   1   2
BRANCH   1   6
HETATM    6  C           1     -21.958  -5.361  -6.749  0.00  0.00     0.052 C 
BRANCH   6   7
HETATM    7  C           1     -21.771  -3.984  -7.372  0.00  0.00     0.105 C 
BRANCH   7   8
HETATM    8  C           1     -22.649  -3.859  -8.593  0.00  0.00     0.215 C 
HETATM    9  N           1     -24.011  -3.827  -8.456  0.00  0.00    -0.370 N 
HETATM   10  H           1     -24.599  -3.743  -9.275  0.00  0.00     0.159 HD
HETATM   11  H           1     -24.428  -3.887  -7.537  0.00  0.00     0.159 HD
HETATM   12  O           1     -22.150  -3.787  -9.691  0.00  0.00    -0.274 OA
ENDBRANCH   7   8
ENDBRANCH   6   7
ENDBRANCH   1   6
BRANCH   1  13
HETATM   13  C           1     -20.407  -6.858  -5.532  0.00  0.00     0.249 C 
HETATM   14  O           1     -19.682  -7.183  -6.442  0.00  0.00    -0.271 OA
HETATM   15  N           1     -20.643  -7.728  -4.501  0.00  0.00    -0.344 N 
HETATM   16  H           1     -21.250  -7.456  -3.739  0.00  0.00     0.163 HD
BRANCH  15  17
HETATM   17  C           1     -20.022  -9.038  -4.501  0.00  0.00     0.189 C 
BRANCH  17  18
HETATM   18  C           1     -19.605  -9.402  -3.082  0.00  0.00     0.014 C 
HETATM   19  C           1     -18.089  -9.531  -3.017  0.00  0.00     0.012 C 
BRANCH  18  20
HETATM   20  C           1     -20.065  -8.312  -2.124  0.00  0.00     0.002 C 
HETATM   21  C           1     -20.900  -8.931  -1.011  0.00  0.00     0.005 C 
ENDBRANCH  18  20
ENDBRANCH  17  18
BRANCH  17  22
HETATM   22  C           1     -21.007 -10.060  -5.014  0.00  0.00     0.197 C 
HETATM   23  O           1     -21.834 -10.578  -4.232  0.00  0.00    -0.646 OA
HETATM   24  O           1     -20.996 -10.389  -6.220  0.00  0.00    -0.646 OA
ENDBRANCH  17  22
ENDBRANCH  15  17
ENDBRANCH   1  13
TORSDOF 9
ENDMDL
MODEL 9
REMARK VINA RESULT:      -5.7     16.313     17.683
REMARK  9 active torsions:
REMARK  status: ('A' for Active; 'I' for Inactive)
REMARK       I    between atoms: N_1  and  C_13 
REMARK    1  A    between atoms: N_3  and  C_22 
REMARK    2  A    between atoms: C_5  and  C_16 
REMARK    3  A    between atoms: C_5  and  C_6 
REMARK    4  A    between atoms: C_5  and  N_24 
REMARK    5  A    between atoms: C_13  and  C_18 
REMARK    6  A    between atoms: C_16  and  C_20 
REMARK    7  A    between atoms: C_18  and  C_19 
REMARK    8  A    between atoms: C_19  and  C_22 
REMARK    9  A    between atoms: C_22  and  C_23 
REMARK       I    between atoms: C_23  and  N_24 
ROOT
HETATM    1  C           1     -22.031  -6.673  -2.729  0.00  0.00     0.275 C 
ENDROOT
BRANCH   1   2
HETATM    2  N           1     -22.259  -5.680  -1.629  0.00  0.00    -0.066 N 
HETATM    3  H           1     -21.408  -5.626  -1.025  0.00  0.00     0.275 HD
HETATM    4  H           1     -22.451  -4.740  -2.043  0.00  0.00     0.275 HD
HETATM    5  H           1     -23.076  -5.981  -1.052  0.00  0.00     0.275 HD
ENDBRANCH   1   2
BRANCH   1   6
HETATM    6  C           1     -21.244  -6.012  -3.853  0.00  0.00     0.052 C 
BRANCH   6   7
HETATM    7  C           1     -21.793  -6.471  -5.197  0.00  0.00     0.105 C 
BRANCH   7   8
HETATM    8  C           1     -20.830  -7.445  -5.831  0.00  0.00     0.215 C 
HETATM    9  N           1     -21.041  -8.791  -5.712  0.00  0.00    -0.370 N 
HETATM   10  H           1     -20.395  -9.444  -6.136  0.00  0.00     0.159 HD
HETATM   11  H           1     -21.842  -9.134  -5.199  0.00  0.00     0.159 HD
HETATM   12  O           1     -19.872  -7.034  -6.443  0.00  0.00    -0.274 OA
ENDBRANCH   7   8
ENDBRANCH   6   7
ENDBRANCH   1   6
BRANCH   1  13
HETATM   13  C           1     -21.251  -7.847  -2.192  0.00  0.00     0.249 C 
HETATM   14  O           1     -20.109  -7.699  -1.831  0.00  0.00    -0.271 OA
HETATM   15  N           1     -21.839  -9.082  -2.115  0.00  0.00    -0.344 N 
HETATM   16  H           1     -22.797  -9.205  -2.418  0.00  0.00     0.163 HD
BRANCH  15  17
HETATM   17  C           1     -21.091 -10.211  -1.598  0.00  0.00     0.189 C 
BRANCH  17  18
HETATM   18  C           1     -21.718 -10.681  -0.293  0.00  0.00     0.014 C 
HETATM   19  C           1     -20.935 -10.108   0.881  0.00  0.00     0.012 C 
BRANCH  18  20
HETATM   20  C           1     -23.162 -10.201  -0.223  0.00  0.00     0.002 C 
HETATM   21  C           1     -24.102 -11.390  -0.372  0.00  0.00     0.005 C 
ENDBRANCH  18  20
ENDBRANCH  17  18
BRANCH  17  22
HETATM   22  C           1     -21.120 -11.335  -2.605  0.00  0.00     0.197 C 
HETATM   23  O           1     -21.578 -11.135  -3.751  0.00  0.00    -0.646 OA
HETATM   24  O           1     -20.688 -12.465  -2.293  0.00  0.00    -0.646 OA
ENDBRANCH  17  22
ENDBRANCH  15  17
ENDBRANCH   1  13
TORSDOF 9
ENDMDL
