MODEL 1
REMARK VINA RESULT:      -6.3      0.000      0.000
REMARK  8 active torsions:
REMARK  status: ('A' for Active; 'I' for Inactive)
REMARK    1  A    between atoms: O_2  and  C_21 
REMARK    2  A    between atoms: O_2  and  P_3 
REMARK    3  A    between atoms: P_3  and  O_16 
REMARK    4  A    between atoms: N_10  and  C_12 
REMARK    5  A    between atoms: C_12  and  C_13 
REMARK       I    between atoms: C_13  and  N_14 
REMARK    6  A    between atoms: N_14  and  C_20 
REMARK    7  A    between atoms: C_18  and  C_20 
REMARK    8  A    between atoms: C_20  and  C_21 
ROOT
HETATM    1  C           1     -35.082  -0.271 -12.362  0.00  0.00     0.210 C 
ENDROOT
BRANCH   1   2
HETATM    2  N           1     -35.035  -1.675 -12.718  0.00  0.00    -0.343 N 
HETATM    3  H           1     -35.600  -2.022 -13.482  0.00  0.00     0.163 HD
HETATM    4  C           1     -34.224  -2.532 -12.022  0.00  0.00     0.248 C 
HETATM    5  O           1     -33.550  -2.117 -11.110  0.00  0.00    -0.271 OA
BRANCH   4   6
HETATM    6  C           1     -34.175  -3.993 -12.393  0.00  0.00     0.270 C 
HETATM    7  C           1     -33.152  -4.706 -11.518  0.00  0.00     0.050 C 
BRANCH   6   8
HETATM    8  N           1     -33.781  -4.129 -13.834  0.00  0.00    -0.067 N 
HETATM    9  H           1     -33.375  -3.227 -14.171  0.00  0.00     0.275 HD
HETATM   10  H           1     -33.070  -4.888 -13.930  0.00  0.00     0.275 HD
HETATM   11  H           1     -34.624  -4.367 -14.404  0.00  0.00     0.275 HD
ENDBRANCH   6   8
ENDBRANCH   4   6
ENDBRANCH   1   2
BRANCH   1  12
HETATM   12  C           1     -36.311  -0.005 -11.528  0.00  0.00     0.198 C 
HETATM   13  O           1     -36.228   0.017 -10.281  0.00  0.00    -0.646 OA
HETATM   14  O           1     -37.413   0.194 -12.085  0.00  0.00    -0.646 OA
ENDBRANCH   1  12
BRANCH   1  15
HETATM   15  C           1     -35.136   0.572 -13.630  0.00  0.00     0.217 C 
BRANCH  15  16
HETATM   16  O           1     -35.164  -0.271 -14.750  0.00  0.00    -0.287 OA
BRANCH  16  17
HETATM   17  P           1     -36.444  -0.114 -15.722  0.00  0.00     0.406 P 
HETATM   18  O           1     -37.608  -0.806 -15.122  0.00  0.00    -0.624 OA
HETATM   19  O           1     -36.139  -0.716 -17.040  0.00  0.00    -0.624 OA
BRANCH  17  20
HETATM   20  O           1     -36.788   1.452 -15.911  0.00  0.00    -0.300 OA
HETATM   21  H           1     -36.338   1.707 -16.698  0.00  0.00     0.223 HD
ENDBRANCH  17  20
ENDBRANCH  16  17
ENDBRANCH  15  16
ENDBRANCH   1  15
TORSDOF 8
ENDMDL
MODEL 2
REMARK VINA RESULT:      -6.2      9.584     11.148
REMARK  8 active torsions:
REMARK  status: ('A' for Active; 'I' for Inactive)
REMARK    1  A    between atoms: O_2  and  C_21 
REMARK    2  A    between atoms: O_2  and  P_3 
REMARK    3  A    between atoms: P_3  and  O_16 
REMARK    4  A    between atoms: N_10  and  C_12 
REMARK    5  A    between atoms: C_12  and  C_13 
REMARK       I    between atoms: C_13  and  N_14 
REMARK    6  A    between atoms: N_14  and  C_20 
REMARK    7  A    between atoms: C_18  and  C_20 
REMARK    8  A    between atoms: C_20  and  C_21 
ROOT
HETATM    1  C           1     -26.458  -5.970 -16.934  0.00  0.00     0.210 C 
ENDROOT
BRANCH   1   2
HETATM    2  N           1     -26.537  -6.624 -18.225  0.00  0.00    -0.343 N 
HETATM    3  H           1     -27.434  -6.929 -18.583  0.00  0.00     0.163 HD
HETATM    4  C           1     -25.401  -6.828 -18.961  0.00  0.00     0.248 C 
HETATM    5  O           1     -24.332  -6.465 -18.533  0.00  0.00    -0.271 OA
BRANCH   4   6
HETATM    6  C           1     -25.484  -7.510 -20.304  0.00  0.00     0.270 C 
HETATM    7  C           1     -24.966  -6.569 -21.384  0.00  0.00     0.050 C 
BRANCH   6   8
HETATM    8  N           1     -26.912  -7.865 -20.596  0.00  0.00    -0.067 N 
HETATM    9  H           1     -27.231  -8.604 -19.928  0.00  0.00     0.275 HD
HETATM   10  H           1     -27.512  -7.017 -20.489  0.00  0.00     0.275 HD
HETATM   11  H           1     -26.987  -8.224 -21.575  0.00  0.00     0.275 HD
ENDBRANCH   6   8
ENDBRANCH   4   6
ENDBRANCH   1   2
BRANCH   1  12
HETATM   12  C           1     -26.438  -7.012 -15.843  0.00  0.00     0.198 C 
HETATM   13  O           1     -27.510  -7.414 -15.342  0.00  0.00    -0.646 OA
HETATM   14  O           1     -25.348  -7.473 -15.439  0.00  0.00    -0.646 OA
ENDBRANCH   1  12
BRANCH   1  15
HETATM   15  C           1     -27.670  -5.065 -16.750  0.00  0.00     0.217 C 
BRANCH  15  16
HETATM   16  O           1     -28.691  -5.466 -17.623  0.00  0.00    -0.287 OA
BRANCH  16  17
HETATM   17  P           1     -30.174  -5.544 -16.989  0.00  0.00     0.406 P 
HETATM   18  O           1     -30.884  -6.723 -17.535  0.00  0.00    -0.624 OA
HETATM   19  O           1     -30.922  -4.314 -17.335  0.00  0.00    -0.624 OA
BRANCH  17  20
HETATM   20  O           1     -30.066  -5.677 -15.383  0.00  0.00    -0.300 OA
HETATM   21  H           1     -30.906  -5.398 -15.059  0.00  0.00     0.223 HD
ENDBRANCH  17  20
ENDBRANCH  16  17
ENDBRANCH  15  16
ENDBRANCH   1  15
TORSDOF 8
ENDMDL
MODEL 3
REMARK VINA RESULT:      -6.2      2.846      4.647
REMARK  8 active torsions:
REMARK  status: ('A' for Active; 'I' for Inactive)
REMARK    1  A    between atoms: O_2  and  C_21 
REMARK    2  A    between atoms: O_2  and  P_3 
REMARK    3  A    between atoms: P_3  and  O_16 
REMARK    4  A    between atoms: N_10  and  C_12 
REMARK    5  A    between atoms: C_12  and  C_13 
REMARK       I    between atoms: C_13  and  N_14 
REMARK    6  A    between atoms: N_14  and  C_20 
REMARK    7  A    between atoms: C_18  and  C_20 
REMARK    8  A    between atoms: C_20  and  C_21 
ROOT
HETATM    1  C           1     -36.596  -0.906 -11.125  0.00  0.00     0.210 C 
ENDROOT
BRANCH   1   2
HETATM    2  N           1     -36.033  -0.221 -12.272  0.00  0.00    -0.343 N 
HETATM    3  H           1     -35.145   0.258 -12.188  0.00  0.00     0.163 HD
HETATM    4  C           1     -36.700  -0.222 -13.467  0.00  0.00     0.248 C 
HETATM    5  O           1     -37.759  -0.794 -13.567  0.00  0.00    -0.271 OA
BRANCH   4   6
HETATM    6  C           1     -36.113   0.492 -14.660  0.00  0.00     0.270 C 
HETATM    7  C           1     -36.710  -0.080 -15.939  0.00  0.00     0.050 C 
BRANCH   6   8
HETATM    8  N           1     -34.625   0.299 -14.674  0.00  0.00    -0.067 N 
HETATM    9  H           1     -34.307   0.118 -15.653  0.00  0.00     0.275 HD
HETATM   10  H           1     -34.158   1.160 -14.310  0.00  0.00     0.275 HD
HETATM   11  H           1     -34.375  -0.516 -14.070  0.00  0.00     0.275 HD
ENDBRANCH   6   8
ENDBRANCH   4   6
ENDBRANCH   1   2
BRANCH   1  12
HETATM   12  C           1     -36.903   0.096 -10.041  0.00  0.00     0.198 C 
HETATM   13  O           1     -37.815   0.935 -10.204  0.00  0.00    -0.646 OA
HETATM   14  O           1     -36.245   0.088  -8.978  0.00  0.00    -0.646 OA
ENDBRANCH   1  12
BRANCH   1  15
HETATM   15  C           1     -35.594  -1.929 -10.604  0.00  0.00     0.217 C 
BRANCH  15  16
HETATM   16  O           1     -35.703  -3.112 -11.348  0.00  0.00    -0.287 OA
BRANCH  16  17
HETATM   17  P           1     -34.436  -3.483 -12.277  0.00  0.00     0.406 P 
HETATM   18  O           1     -33.185  -3.110 -11.579  0.00  0.00    -0.624 OA
HETATM   19  O           1     -34.528  -2.740 -13.555  0.00  0.00    -0.624 OA
BRANCH  17  20
HETATM   20  O           1     -34.434  -5.070 -12.575  0.00  0.00    -0.300 OA
HETATM   21  H           1     -34.051  -5.461 -11.809  0.00  0.00     0.223 HD
ENDBRANCH  17  20
ENDBRANCH  16  17
ENDBRANCH  15  16
ENDBRANCH   1  15
TORSDOF 8
ENDMDL
MODEL 4
REMARK VINA RESULT:      -5.9     13.105     15.318
REMARK  8 active torsions:
REMARK  status: ('A' for Active; 'I' for Inactive)
REMARK    1  A    between atoms: O_2  and  C_21 
REMARK    2  A    between atoms: O_2  and  P_3 
REMARK    3  A    between atoms: P_3  and  O_16 
REMARK    4  A    between atoms: N_10  and  C_12 
REMARK    5  A    between atoms: C_12  and  C_13 
REMARK       I    between atoms: C_13  and  N_14 
REMARK    6  A    between atoms: N_14  and  C_20 
REMARK    7  A    between atoms: C_18  and  C_20 
REMARK    8  A    between atoms: C_20  and  C_21 
ROOT
HETATM    1  C           1     -21.513  -4.855  -7.952  0.00  0.00     0.210 C 
ENDROOT
BRANCH   1   2
HETATM    2  N           1     -21.304  -5.018  -6.527  0.00  0.00    -0.343 N 
HETATM    3  H           1     -21.250  -4.204  -5.928  0.00  0.00     0.163 HD
HETATM    4  C           1     -21.182  -6.272  -5.991  0.00  0.00     0.248 C 
HETATM    5  O           1     -21.246  -7.243  -6.707  0.00  0.00    -0.271 OA
BRANCH   4   6
HETATM    6  C           1     -20.964  -6.441  -4.508  0.00  0.00     0.270 C 
HETATM    7  C           1     -20.509  -7.866  -4.220  0.00  0.00     0.050 C 
BRANCH   6   8
HETATM    8  N           1     -22.248  -6.171  -3.781  0.00  0.00    -0.067 N 
HETATM    9  H           1     -23.052  -6.282  -4.441  0.00  0.00     0.275 HD
HETATM   10  H           1     -22.350  -6.847  -2.991  0.00  0.00     0.275 HD
HETATM   11  H           1     -22.237  -5.196  -3.407  0.00  0.00     0.275 HD
ENDBRANCH   6   8
ENDBRANCH   4   6
ENDBRANCH   1   2
BRANCH   1  12
HETATM   12  C           1     -20.191  -4.580  -8.626  0.00  0.00     0.198 C 
HETATM   13  O           1     -19.194  -4.264  -7.942  0.00  0.00    -0.646 OA
HETATM   14  O           1     -20.093  -4.668  -9.870  0.00  0.00    -0.646 OA
ENDBRANCH   1  12
BRANCH   1  15
HETATM   15  C           1     -22.460  -3.687  -8.195  0.00  0.00     0.217 C 
BRANCH  15  16
HETATM   16  O           1     -23.648  -4.160  -8.771  0.00  0.00    -0.287 OA
BRANCH  16  17
HETATM   17  P           1     -23.783  -3.974 -10.369  0.00  0.00     0.406 P 
HETATM   18  O           1     -25.031  -3.241 -10.678  0.00  0.00    -0.624 OA
HETATM   19  O           1     -23.819  -5.304 -11.018  0.00  0.00    -0.624 OA
BRANCH  17  20
HETATM   20  O           1     -22.517  -3.138 -10.922  0.00  0.00    -0.300 OA
HETATM   21  H           1     -22.866  -2.296 -11.161  0.00  0.00     0.223 HD
ENDBRANCH  17  20
ENDBRANCH  16  17
ENDBRANCH  15  16
ENDBRANCH   1  15
TORSDOF 8
ENDMDL
MODEL 5
REMARK VINA RESULT:      -5.5      9.018     10.504
REMARK  8 active torsions:
REMARK  status: ('A' for Active; 'I' for Inactive)
REMARK    1  A    between atoms: O_2  and  C_21 
REMARK    2  A    between atoms: O_2  and  P_3 
REMARK    3  A    between atoms: P_3  and  O_16 
REMARK    4  A    between atoms: N_10  and  C_12 
REMARK    5  A    between atoms: C_12  and  C_13 
REMARK       I    between atoms: C_13  and  N_14 
REMARK    6  A    between atoms: N_14  and  C_20 
REMARK    7  A    between atoms: C_18  and  C_20 
REMARK    8  A    between atoms: C_20  and  C_21 
ROOT
HETATM    1  C           1     -28.063  -5.654 -18.121  0.00  0.00     0.210 C 
ENDROOT
BRANCH   1   2
HETATM    2  N           1     -27.220  -6.693 -18.681  0.00  0.00    -0.343 N 
HETATM    3  H           1     -26.968  -7.496 -18.119  0.00  0.00     0.163 HD
HETATM    4  C           1     -26.766  -6.587 -19.968  0.00  0.00     0.248 C 
HETATM    5  O           1     -27.067  -5.628 -20.637  0.00  0.00    -0.271 OA
BRANCH   4   6
HETATM    6  C           1     -25.888  -7.668 -20.549  0.00  0.00     0.270 C 
HETATM    7  C           1     -24.896  -7.047 -21.525  0.00  0.00     0.050 C 
BRANCH   6   8
HETATM    8  N           1     -26.741  -8.667 -21.274  0.00  0.00    -0.067 N 
HETATM    9  H           1     -27.747  -8.398 -21.183  0.00  0.00     0.275 HD
HETATM   10  H           1     -26.475  -8.685 -22.284  0.00  0.00     0.275 HD
HETATM   11  H           1     -26.594  -9.615 -20.858  0.00  0.00     0.275 HD
ENDBRANCH   6   8
ENDBRANCH   4   6
ENDBRANCH   1   2
BRANCH   1  12
HETATM   12  C           1     -27.353  -5.000 -16.962  0.00  0.00     0.198 C 
HETATM   13  O           1     -27.771  -3.915 -16.504  0.00  0.00    -0.646 OA
HETATM   14  O           1     -26.345  -5.543 -16.460  0.00  0.00    -0.646 OA
ENDBRANCH   1  12
BRANCH   1  15
HETATM   15  C           1     -29.369  -6.269 -17.635  0.00  0.00     0.217 C 
BRANCH  15  16
HETATM   16  O           1     -30.448  -5.506 -18.102  0.00  0.00    -0.287 OA
BRANCH  16  17
HETATM   17  P           1     -31.335  -4.768 -16.973  0.00  0.00     0.406 P 
HETATM   18  O           1     -31.448  -3.328 -17.295  0.00  0.00    -0.624 OA
HETATM   19  O           1     -30.684  -4.928 -15.653  0.00  0.00    -0.624 OA
BRANCH  17  20
HETATM   20  O           1     -32.808  -5.427 -16.930  0.00  0.00    -0.300 OA
HETATM   21  H           1     -33.224  -5.046 -16.176  0.00  0.00     0.223 HD
ENDBRANCH  17  20
ENDBRANCH  16  17
ENDBRANCH  15  16
ENDBRANCH   1  15
TORSDOF 8
ENDMDL
MODEL 6
REMARK VINA RESULT:      -5.4      9.318     10.941
REMARK  8 active torsions:
REMARK  status: ('A' for Active; 'I' for Inactive)
REMARK    1  A    between atoms: O_2  and  C_21 
REMARK    2  A    between atoms: O_2  and  P_3 
REMARK    3  A    between atoms: P_3  and  O_16 
REMARK    4  A    between atoms: N_10  and  C_12 
REMARK    5  A    between atoms: C_12  and  C_13 
REMARK       I    between atoms: C_13  and  N_14 
REMARK    6  A    between atoms: N_14  and  C_20 
REMARK    7  A    between atoms: C_18  and  C_20 
REMARK    8  A    between atoms: C_20  and  C_21 
ROOT
HETATM    1  C           1     -26.784  -6.096 -17.130  0.00  0.00     0.210 C 
ENDROOT
BRANCH   1   2
HETATM    2  N           1     -26.317  -6.805 -18.306  0.00  0.00    -0.343 N 
HETATM    3  H           1     -25.585  -7.498 -18.220  0.00  0.00     0.163 HD
HETATM    4  C           1     -26.868  -6.538 -19.530  0.00  0.00     0.248 C 
HETATM    5  O           1     -27.742  -5.710 -19.632  0.00  0.00    -0.271 OA
BRANCH   4   6
HETATM    6  C           1     -26.382  -7.275 -20.753  0.00  0.00     0.270 C 
HETATM    7  C           1     -27.351  -8.402 -21.087  0.00  0.00     0.050 C 
BRANCH   6   8
HETATM    8  N           1     -25.023  -7.851 -20.482  0.00  0.00    -0.067 N 
HETATM    9  H           1     -25.079  -8.509 -19.671  0.00  0.00     0.275 HD
HETATM   10  H           1     -24.688  -8.366 -21.326  0.00  0.00     0.275 HD
HETATM   11  H           1     -24.357  -7.078 -20.258  0.00  0.00     0.275 HD
ENDBRANCH   6   8
ENDBRANCH   4   6
ENDBRANCH   1   2
BRANCH   1  12
HETATM   12  C           1     -25.882  -6.410 -15.963  0.00  0.00     0.198 C 
HETATM   13  O           1     -24.917  -5.661 -15.697  0.00  0.00    -0.646 OA
HETATM   14  O           1     -26.099  -7.422 -15.260  0.00  0.00    -0.646 OA
ENDBRANCH   1  12
BRANCH   1  15
HETATM   15  C           1     -28.207  -6.533 -16.806  0.00  0.00     0.217 C 
BRANCH  15  16
HETATM   16  O           1     -28.944  -5.429 -16.357  0.00  0.00    -0.287 OA
BRANCH  16  17
HETATM   17  P           1     -30.268  -5.068 -17.208  0.00  0.00     0.406 P 
HETATM   18  O           1     -31.256  -4.404 -16.328  0.00  0.00    -0.624 OA
HETATM   19  O           1     -30.855  -6.312 -17.756  0.00  0.00    -0.624 OA
BRANCH  17  20
HETATM   20  O           1     -29.875  -4.077 -18.420  0.00  0.00    -0.300 OA
HETATM   21  H           1     -30.673  -3.624 -18.633  0.00  0.00     0.223 HD
ENDBRANCH  17  20
ENDBRANCH  16  17
ENDBRANCH  15  16
ENDBRANCH   1  15
TORSDOF 8
ENDMDL
MODEL 7
REMARK VINA RESULT:      -5.0      4.883      6.597
REMARK  8 active torsions:
REMARK  status: ('A' for Active; 'I' for Inactive)
REMARK    1  A    between atoms: O_2  and  C_21 
REMARK    2  A    between atoms: O_2  and  P_3 
REMARK    3  A    between atoms: P_3  and  O_16 
REMARK    4  A    between atoms: N_10  and  C_12 
REMARK    5  A    between atoms: C_12  and  C_13 
REMARK       I    between atoms: C_13  and  N_14 
REMARK    6  A    between atoms: N_14  and  C_20 
REMARK    7  A    between atoms: C_18  and  C_20 
REMARK    8  A    between atoms: C_20  and  C_21 
ROOT
HETATM    1  C           1     -32.815  -4.612 -16.552  0.00  0.00     0.210 C 
ENDROOT
BRANCH   1   2
HETATM    2  N           1     -31.503  -4.856 -15.986  0.00  0.00    -0.343 N 
HETATM    3  H           1     -31.208  -4.352 -15.159  0.00  0.00     0.163 HD
HETATM    4  C           1     -30.663  -5.766 -16.569  0.00  0.00     0.248 C 
HETATM    5  O           1     -31.015  -6.367 -17.556  0.00  0.00    -0.271 OA
BRANCH   4   6
HETATM    6  C           1     -29.298  -6.019 -15.979  0.00  0.00     0.270 C 
HETATM    7  C           1     -28.393  -4.826 -16.262  0.00  0.00     0.050 C 
BRANCH   6   8
HETATM    8  N           1     -28.706  -7.251 -16.599  0.00  0.00    -0.067 N 
HETATM    9  H           1     -28.864  -8.069 -15.968  0.00  0.00     0.275 HD
HETATM   10  H           1     -29.162  -7.430 -17.521  0.00  0.00     0.275 HD
HETATM   11  H           1     -27.680  -7.111 -16.739  0.00  0.00     0.275 HD
ENDBRANCH   6   8
ENDBRANCH   4   6
ENDBRANCH   1   2
BRANCH   1  12
HETATM   12  C           1     -32.794  -3.322 -17.334  0.00  0.00     0.198 C 
HETATM   13  O           1     -33.793  -2.572 -17.330  0.00  0.00    -0.646 OA
HETATM   14  O           1     -31.776  -3.003 -17.986  0.00  0.00    -0.646 OA
ENDBRANCH   1  12
BRANCH   1  15
HETATM   15  C           1     -33.840  -4.509 -15.430  0.00  0.00     0.217 C 
BRANCH  15  16
HETATM   16  O           1     -33.202  -4.104 -14.249  0.00  0.00    -0.287 OA
BRANCH  16  17
HETATM   17  P           1     -34.153  -3.921 -12.957  0.00  0.00     0.406 P 
HETATM   18  O           1     -35.078  -5.073 -12.857  0.00  0.00    -0.624 OA
HETATM   19  O           1     -34.935  -2.672 -13.094  0.00  0.00    -0.624 OA
BRANCH  17  20
HETATM   20  O           1     -33.243  -3.845 -11.626  0.00  0.00    -0.300 OA
HETATM   21  H           1     -33.314  -2.952 -11.333  0.00  0.00     0.223 HD
ENDBRANCH  17  20
ENDBRANCH  16  17
ENDBRANCH  15  16
ENDBRANCH   1  15
TORSDOF 8
ENDMDL
MODEL 8
REMARK VINA RESULT:      -5.0     16.683     18.454
REMARK  8 active torsions:
REMARK  status: ('A' for Active; 'I' for Inactive)
REMARK    1  A    between atoms: O_2  and  C_21 
REMARK    2  A    between atoms: O_2  and  P_3 
REMARK    3  A    between atoms: P_3  and  O_16 
REMARK    4  A    between atoms: N_10  and  C_12 
REMARK    5  A    between atoms: C_12  and  C_13 
REMARK       I    between atoms: C_13  and  N_14 
REMARK    6  A    between atoms: N_14  and  C_20 
REMARK    7  A    between atoms: C_18  and  C_20 
REMARK    8  A    between atoms: C_20  and  C_21 
ROOT
HETATM    1  C           1     -21.191  -6.577  -3.893  0.00  0.00     0.210 C 
ENDROOT
BRANCH   1   2
HETATM    2  N           1     -21.969  -6.019  -4.981  0.00  0.00    -0.343 N 
HETATM    3  H           1     -22.975  -6.123  -4.988  0.00  0.00     0.163 HD
HETATM    4  C           1     -21.343  -5.351  -5.999  0.00  0.00     0.248 C 
HETATM    5  O           1     -20.141  -5.227  -5.991  0.00  0.00    -0.271 OA
BRANCH   4   6
HETATM    6  C           1     -22.153  -4.771  -7.132  0.00  0.00     0.270 C 
HETATM    7  C           1     -21.564  -3.427  -7.543  0.00  0.00     0.050 C 
BRANCH   6   8
HETATM    8  N           1     -23.571  -4.576  -6.682  0.00  0.00    -0.067 N 
HETATM    9  H           1     -23.663  -4.867  -5.682  0.00  0.00     0.275 HD
HETATM   10  H           1     -23.832  -3.569  -6.777  0.00  0.00     0.275 HD
HETATM   11  H           1     -24.206  -5.158  -7.274  0.00  0.00     0.275 HD
ENDBRANCH   6   8
ENDBRANCH   4   6
ENDBRANCH   1   2
BRANCH   1  12
HETATM   12  C           1     -20.869  -8.020  -4.193  0.00  0.00     0.198 C 
HETATM   13  O           1     -19.691  -8.361  -4.434  0.00  0.00    -0.646 OA
HETATM   14  O           1     -21.781  -8.875  -4.201  0.00  0.00    -0.646 OA
ENDBRANCH   1  12
BRANCH   1  15
HETATM   15  C           1     -21.994  -6.493  -2.601  0.00  0.00     0.217 C 
BRANCH  15  16
HETATM   16  O           1     -21.238  -7.024  -1.546  0.00  0.00    -0.287 OA
BRANCH  16  17
HETATM   17  P           1     -22.031  -7.992  -0.525  0.00  0.00     0.406 P 
HETATM   18  O           1     -23.287  -7.336  -0.095  0.00  0.00    -0.624 OA
HETATM   19  O           1     -21.184  -8.258   0.660  0.00  0.00    -0.624 OA
BRANCH  17  20
HETATM   20  O           1     -22.377  -9.385  -1.264  0.00  0.00    -0.300 OA
HETATM   21  H           1     -21.677  -9.514  -1.881  0.00  0.00     0.223 HD
ENDBRANCH  17  20
ENDBRANCH  16  17
ENDBRANCH  15  16
ENDBRANCH   1  15
TORSDOF 8
ENDMDL
MODEL 9
REMARK VINA RESULT:      -4.8      6.037      7.396
REMARK  8 active torsions:
REMARK  status: ('A' for Active; 'I' for Inactive)
REMARK    1  A    between atoms: O_2  and  C_21 
REMARK    2  A    between atoms: O_2  and  P_3 
REMARK    3  A    between atoms: P_3  and  O_16 
REMARK    4  A    between atoms: N_10  and  C_12 
REMARK    5  A    between atoms: C_12  and  C_13 
REMARK       I    between atoms: C_13  and  N_14 
REMARK    6  A    between atoms: N_14  and  C_20 
REMARK    7  A    between atoms: C_18  and  C_20 
REMARK    8  A    between atoms: C_20  and  C_21 
ROOT
HETATM    1  C           1     -31.033  -4.961 -17.313  0.00  0.00     0.210 C 
ENDROOT
BRANCH   1   2
HETATM    2  N           1     -29.952  -5.314 -16.414  0.00  0.00    -0.343 N 
HETATM    3  H           1     -30.039  -5.130 -15.423  0.00  0.00     0.163 HD
HETATM    4  C           1     -28.815  -5.896 -16.905  0.00  0.00     0.248 C 
HETATM    5  O           1     -28.711  -6.115 -18.088  0.00  0.00    -0.271 OA
BRANCH   4   6
HETATM    6  C           1     -27.690  -6.263 -15.969  0.00  0.00     0.270 C 
HETATM    7  C           1     -26.360  -6.146 -16.702  0.00  0.00     0.050 C 
BRANCH   6   8
HETATM    8  N           1     -27.876  -7.674 -15.495  0.00  0.00    -0.067 N 
HETATM    9  H           1     -26.957  -8.173 -15.516  0.00  0.00     0.275 HD
HETATM   10  H           1     -28.246  -7.668 -14.518  0.00  0.00     0.275 HD
HETATM   11  H           1     -28.553  -8.165 -16.122  0.00  0.00     0.275 HD
ENDBRANCH   6   8
ENDBRANCH   4   6
ENDBRANCH   1   2
BRANCH   1  12
HETATM   12  C           1     -30.995  -3.478 -17.588  0.00  0.00     0.198 C 
HETATM   13  O           1     -32.027  -2.886 -17.971  0.00  0.00    -0.646 OA
HETATM   14  O           1     -29.930  -2.841 -17.433  0.00  0.00    -0.646 OA
ENDBRANCH   1  12
BRANCH   1  15
HETATM   15  C           1     -32.366  -5.324 -16.671  0.00  0.00     0.217 C 
BRANCH  15  16
HETATM   16  O           1     -32.633  -4.440 -15.616  0.00  0.00    -0.287 OA
BRANCH  16  17
HETATM   17  P           1     -34.188  -4.079 -15.372  0.00  0.00     0.406 P 
HETATM   18  O           1     -34.355  -3.497 -14.021  0.00  0.00    -0.624 OA
HETATM   19  O           1     -35.003  -5.311 -15.481  0.00  0.00    -0.624 OA
BRANCH  17  20
HETATM   20  O           1     -34.674  -3.012 -16.482  0.00  0.00    -0.300 OA
HETATM   21  H           1     -34.317  -2.187 -16.199  0.00  0.00     0.223 HD
ENDBRANCH  17  20
ENDBRANCH  16  17
ENDBRANCH  15  16
ENDBRANCH   1  15
TORSDOF 8
ENDMDL
