MODEL 1
REMARK VINA RESULT:      -6.1      0.000      0.000
REMARK  6 active torsions:
REMARK  status: ('A' for Active; 'I' for Inactive)
REMARK    1  A    between atoms: C_1  and  C_2 
REMARK    2  A    between atoms: C_1  and  C_17 
REMARK    3  A    between atoms: C_1  and  N_10 
REMARK       I    between atoms: C_2  and  N_3 
REMARK    4  A    between atoms: N_3  and  C_19 
REMARK    5  A    between atoms: C_12  and  C_19 
REMARK       I    between atoms: N_15  and  C_16 
REMARK    6  A    between atoms: C_16  and  C_17 
ROOT
HETATM    1  C           1     -30.815  -6.125 -17.415  0.00  0.00     0.283 C 
ENDROOT
BRANCH   1   2
HETATM    2  C           1     -29.710  -7.008 -16.889  0.00  0.00     0.249 C 
HETATM    3  N           1     -28.758  -6.490 -16.054  0.00  0.00    -0.349 N 
HETATM    4  H           1     -28.794  -5.514 -15.789  0.00  0.00     0.163 HD
HETATM    5  O           1     -29.667  -8.174 -17.206  0.00  0.00    -0.271 OA
BRANCH   3   6
HETATM    6  C           1     -27.696  -7.340 -15.550  0.00  0.00     0.235 C 
BRANCH   6   7
HETATM    7  C           1     -26.360  -6.698 -15.833  0.00  0.00     0.191 C 
HETATM    8  O           1     -25.308  -7.234 -15.421  0.00  0.00    -0.647 OA
HETATM    9  O           1     -26.305  -5.630 -16.479  0.00  0.00    -0.647 OA
ENDBRANCH   6   7
ENDBRANCH   3   6
ENDBRANCH   1   2
BRANCH   1  10
HETATM   10  C           1     -30.894  -4.856 -16.577  0.00  0.00     0.145 C 
BRANCH  10  11
HETATM   11  C           1     -30.753  -3.650 -17.474  0.00  0.00     0.217 C 
HETATM   12  O           1     -31.730  -3.017 -17.795  0.00  0.00    -0.274 OA
HETATM   13  N           1     -29.515  -3.274 -17.925  0.00  0.00    -0.370 N 
HETATM   14  H           1     -28.696  -3.803 -17.656  0.00  0.00     0.159 HD
HETATM   15  H           1     -29.420  -2.466 -18.527  0.00  0.00     0.159 HD
ENDBRANCH  10  11
ENDBRANCH   1  10
BRANCH   1  16
HETATM   16  N           1     -32.122  -6.858 -17.335  0.00  0.00    -0.066 N 
HETATM   17  H           1     -32.749  -6.537 -18.107  0.00  0.00     0.275 HD
HETATM   18  H           1     -32.575  -6.662 -16.413  0.00  0.00     0.275 HD
HETATM   19  H           1     -31.953  -7.884 -17.428  0.00  0.00     0.275 HD
ENDBRANCH   1  16
TORSDOF 6
ENDMDL
MODEL 2
REMARK VINA RESULT:      -6.0      1.807      2.328
REMARK  6 active torsions:
REMARK  status: ('A' for Active; 'I' for Inactive)
REMARK    1  A    between atoms: C_1  and  C_2 
REMARK    2  A    between atoms: C_1  and  C_17 
REMARK    3  A    between atoms: C_1  and  N_10 
REMARK       I    between atoms: C_2  and  N_3 
REMARK    4  A    between atoms: N_3  and  C_19 
REMARK    5  A    between atoms: C_12  and  C_19 
REMARK       I    between atoms: N_15  and  C_16 
REMARK    6  A    between atoms: C_16  and  C_17 
ROOT
HETATM    1  C           1     -29.274  -4.736 -17.339  0.00  0.00     0.283 C 
ENDROOT
BRANCH   1   2
HETATM    2  C           1     -28.391  -5.399 -16.311  0.00  0.00     0.249 C 
HETATM    3  N           1     -27.760  -6.577 -16.607  0.00  0.00    -0.349 N 
HETATM    4  H           1     -27.885  -7.004 -17.516  0.00  0.00     0.163 HD
HETATM    5  O           1     -28.241  -4.890 -15.225  0.00  0.00    -0.271 OA
BRANCH   3   6
HETATM    6  C           1     -26.911  -7.214 -15.618  0.00  0.00     0.235 C 
BRANCH   6   7
HETATM    7  C           1     -25.463  -6.974 -15.969  0.00  0.00     0.191 C 
HETATM    8  O           1     -25.035  -5.806 -16.095  0.00  0.00    -0.647 OA
HETATM    9  O           1     -24.691  -7.943 -16.132  0.00  0.00    -0.647 OA
ENDBRANCH   6   7
ENDBRANCH   3   6
ENDBRANCH   1   2
BRANCH   1  10
HETATM   10  C           1     -30.714  -5.195 -17.146  0.00  0.00     0.145 C 
BRANCH  10  11
HETATM   11  C           1     -31.636  -4.003 -17.225  0.00  0.00     0.217 C 
HETATM   12  O           1     -31.227  -2.948 -17.649  0.00  0.00    -0.274 OA
HETATM   13  N           1     -32.938  -4.118 -16.817  0.00  0.00    -0.370 N 
HETATM   14  H           1     -33.282  -5.000 -16.463  0.00  0.00     0.159 HD
HETATM   15  H           1     -33.557  -3.318 -16.869  0.00  0.00     0.159 HD
ENDBRANCH  10  11
ENDBRANCH   1  10
BRANCH   1  16
HETATM   16  N           1     -28.810  -5.115 -18.715  0.00  0.00    -0.066 N 
HETATM   17  H           1     -28.069  -5.849 -18.643  0.00  0.00     0.275 HD
HETATM   18  H           1     -28.421  -4.273 -19.196  0.00  0.00     0.275 HD
HETATM   19  H           1     -29.617  -5.488 -19.265  0.00  0.00     0.275 HD
ENDBRANCH   1  16
TORSDOF 6
ENDMDL
MODEL 3
REMARK VINA RESULT:      -6.0      8.915     11.000
REMARK  6 active torsions:
REMARK  status: ('A' for Active; 'I' for Inactive)
REMARK    1  A    between atoms: C_1  and  C_2 
REMARK    2  A    between atoms: C_1  and  C_17 
REMARK    3  A    between atoms: C_1  and  N_10 
REMARK       I    between atoms: C_2  and  N_3 
REMARK    4  A    between atoms: N_3  and  C_19 
REMARK    5  A    between atoms: C_12  and  C_19 
REMARK       I    between atoms: N_15  and  C_16 
REMARK    6  A    between atoms: C_16  and  C_17 
ROOT
HETATM    1  C           1     -21.919  -3.793 -10.966  0.00  0.00     0.283 C 
ENDROOT
BRANCH   1   2
HETATM    2  C           1     -20.762  -4.260 -10.116  0.00  0.00     0.249 C 
HETATM    3  N           1     -20.742  -3.984  -8.776  0.00  0.00    -0.349 N 
HETATM    4  H           1     -21.502  -3.467  -8.354  0.00  0.00     0.163 HD
HETATM    5  O           1     -19.854  -4.878 -10.620  0.00  0.00    -0.271 OA
BRANCH   3   6
HETATM    6  C           1     -19.630  -4.434  -7.960  0.00  0.00     0.235 C 
BRANCH   6   7
HETATM    7  C           1     -20.145  -5.318  -6.850  0.00  0.00     0.191 C 
HETATM    8  O           1     -20.226  -4.875  -5.684  0.00  0.00    -0.647 OA
HETATM    9  O           1     -20.490  -6.493  -7.098  0.00  0.00    -0.647 OA
ENDBRANCH   6   7
ENDBRANCH   3   6
ENDBRANCH   1   2
BRANCH   1  10
HETATM   10  C           1     -23.153  -4.625 -10.647  0.00  0.00     0.145 C 
BRANCH  10  11
HETATM   11  C           1     -24.247  -3.725 -10.127  0.00  0.00     0.217 C 
HETATM   12  O           1     -25.018  -3.202 -10.896  0.00  0.00    -0.274 OA
HETATM   13  N           1     -24.364  -3.499  -8.781  0.00  0.00    -0.370 N 
HETATM   14  H           1     -23.719  -3.937  -8.136  0.00  0.00     0.159 HD
HETATM   15  H           1     -25.098  -2.895  -8.432  0.00  0.00     0.159 HD
ENDBRANCH  10  11
ENDBRANCH   1  10
BRANCH   1  16
HETATM   16  N           1     -21.570  -3.952 -12.417  0.00  0.00    -0.066 N 
HETATM   17  H           1     -20.553  -3.748 -12.555  0.00  0.00     0.275 HD
HETATM   18  H           1     -22.140  -3.287 -12.987  0.00  0.00     0.275 HD
HETATM   19  H           1     -21.772  -4.931 -12.719  0.00  0.00     0.275 HD
ENDBRANCH   1  16
TORSDOF 6
ENDMDL
MODEL 4
REMARK VINA RESULT:      -5.9      6.776      9.108
REMARK  6 active torsions:
REMARK  status: ('A' for Active; 'I' for Inactive)
REMARK    1  A    between atoms: C_1  and  C_2 
REMARK    2  A    between atoms: C_1  and  C_17 
REMARK    3  A    between atoms: C_1  and  N_10 
REMARK       I    between atoms: C_2  and  N_3 
REMARK    4  A    between atoms: N_3  and  C_19 
REMARK    5  A    between atoms: C_12  and  C_19 
REMARK       I    between atoms: N_15  and  C_16 
REMARK    6  A    between atoms: C_16  and  C_17 
ROOT
HETATM    1  C           1     -34.727  -1.700 -11.948  0.00  0.00     0.283 C 
ENDROOT
BRANCH   1   2
HETATM    2  C           1     -35.560  -1.058 -13.030  0.00  0.00     0.249 C 
HETATM    3  N           1     -34.953  -0.513 -14.129  0.00  0.00    -0.349 N 
HETATM    4  H           1     -33.946  -0.540 -14.216  0.00  0.00     0.163 HD
HETATM    5  O           1     -36.764  -1.026 -12.926  0.00  0.00    -0.271 OA
BRANCH   3   6
HETATM    6  C           1     -35.755   0.104 -15.168  0.00  0.00     0.235 C 
BRANCH   6   7
HETATM    7  C           1     -35.841  -0.824 -16.355  0.00  0.00     0.191 C 
HETATM    8  O           1     -36.856  -0.812 -17.086  0.00  0.00    -0.647 OA
HETATM    9  O           1     -34.899  -1.605 -16.607  0.00  0.00    -0.647 OA
ENDBRANCH   6   7
ENDBRANCH   3   6
ENDBRANCH   1   2
BRANCH   1  10
HETATM   10  C           1     -34.927  -3.210 -11.979  0.00  0.00     0.145 C 
BRANCH  10  11
HETATM   11  C           1     -33.976  -3.822 -12.979  0.00  0.00     0.217 C 
HETATM   12  O           1     -34.210  -3.745 -14.162  0.00  0.00    -0.274 OA
HETATM   13  N           1     -32.848  -4.466 -12.545  0.00  0.00    -0.370 N 
HETATM   14  H           1     -32.652  -4.531 -11.555  0.00  0.00     0.159 HD
HETATM   15  H           1     -32.211  -4.878 -13.216  0.00  0.00     0.159 HD
ENDBRANCH  10  11
ENDBRANCH   1  10
BRANCH   1  16
HETATM   16  N           1     -35.149  -1.169 -10.610  0.00  0.00    -0.066 N 
HETATM   17  H           1     -34.304  -0.875 -10.069  0.00  0.00     0.275 HD
HETATM   18  H           1     -35.658  -1.915 -10.083  0.00  0.00     0.275 HD
HETATM   19  H           1     -35.780  -0.347 -10.744  0.00  0.00     0.275 HD
ENDBRANCH   1  16
TORSDOF 6
ENDMDL
MODEL 5
REMARK VINA RESULT:      -5.7      7.368      9.804
REMARK  6 active torsions:
REMARK  status: ('A' for Active; 'I' for Inactive)
REMARK    1  A    between atoms: C_1  and  C_2 
REMARK    2  A    between atoms: C_1  and  C_17 
REMARK    3  A    between atoms: C_1  and  N_10 
REMARK       I    between atoms: C_2  and  N_3 
REMARK    4  A    between atoms: N_3  and  C_19 
REMARK    5  A    between atoms: C_12  and  C_19 
REMARK       I    between atoms: N_15  and  C_16 
REMARK    6  A    between atoms: C_16  and  C_17 
ROOT
HETATM    1  C           1     -33.724  -2.527 -11.230  0.00  0.00     0.283 C 
ENDROOT
BRANCH   1   2
HETATM    2  C           1     -34.536  -1.811 -12.282  0.00  0.00     0.249 C 
HETATM    3  N           1     -35.040  -0.564 -12.027  0.00  0.00    -0.349 N 
HETATM    4  H           1     -34.868  -0.121 -11.133  0.00  0.00     0.163 HD
HETATM    5  O           1     -34.742  -2.338 -13.349  0.00  0.00    -0.271 OA
BRANCH   3   6
HETATM    6  C           1     -35.820   0.124 -13.037  0.00  0.00     0.235 C 
BRANCH   6   7
HETATM    7  C           1     -37.255  -0.337 -12.966  0.00  0.00     0.191 C 
HETATM    8  O           1     -37.853  -0.353 -11.868  0.00  0.00    -0.647 OA
HETATM    9  O           1     -37.846  -0.703 -14.004  0.00  0.00    -0.647 OA
ENDBRANCH   6   7
ENDBRANCH   3   6
ENDBRANCH   1   2
BRANCH   1  10
HETATM   10  C           1     -34.346  -3.888 -10.946  0.00  0.00     0.145 C 
BRANCH  10  11
HETATM   11  C           1     -33.384  -4.976 -11.358  0.00  0.00     0.217 C 
HETATM   12  O           1     -33.517  -6.096 -10.926  0.00  0.00    -0.274 OA
HETATM   13  N           1     -32.360  -4.692 -12.222  0.00  0.00    -0.370 N 
HETATM   14  H           1     -32.249  -3.755 -12.585  0.00  0.00     0.159 HD
HETATM   15  H           1     -31.714  -5.422 -12.498  0.00  0.00     0.159 HD
ENDBRANCH  10  11
ENDBRANCH   1  10
BRANCH   1  16
HETATM   16  N           1     -33.710  -1.712  -9.970  0.00  0.00    -0.066 N 
HETATM   17  H           1     -34.499  -2.011  -9.353  0.00  0.00     0.275 HD
HETATM   18  H           1     -33.817  -0.700 -10.208  0.00  0.00     0.275 HD
HETATM   19  H           1     -32.803  -1.858  -9.471  0.00  0.00     0.275 HD
ENDBRANCH   1  16
TORSDOF 6
ENDMDL
MODEL 6
REMARK VINA RESULT:      -5.6      7.133      9.551
REMARK  6 active torsions:
REMARK  status: ('A' for Active; 'I' for Inactive)
REMARK    1  A    between atoms: C_1  and  C_2 
REMARK    2  A    between atoms: C_1  and  C_17 
REMARK    3  A    between atoms: C_1  and  N_10 
REMARK       I    between atoms: C_2  and  N_3 
REMARK    4  A    between atoms: N_3  and  C_19 
REMARK    5  A    between atoms: C_12  and  C_19 
REMARK       I    between atoms: N_15  and  C_16 
REMARK    6  A    between atoms: C_16  and  C_17 
ROOT
HETATM    1  C           1     -34.810  -2.314 -12.364  0.00  0.00     0.283 C 
ENDROOT
BRANCH   1   2
HETATM    2  C           1     -34.927  -0.862 -12.761  0.00  0.00     0.249 C 
HETATM    3  N           1     -34.968  -0.515 -14.084  0.00  0.00    -0.349 N 
HETATM    4  H           1     -34.921  -1.231 -14.797  0.00  0.00     0.163 HD
HETATM    5  O           1     -34.983  -0.006 -11.910  0.00  0.00    -0.271 OA
BRANCH   3   6
HETATM    6  C           1     -35.080   0.880 -14.465  0.00  0.00     0.235 C 
BRANCH   6   7
HETATM    7  C           1     -35.900   0.994 -15.727  0.00  0.00     0.191 C 
HETATM    8  O           1     -36.183   2.120 -16.189  0.00  0.00    -0.647 OA
HETATM    9  O           1     -36.296  -0.038 -16.309  0.00  0.00    -0.647 OA
ENDBRANCH   6   7
ENDBRANCH   3   6
ENDBRANCH   1   2
BRANCH   1  10
HETATM   10  C           1     -33.762  -2.460 -11.270  0.00  0.00     0.145 C 
BRANCH  10  11
HETATM   11  C           1     -33.281  -3.890 -11.222  0.00  0.00     0.217 C 
HETATM   12  O           1     -32.333  -4.233 -11.888  0.00  0.00    -0.274 OA
HETATM   13  N           1     -33.921  -4.800 -10.423  0.00  0.00    -0.370 N 
HETATM   14  H           1     -34.714  -4.514  -9.864  0.00  0.00     0.159 HD
HETATM   15  H           1     -33.599  -5.760 -10.391  0.00  0.00     0.159 HD
ENDBRANCH  10  11
ENDBRANCH   1  10
BRANCH   1  16
HETATM   16  N           1     -34.403  -3.126 -13.558  0.00  0.00    -0.066 N 
HETATM   17  H           1     -33.590  -2.669 -14.030  0.00  0.00     0.275 HD
HETATM   18  H           1     -35.204  -3.188 -14.227  0.00  0.00     0.275 HD
HETATM   19  H           1     -34.132  -4.087 -13.251  0.00  0.00     0.275 HD
ENDBRANCH   1  16
TORSDOF 6
ENDMDL
MODEL 7
REMARK VINA RESULT:      -5.5      9.398     11.420
REMARK  6 active torsions:
REMARK  status: ('A' for Active; 'I' for Inactive)
REMARK    1  A    between atoms: C_1  and  C_2 
REMARK    2  A    between atoms: C_1  and  C_17 
REMARK    3  A    between atoms: C_1  and  N_10 
REMARK       I    between atoms: C_2  and  N_3 
REMARK    4  A    between atoms: N_3  and  C_19 
REMARK    5  A    between atoms: C_12  and  C_19 
REMARK       I    between atoms: N_15  and  C_16 
REMARK    6  A    between atoms: C_16  and  C_17 
ROOT
HETATM    1  C           1     -23.212  -4.257  -9.029  0.00  0.00     0.283 C 
ENDROOT
BRANCH   1   2
HETATM    2  C           1     -22.596  -4.448  -7.665  0.00  0.00     0.249 C 
HETATM    3  N           1     -21.235  -4.430  -7.519  0.00  0.00    -0.349 N 
HETATM    4  H           1     -20.641  -4.289  -8.326  0.00  0.00     0.163 HD
HETATM    5  O           1     -23.305  -4.616  -6.700  0.00  0.00    -0.271 OA
BRANCH   3   6
HETATM    6  C           1     -20.644  -4.614  -6.208  0.00  0.00     0.235 C 
BRANCH   6   7
HETATM    7  C           1     -20.266  -6.064  -6.024  0.00  0.00     0.191 C 
HETATM    8  O           1     -19.645  -6.667  -6.926  0.00  0.00    -0.647 OA
HETATM    9  O           1     -20.574  -6.660  -4.970  0.00  0.00    -0.647 OA
ENDBRANCH   6   7
ENDBRANCH   3   6
ENDBRANCH   1   2
BRANCH   1  10
HETATM   10  C           1     -22.173  -3.676  -9.980  0.00  0.00     0.145 C 
BRANCH  10  11
HETATM   11  C           1     -22.441  -4.171 -11.380  0.00  0.00     0.217 C 
HETATM   12  O           1     -23.521  -4.634 -11.662  0.00  0.00    -0.274 OA
HETATM   13  N           1     -21.459  -4.094 -12.332  0.00  0.00    -0.370 N 
HETATM   14  H           1     -20.556  -3.705 -12.097  0.00  0.00     0.159 HD
HETATM   15  H           1     -21.639  -4.426 -13.272  0.00  0.00     0.159 HD
ENDBRANCH  10  11
ENDBRANCH   1  10
BRANCH   1  16
HETATM   16  N           1     -24.375  -3.314  -8.925  0.00  0.00    -0.066 N 
HETATM   17  H           1     -25.217  -3.836  -8.589  0.00  0.00     0.275 HD
HETATM   18  H           1     -24.574  -2.901  -9.864  0.00  0.00     0.275 HD
HETATM   19  H           1     -24.146  -2.550  -8.250  0.00  0.00     0.275 HD
ENDBRANCH   1  16
TORSDOF 6
ENDMDL
MODEL 8
REMARK VINA RESULT:      -5.3      2.113      2.931
REMARK  6 active torsions:
REMARK  status: ('A' for Active; 'I' for Inactive)
REMARK    1  A    between atoms: C_1  and  C_2 
REMARK    2  A    between atoms: C_1  and  C_17 
REMARK    3  A    between atoms: C_1  and  N_10 
REMARK       I    between atoms: C_2  and  N_3 
REMARK    4  A    between atoms: N_3  and  C_19 
REMARK    5  A    between atoms: C_12  and  C_19 
REMARK       I    between atoms: N_15  and  C_16 
REMARK    6  A    between atoms: C_16  and  C_17 
ROOT
HETATM    1  C           1     -28.950  -4.859 -17.216  0.00  0.00     0.283 C 
ENDROOT
BRANCH   1   2
HETATM    2  C           1     -27.725  -5.597 -17.698  0.00  0.00     0.249 C 
HETATM    3  N           1     -26.706  -5.873 -16.827  0.00  0.00    -0.349 N 
HETATM    4  H           1     -26.773  -5.583 -15.860  0.00  0.00     0.163 HD
HETATM    5  O           1     -27.643  -5.943 -18.852  0.00  0.00    -0.271 OA
BRANCH   3   6
HETATM    6  C           1     -25.528  -6.582 -17.291  0.00  0.00     0.235 C 
BRANCH   6   7
HETATM    7  C           1     -24.906  -7.332 -16.138  0.00  0.00     0.191 C 
HETATM    8  O           1     -24.028  -8.195 -16.355  0.00  0.00    -0.647 OA
HETATM    9  O           1     -25.268  -7.089 -14.967  0.00  0.00    -0.647 OA
ENDBRANCH   6   7
ENDBRANCH   3   6
ENDBRANCH   1   2
BRANCH   1  10
HETATM   10  C           1     -29.779  -5.775 -16.327  0.00  0.00     0.145 C 
BRANCH  10  11
HETATM   11  C           1     -30.336  -6.909 -17.153  0.00  0.00     0.217 C 
HETATM   12  O           1     -31.446  -6.827 -17.624  0.00  0.00    -0.274 OA
HETATM   13  N           1     -29.582  -8.032 -17.369  0.00  0.00    -0.370 N 
HETATM   14  H           1     -28.653  -8.102 -16.976  0.00  0.00     0.159 HD
HETATM   15  H           1     -29.956  -8.793 -17.924  0.00  0.00     0.159 HD
ENDBRANCH  10  11
ENDBRANCH   1  10
BRANCH   1  16
HETATM   16  N           1     -29.772  -4.431 -18.396  0.00  0.00    -0.066 N 
HETATM   17  H           1     -29.434  -3.502 -18.737  0.00  0.00     0.275 HD
HETATM   18  H           1     -30.775  -4.354 -18.113  0.00  0.00     0.275 HD
HETATM   19  H           1     -29.679  -5.137 -19.161  0.00  0.00     0.275 HD
ENDBRANCH   1  16
TORSDOF 6
ENDMDL
MODEL 9
REMARK VINA RESULT:      -5.3      9.809     11.868
REMARK  6 active torsions:
REMARK  status: ('A' for Active; 'I' for Inactive)
REMARK    1  A    between atoms: C_1  and  C_2 
REMARK    2  A    between atoms: C_1  and  C_17 
REMARK    3  A    between atoms: C_1  and  N_10 
REMARK       I    between atoms: C_2  and  N_3 
REMARK    4  A    between atoms: N_3  and  C_19 
REMARK    5  A    between atoms: C_12  and  C_19 
REMARK       I    between atoms: N_15  and  C_16 
REMARK    6  A    between atoms: C_16  and  C_17 
ROOT
HETATM    1  C           1     -22.691  -4.416  -8.812  0.00  0.00     0.283 C 
ENDROOT
BRANCH   1   2
HETATM    2  C           1     -21.887  -4.427  -7.534  0.00  0.00     0.249 C 
HETATM    3  N           1     -21.628  -5.611  -6.899  0.00  0.00    -0.349 N 
HETATM    4  H           1     -21.976  -6.480  -7.286  0.00  0.00     0.163 HD
HETATM    5  O           1     -21.472  -3.391  -7.073  0.00  0.00    -0.271 OA
BRANCH   3   6
HETATM    6  C           1     -20.855  -5.622  -5.672  0.00  0.00     0.235 C 
BRANCH   6   7
HETATM    7  C           1     -21.594  -6.412  -4.619  0.00  0.00     0.191 C 
HETATM    8  O           1     -21.791  -5.915  -3.488  0.00  0.00    -0.647 OA
HETATM    9  O           1     -22.009  -7.562  -4.877  0.00  0.00    -0.647 OA
ENDBRANCH   6   7
ENDBRANCH   3   6
ENDBRANCH   1   2
BRANCH   1  10
HETATM   10  C           1     -21.911  -3.685  -9.897  0.00  0.00     0.145 C 
BRANCH  10  11
HETATM   11  C           1     -22.377  -4.155 -11.254  0.00  0.00     0.217 C 
HETATM   12  O           1     -23.506  -4.562 -11.398  0.00  0.00    -0.274 OA
HETATM   13  N           1     -21.520  -4.120 -12.321  0.00  0.00    -0.370 N 
HETATM   14  H           1     -20.576  -3.779 -12.201  0.00  0.00     0.159 HD
HETATM   15  H           1     -21.833  -4.436 -13.231  0.00  0.00     0.159 HD
ENDBRANCH  10  11
ENDBRANCH   1  10
BRANCH   1  16
HETATM   16  N           1     -23.995  -3.712  -8.575  0.00  0.00    -0.066 N 
HETATM   17  H           1     -24.595  -4.293  -7.946  0.00  0.00     0.275 HD
HETATM   18  H           1     -24.484  -3.568  -9.488  0.00  0.00     0.275 HD
HETATM   19  H           1     -23.816  -2.785  -8.127  0.00  0.00     0.275 HD
ENDBRANCH   1  16
TORSDOF 6
ENDMDL
