MODEL 1
REMARK VINA RESULT:      -6.9      0.000      0.000
REMARK  8 active torsions:
REMARK  status: ('A' for Active; 'I' for Inactive)
REMARK    1  A    between atoms: C_1  and  C_6 
REMARK    2  A    between atoms: C_1  and  C_11 
REMARK    3  A    between atoms: C_1  and  N_14 
REMARK       I    between atoms: C_6  and  N_7 
REMARK    4  A    between atoms: N_7  and  C_24 
REMARK    5  A    between atoms: C_9  and  C_11 
REMARK    6  A    between atoms: C_22  and  O_23 
REMARK    7  A    between atoms: C_22  and  C_24 
REMARK    8  A    between atoms: C_24  and  C_25 
ROOT
HETATM    1  C           1     -21.171  -5.635  -6.940  0.00  0.00     0.280 C 
ENDROOT
BRANCH   1   2
HETATM    2  C           1     -21.692  -4.507  -7.796  0.00  0.00     0.249 C 
HETATM    3  N           1     -22.112  -4.756  -9.076  0.00  0.00    -0.343 N 
HETATM    4  H           1     -22.072  -5.696  -9.447  0.00  0.00     0.163 HD
HETATM    5  O           1     -21.741  -3.384  -7.353  0.00  0.00    -0.271 OA
BRANCH   3   6
HETATM    6  C           1     -22.613  -3.672  -9.898  0.00  0.00     0.214 C 
BRANCH   6   7
HETATM    7  C           1     -21.836  -3.626 -11.207  0.00  0.00     0.147 C 
HETATM    8  C           1     -20.437  -4.186 -10.987  0.00  0.00     0.042 C 
BRANCH   7   9
HETATM    9  O           1     -22.500  -4.395 -12.173  0.00  0.00    -0.393 OA
HETATM   10  H           1     -22.953  -3.793 -12.738  0.00  0.00     0.210 HD
ENDBRANCH   7   9
ENDBRANCH   6   7
BRANCH   6  11
HETATM   11  C           1     -24.076  -3.899 -10.191  0.00  0.00     0.199 C 
HETATM   12  O           1     -24.758  -2.985 -10.705  0.00  0.00    -0.646 OA
HETATM   13  O           1     -24.605  -4.997  -9.920  0.00  0.00    -0.646 OA
ENDBRANCH   6  11
ENDBRANCH   3   6
ENDBRANCH   1   2
BRANCH   1  14
HETATM   14  C           1     -20.801  -5.099  -5.563  0.00  0.00     0.101 C 
BRANCH  14  15
HETATM   15  C           1     -21.143  -6.118  -4.521  0.00  0.00     0.028 A 
HETATM   16  C           1     -21.169  -7.476  -4.735  0.00  0.00     0.114 A 
HETATM   17  N           1     -21.525  -8.018  -3.532  0.00  0.00    -0.360 N 
HETATM   18  C           1     -21.698  -6.986  -2.653  0.00  0.00     0.180 A 
HETATM   19  H           1     -21.644  -9.039  -3.322  0.00  0.00     0.166 HD
HETATM   20  N           1     -21.474  -5.825  -3.224  0.00  0.00    -0.355 N 
ATOM     21  HN          1     -21.534  -4.901  -2.794  1.00  0.00     0.166 HD
ENDBRANCH  14  15
ENDBRANCH   1  14
BRANCH   1  22
HETATM   22  N           1     -19.956  -6.231  -7.587  0.00  0.00    -0.066 N 
HETATM   23  H           1     -20.113  -7.251  -7.751  0.00  0.00     0.275 HD
HETATM   24  H           1     -19.129  -6.101  -6.961  0.00  0.00     0.275 HD
HETATM   25  H           1     -19.779  -5.755  -8.500  0.00  0.00     0.275 HD
ENDBRANCH   1  22
TORSDOF 8
ENDMDL
MODEL 2
REMARK VINA RESULT:      -6.6     11.603     13.693
REMARK  8 active torsions:
REMARK  status: ('A' for Active; 'I' for Inactive)
REMARK    1  A    between atoms: C_1  and  C_6 
REMARK    2  A    between atoms: C_1  and  C_11 
REMARK    3  A    between atoms: C_1  and  N_14 
REMARK       I    between atoms: C_6  and  N_7 
REMARK    4  A    between atoms: N_7  and  C_24 
REMARK    5  A    between atoms: C_9  and  C_11 
REMARK    6  A    between atoms: C_22  and  O_23 
REMARK    7  A    between atoms: C_22  and  C_24 
REMARK    8  A    between atoms: C_24  and  C_25 
ROOT
HETATM    1  C           1     -25.220  -6.839 -19.916  0.00  0.00     0.280 C 
ENDROOT
BRANCH   1   2
HETATM    2  C           1     -26.586  -6.296 -19.575  0.00  0.00     0.249 C 
HETATM    3  N           1     -27.011  -6.281 -18.274  0.00  0.00    -0.343 N 
HETATM    4  H           1     -26.410  -6.634 -17.541  0.00  0.00     0.163 HD
HETATM    5  O           1     -27.305  -5.874 -20.450  0.00  0.00    -0.271 OA
BRANCH   3   6
HETATM    6  C           1     -28.324  -5.760 -17.945  0.00  0.00     0.214 C 
BRANCH   6   7
HETATM    7  C           1     -29.155  -6.853 -17.287  0.00  0.00     0.147 C 
HETATM    8  C           1     -29.817  -7.704 -18.362  0.00  0.00     0.042 C 
BRANCH   7   9
HETATM    9  O           1     -28.324  -7.660 -16.498  0.00  0.00    -0.393 OA
HETATM   10  H           1     -27.476  -7.664 -16.908  0.00  0.00     0.210 HD
ENDBRANCH   7   9
ENDBRANCH   6   7
BRANCH   6  11
HETATM   11  C           1     -28.179  -4.597 -16.995  0.00  0.00     0.199 C 
HETATM   12  O           1     -28.669  -3.485 -17.290  0.00  0.00    -0.646 OA
HETATM   13  O           1     -27.572  -4.746 -15.913  0.00  0.00    -0.646 OA
ENDBRANCH   6  11
ENDBRANCH   3   6
ENDBRANCH   1   2
BRANCH   1  14
HETATM   14  C           1     -25.353  -7.916 -20.985  0.00  0.00     0.101 C 
BRANCH  14  15
HETATM   15  C           1     -24.003  -8.231 -21.550  0.00  0.00     0.028 A 
HETATM   16  C           1     -23.573  -7.857 -22.801  0.00  0.00     0.114 A 
HETATM   17  N           1     -22.300  -8.346 -22.898  0.00  0.00    -0.360 N 
HETATM   18  C           1     -22.015  -8.986 -21.725  0.00  0.00     0.180 A 
HETATM   19  H           1     -21.659  -8.249 -23.724  0.00  0.00     0.166 HD
HETATM   20  N           1     -23.027  -8.933 -20.890  0.00  0.00    -0.355 N 
ATOM     21  HN          1     -23.077  -9.329 -19.951  1.00  0.00     0.166 HD
ENDBRANCH  14  15
ENDBRANCH   1  14
BRANCH   1  22
HETATM   22  N           1     -24.597  -7.430 -18.687  0.00  0.00    -0.066 N 
HETATM   23  H           1     -23.700  -7.900 -18.942  0.00  0.00     0.275 HD
HETATM   24  H           1     -25.251  -8.129 -18.267  0.00  0.00     0.275 HD
HETATM   25  H           1     -24.407  -6.671 -17.994  0.00  0.00     0.275 HD
ENDBRANCH   1  22
TORSDOF 8
ENDMDL
MODEL 3
REMARK VINA RESULT:      -6.3     12.546     14.253
REMARK  8 active torsions:
REMARK  status: ('A' for Active; 'I' for Inactive)
REMARK    1  A    between atoms: C_1  and  C_6 
REMARK    2  A    between atoms: C_1  and  C_11 
REMARK    3  A    between atoms: C_1  and  N_14 
REMARK       I    between atoms: C_6  and  N_7 
REMARK    4  A    between atoms: N_7  and  C_24 
REMARK    5  A    between atoms: C_9  and  C_11 
REMARK    6  A    between atoms: C_22  and  O_23 
REMARK    7  A    between atoms: C_22  and  C_24 
REMARK    8  A    between atoms: C_24  and  C_25 
ROOT
HETATM    1  C           1     -33.038  -4.465 -16.705  0.00  0.00     0.280 C 
ENDROOT
BRANCH   1   2
HETATM    2  C           1     -33.873  -4.486 -15.448  0.00  0.00     0.249 C 
HETATM    3  N           1     -33.351  -4.019 -14.271  0.00  0.00    -0.343 N 
HETATM    4  H           1     -32.405  -3.660 -14.245  0.00  0.00     0.163 HD
HETATM    5  O           1     -35.002  -4.914 -15.479  0.00  0.00    -0.271 OA
BRANCH   3   6
HETATM    6  C           1     -34.152  -4.039 -13.063  0.00  0.00     0.214 C 
BRANCH   6   7
HETATM    7  C           1     -33.290  -4.481 -11.888  0.00  0.00     0.147 C 
HETATM    8  C           1     -33.938  -5.676 -11.203  0.00  0.00     0.042 C 
BRANCH   7   9
HETATM    9  O           1     -32.017  -4.842 -12.352  0.00  0.00    -0.393 OA
HETATM   10  H           1     -31.915  -4.451 -13.204  0.00  0.00     0.210 HD
ENDBRANCH   7   9
ENDBRANCH   6   7
BRANCH   6  11
HETATM   11  C           1     -34.695  -2.657 -12.797  0.00  0.00     0.199 C 
HETATM   12  O           1     -34.964  -1.897 -13.753  0.00  0.00    -0.646 OA
HETATM   13  O           1     -34.876  -2.272 -11.622  0.00  0.00    -0.646 OA
ENDBRANCH   6  11
ENDBRANCH   3   6
ENDBRANCH   1   2
BRANCH   1  14
HETATM   14  C           1     -31.561  -4.493 -16.335  0.00  0.00     0.101 C 
BRANCH  14  15
HETATM   15  C           1     -30.869  -5.562 -17.121  0.00  0.00     0.028 A 
HETATM   16  C           1     -29.696  -5.386 -17.816  0.00  0.00     0.114 A 
HETATM   17  N           1     -29.430  -6.604 -18.377  0.00  0.00    -0.360 N 
HETATM   18  C           1     -30.434  -7.454 -18.008  0.00  0.00     0.180 A 
HETATM   19  H           1     -28.605  -6.842 -18.982  0.00  0.00     0.166 HD
HETATM   20  N           1     -31.319  -6.851 -17.247  0.00  0.00    -0.355 N 
ATOM     21  HN          1     -32.162  -7.255 -16.838  1.00  0.00     0.166 HD
ENDBRANCH  14  15
ENDBRANCH   1  14
BRANCH   1  22
HETATM   22  N           1     -33.335  -3.215 -17.479  0.00  0.00    -0.066 N 
HETATM   23  H           1     -34.059  -3.418 -18.204  0.00  0.00     0.275 HD
HETATM   24  H           1     -32.461  -2.877 -17.943  0.00  0.00     0.275 HD
HETATM   25  H           1     -33.691  -2.479 -16.829  0.00  0.00     0.275 HD
ENDBRANCH   1  22
TORSDOF 8
ENDMDL
MODEL 4
REMARK VINA RESULT:      -5.9      3.045      6.727
REMARK  8 active torsions:
REMARK  status: ('A' for Active; 'I' for Inactive)
REMARK    1  A    between atoms: C_1  and  C_6 
REMARK    2  A    between atoms: C_1  and  C_11 
REMARK    3  A    between atoms: C_1  and  N_14 
REMARK       I    between atoms: C_6  and  N_7 
REMARK    4  A    between atoms: N_7  and  C_24 
REMARK    5  A    between atoms: C_9  and  C_11 
REMARK    6  A    between atoms: C_22  and  O_23 
REMARK    7  A    between atoms: C_22  and  C_24 
REMARK    8  A    between atoms: C_24  and  C_25 
ROOT
HETATM    1  C           1     -21.228  -4.783  -6.598  0.00  0.00     0.280 C 
ENDROOT
BRANCH   1   2
HETATM    2  C           1     -21.834  -5.773  -5.633  0.00  0.00     0.249 C 
HETATM    3  N           1     -21.023  -6.561  -4.861  0.00  0.00    -0.343 N 
HETATM    4  H           1     -20.018  -6.479  -4.937  0.00  0.00     0.163 HD
HETATM    5  O           1     -23.035  -5.871  -5.542  0.00  0.00    -0.271 OA
BRANCH   3   6
HETATM    6  C           1     -21.605  -7.512  -3.934  0.00  0.00     0.214 C 
BRANCH   6   7
HETATM    7  C           1     -20.804  -8.807  -3.965  0.00  0.00     0.147 C 
HETATM    8  C           1     -21.196  -9.618  -5.192  0.00  0.00     0.042 C 
BRANCH   7   9
HETATM    9  O           1     -19.435  -8.508  -4.020  0.00  0.00    -0.393 OA
HETATM   10  H           1     -18.996  -9.289  -4.312  0.00  0.00     0.210 HD
ENDBRANCH   7   9
ENDBRANCH   6   7
BRANCH   6  11
HETATM   11  C           1     -21.577  -6.937  -2.540  0.00  0.00     0.199 C 
HETATM   12  O           1     -22.310  -5.966  -2.250  0.00  0.00    -0.646 OA
HETATM   13  O           1     -20.822  -7.431  -1.675  0.00  0.00    -0.646 OA
ENDBRANCH   6  11
ENDBRANCH   3   6
ENDBRANCH   1   2
BRANCH   1  14
HETATM   14  C           1     -21.351  -5.318  -8.019  0.00  0.00     0.101 C 
BRANCH  14  15
HETATM   15  C           1     -22.400  -4.543  -8.755  0.00  0.00     0.028 A 
HETATM   16  C           1     -22.310  -4.164 -10.073  0.00  0.00     0.114 A 
HETATM   17  N           1     -23.471  -3.488 -10.327  0.00  0.00    -0.360 N 
HETATM   18  C           1     -24.204  -3.483  -9.174  0.00  0.00     0.180 A 
HETATM   19  H           1     -23.748  -3.051 -11.241  0.00  0.00     0.166 HD
HETATM   20  N           1     -23.581  -4.114  -8.205  0.00  0.00    -0.355 N 
ATOM     21  HN          1     -23.905  -4.255  -7.248  1.00  0.00     0.166 HD
ENDBRANCH  14  15
ENDBRANCH   1  14
BRANCH   1  22
HETATM   22  N           1     -19.780  -4.584  -6.263  0.00  0.00    -0.066 N 
HETATM   23  H           1     -19.595  -3.567  -6.106  0.00  0.00     0.275 HD
HETATM   24  H           1     -19.189  -4.928  -7.054  0.00  0.00     0.275 HD
HETATM   25  H           1     -19.546  -5.118  -5.396  0.00  0.00     0.275 HD
ENDBRANCH   1  22
TORSDOF 8
ENDMDL
MODEL 5
REMARK VINA RESULT:      -5.6      3.320      6.638
REMARK  8 active torsions:
REMARK  status: ('A' for Active; 'I' for Inactive)
REMARK    1  A    between atoms: C_1  and  C_6 
REMARK    2  A    between atoms: C_1  and  C_11 
REMARK    3  A    between atoms: C_1  and  N_14 
REMARK       I    between atoms: C_6  and  N_7 
REMARK    4  A    between atoms: N_7  and  C_24 
REMARK    5  A    between atoms: C_9  and  C_11 
REMARK    6  A    between atoms: C_22  and  O_23 
REMARK    7  A    between atoms: C_22  and  C_24 
REMARK    8  A    between atoms: C_24  and  C_25 
ROOT
HETATM    1  C           1     -21.477  -4.264  -7.239  0.00  0.00     0.280 C 
ENDROOT
BRANCH   1   2
HETATM    2  C           1     -20.808  -5.052  -6.140  0.00  0.00     0.249 C 
HETATM    3  N           1     -21.404  -6.182  -5.647  0.00  0.00    -0.343 N 
HETATM    4  H           1     -22.293  -6.487  -6.019  0.00  0.00     0.163 HD
HETATM    5  O           1     -19.745  -4.687  -5.696  0.00  0.00    -0.271 OA
BRANCH   3   6
HETATM    6  C           1     -20.761  -6.939  -4.591  0.00  0.00     0.214 C 
BRANCH   6   7
HETATM    7  C           1     -21.757  -7.189  -3.466  0.00  0.00     0.147 C 
HETATM    8  C           1     -21.026  -7.766  -2.261  0.00  0.00     0.042 C 
BRANCH   7   9
HETATM    9  O           1     -22.369  -5.981  -3.107  0.00  0.00    -0.393 OA
HETATM   10  H           1     -23.254  -6.017  -3.428  0.00  0.00     0.210 HD
ENDBRANCH   7   9
ENDBRANCH   6   7
BRANCH   6  11
HETATM   11  C           1     -20.281  -8.260  -5.141  0.00  0.00     0.199 C 
HETATM   12  O           1     -21.077  -9.008  -5.750  0.00  0.00    -0.646 OA
HETATM   13  O           1     -19.091  -8.606  -4.987  0.00  0.00    -0.646 OA
ENDBRANCH   6  11
ENDBRANCH   3   6
ENDBRANCH   1   2
BRANCH   1  14
HETATM   14  C           1     -22.032  -5.221  -8.286  0.00  0.00     0.101 C 
BRANCH  14  15
HETATM   15  C           1     -23.124  -4.544  -9.054  0.00  0.00     0.028 A 
HETATM   16  C           1     -23.401  -4.769 -10.381  0.00  0.00     0.114 A 
HETATM   17  N           1     -24.459  -3.952 -10.666  0.00  0.00    -0.360 N 
HETATM   18  C           1     -24.775  -3.275  -9.522  0.00  0.00     0.180 A 
HETATM   19  H           1     -24.941  -3.860 -11.595  0.00  0.00     0.166 HD
HETATM   20  N           1     -23.984  -3.613  -8.530  0.00  0.00    -0.355 N 
ATOM     21  HN          1     -24.003  -3.258  -7.574  1.00  0.00     0.166 HD
ENDBRANCH  14  15
ENDBRANCH   1  14
BRANCH   1  22
HETATM   22  N           1     -20.475  -3.351  -7.880  0.00  0.00    -0.066 N 
HETATM   23  H           1     -19.738  -3.098  -7.183  0.00  0.00     0.275 HD
HETATM   24  H           1     -20.955  -2.483  -8.211  0.00  0.00     0.275 HD
HETATM   25  H           1     -20.032  -3.835  -8.693  0.00  0.00     0.275 HD
ENDBRANCH   1  22
TORSDOF 8
ENDMDL
MODEL 6
REMARK VINA RESULT:      -5.6      3.154      7.015
REMARK  8 active torsions:
REMARK  status: ('A' for Active; 'I' for Inactive)
REMARK    1  A    between atoms: C_1  and  C_6 
REMARK    2  A    between atoms: C_1  and  C_11 
REMARK    3  A    between atoms: C_1  and  N_14 
REMARK       I    between atoms: C_6  and  N_7 
REMARK    4  A    between atoms: N_7  and  C_24 
REMARK    5  A    between atoms: C_9  and  C_11 
REMARK    6  A    between atoms: C_22  and  O_23 
REMARK    7  A    between atoms: C_22  and  C_24 
REMARK    8  A    between atoms: C_24  and  C_25 
ROOT
HETATM    1  C           1     -22.341  -5.098  -6.921  0.00  0.00     0.280 C 
ENDROOT
BRANCH   1   2
HETATM    2  C           1     -21.493  -5.574  -5.766  0.00  0.00     0.249 C 
HETATM    3  N           1     -21.959  -6.555  -4.933  0.00  0.00    -0.343 N 
HETATM    4  H           1     -22.873  -6.961  -5.091  0.00  0.00     0.163 HD
HETATM    5  O           1     -20.403  -5.090  -5.577  0.00  0.00    -0.271 OA
BRANCH   3   6
HETATM    6  C           1     -21.145  -7.012  -3.823  0.00  0.00     0.214 C 
BRANCH   6   7
HETATM    7  C           1     -21.991  -7.058  -2.557  0.00  0.00     0.147 C 
HETATM    8  C           1     -21.160  -7.621  -1.412  0.00  0.00     0.042 C 
BRANCH   7   9
HETATM    9  O           1     -22.416  -5.762  -2.232  0.00  0.00    -0.393 OA
HETATM   10  H           1     -23.000  -5.486  -2.918  0.00  0.00     0.210 HD
ENDBRANCH   7   9
ENDBRANCH   6   7
BRANCH   6  11
HETATM   11  C           1     -20.616  -8.393  -4.124  0.00  0.00     0.199 C 
HETATM   12  O           1     -19.382  -8.591  -4.172  0.00  0.00    -0.646 OA
HETATM   13  O           1     -21.409  -9.336  -4.324  0.00  0.00    -0.646 OA
ENDBRANCH   6  11
ENDBRANCH   3   6
ENDBRANCH   1   2
BRANCH   1  14
HETATM   14  C           1     -21.725  -3.840  -7.519  0.00  0.00     0.101 C 
BRANCH  14  15
HETATM   15  C           1     -21.446  -4.062  -8.972  0.00  0.00     0.028 A 
HETATM   16  C           1     -20.208  -4.354  -9.494  0.00  0.00     0.114 A 
HETATM   17  N           1     -20.411  -4.473 -10.841  0.00  0.00    -0.360 N 
HETATM   18  C           1     -21.738  -4.253 -11.077  0.00  0.00     0.180 A 
HETATM   19  H           1     -19.679  -4.694 -11.562  0.00  0.00     0.166 HD
HETATM   20  N           1     -22.389  -4.001  -9.965  0.00  0.00    -0.355 N 
ATOM     21  HN          1     -23.385  -3.802  -9.862  1.00  0.00     0.166 HD
ENDBRANCH  14  15
ENDBRANCH   1  14
BRANCH   1  22
HETATM   22  N           1     -23.725  -4.793  -6.430  0.00  0.00    -0.066 N 
HETATM   23  H           1     -23.872  -3.759  -6.425  0.00  0.00     0.275 HD
HETATM   24  H           1     -23.841  -5.168  -5.461  0.00  0.00     0.275 HD
HETATM   25  H           1     -24.426  -5.242  -7.062  0.00  0.00     0.275 HD
ENDBRANCH   1  22
TORSDOF 8
ENDMDL
MODEL 7
REMARK VINA RESULT:      -5.5      5.427      7.995
REMARK  8 active torsions:
REMARK  status: ('A' for Active; 'I' for Inactive)
REMARK    1  A    between atoms: C_1  and  C_6 
REMARK    2  A    between atoms: C_1  and  C_11 
REMARK    3  A    between atoms: C_1  and  N_14 
REMARK       I    between atoms: C_6  and  N_7 
REMARK    4  A    between atoms: N_7  and  C_24 
REMARK    5  A    between atoms: C_9  and  C_11 
REMARK    6  A    between atoms: C_22  and  O_23 
REMARK    7  A    between atoms: C_22  and  C_24 
REMARK    8  A    between atoms: C_24  and  C_25 
ROOT
HETATM    1  C           1     -19.770  -8.564  -4.786  0.00  0.00     0.280 C 
ENDROOT
BRANCH   1   2
HETATM    2  C           1     -19.887  -8.672  -3.285  0.00  0.00     0.249 C 
HETATM    3  N           1     -21.053  -8.316  -2.661  0.00  0.00    -0.343 N 
HETATM    4  H           1     -21.836  -7.981  -3.207  0.00  0.00     0.163 HD
HETATM    5  O           1     -18.953  -9.073  -2.633  0.00  0.00    -0.271 OA
BRANCH   3   6
HETATM    6  C           1     -21.166  -8.420  -1.220  0.00  0.00     0.214 C 
BRANCH   6   7
HETATM    7  C           1     -21.949  -7.228  -0.684  0.00  0.00     0.147 C 
HETATM    8  C           1     -22.325  -6.308  -1.837  0.00  0.00     0.042 C 
BRANCH   7   9
HETATM    9  O           1     -23.114  -7.682  -0.050  0.00  0.00    -0.393 OA
HETATM   10  H           1     -23.089  -7.357   0.834  0.00  0.00     0.210 HD
ENDBRANCH   7   9
ENDBRANCH   6   7
BRANCH   6  11
HETATM   11  C           1     -21.887  -9.696  -0.862  0.00  0.00     0.199 C 
HETATM   12  O           1     -22.700 -10.201  -1.668  0.00  0.00    -0.646 OA
HETATM   13  O           1     -21.673 -10.248   0.237  0.00  0.00    -0.646 OA
ENDBRANCH   6  11
ENDBRANCH   3   6
ENDBRANCH   1   2
BRANCH   1  14
HETATM   14  C           1     -21.014  -7.886  -5.345  0.00  0.00     0.101 C 
BRANCH  14  15
HETATM   15  C           1     -20.643  -6.552  -5.915  0.00  0.00     0.028 A 
HETATM   16  C           1     -20.825  -5.350  -5.274  0.00  0.00     0.114 A 
HETATM   17  N           1     -20.353  -4.408  -6.146  0.00  0.00    -0.360 N 
HETATM   18  C           1     -19.914  -5.065  -7.260  0.00  0.00     0.180 A 
HETATM   19  H           1     -20.334  -3.370  -5.988  0.00  0.00     0.166 HD
HETATM   20  N           1     -20.076  -6.363  -7.149  0.00  0.00    -0.355 N 
ATOM     21  HN          1     -19.834  -7.079  -7.835  1.00  0.00     0.166 HD
ENDBRANCH  14  15
ENDBRANCH   1  14
BRANCH   1  22
HETATM   22  N           1     -19.642  -9.936  -5.375  0.00  0.00    -0.066 N 
HETATM   23  H           1     -19.224 -10.582  -4.668  0.00  0.00     0.275 HD
HETATM   24  H           1     -19.026  -9.897  -6.219  0.00  0.00     0.275 HD
HETATM   25  H           1     -20.587 -10.287  -5.651  0.00  0.00     0.275 HD
ENDBRANCH   1  22
TORSDOF 8
ENDMDL
MODEL 8
REMARK VINA RESULT:      -5.5     10.606     13.035
REMARK  8 active torsions:
REMARK  status: ('A' for Active; 'I' for Inactive)
REMARK    1  A    between atoms: C_1  and  C_6 
REMARK    2  A    between atoms: C_1  and  C_11 
REMARK    3  A    between atoms: C_1  and  N_14 
REMARK       I    between atoms: C_6  and  N_7 
REMARK    4  A    between atoms: N_7  and  C_24 
REMARK    5  A    between atoms: C_9  and  C_11 
REMARK    6  A    between atoms: C_22  and  O_23 
REMARK    7  A    between atoms: C_22  and  C_24 
REMARK    8  A    between atoms: C_24  and  C_25 
ROOT
HETATM    1  C           1     -29.937  -4.021 -17.426  0.00  0.00     0.280 C 
ENDROOT
BRANCH   1   2
HETATM    2  C           1     -28.568  -4.366 -16.892  0.00  0.00     0.249 C 
HETATM    3  N           1     -27.913  -5.476 -17.354  0.00  0.00    -0.343 N 
HETATM    4  H           1     -28.347  -6.065 -18.052  0.00  0.00     0.163 HD
HETATM    5  O           1     -28.050  -3.663 -16.057  0.00  0.00    -0.271 OA
BRANCH   3   6
HETATM    6  C           1     -26.598  -5.808 -16.841  0.00  0.00     0.214 C 
BRANCH   6   7
HETATM    7  C           1     -26.739  -6.750 -15.651  0.00  0.00     0.147 C 
HETATM    8  C           1     -28.055  -7.507 -15.756  0.00  0.00     0.042 C 
BRANCH   7   9
HETATM    9  O           1     -25.674  -7.662 -15.649  0.00  0.00    -0.393 OA
HETATM   10  H           1     -25.403  -7.764 -14.752  0.00  0.00     0.210 HD
ENDBRANCH   7   9
ENDBRANCH   6   7
BRANCH   6  11
HETATM   11  C           1     -25.792  -6.484 -17.923  0.00  0.00     0.199 C 
HETATM   12  O           1     -24.561  -6.648 -17.774  0.00  0.00    -0.646 OA
HETATM   13  O           1     -26.354  -6.879 -18.966  0.00  0.00    -0.646 OA
ENDBRANCH   6  11
ENDBRANCH   3   6
ENDBRANCH   1   2
BRANCH   1  14
HETATM   14  C           1     -30.957  -5.017 -16.889  0.00  0.00     0.101 C 
BRANCH  14  15
HETATM   15  C           1     -32.278  -4.333 -16.713  0.00  0.00     0.028 A 
HETATM   16  C           1     -32.792  -3.394 -17.574  0.00  0.00     0.114 A 
HETATM   17  N           1     -33.999  -3.042 -17.035  0.00  0.00    -0.360 N 
HETATM   18  C           1     -34.163  -3.767 -15.890  0.00  0.00     0.180 A 
HETATM   19  H           1     -34.674  -2.341 -17.430  0.00  0.00     0.166 HD
HETATM   20  N           1     -33.138  -4.557 -15.669  0.00  0.00    -0.355 N 
ATOM     21  HN          1     -33.008  -5.200 -14.887  1.00  0.00     0.166 HD
ENDBRANCH  14  15
ENDBRANCH   1  14
BRANCH   1  22
HETATM   22  N           1     -29.918  -4.084 -18.923  0.00  0.00    -0.066 N 
HETATM   23  H           1     -30.116  -5.062 -19.234  0.00  0.00     0.275 HD
HETATM   24  H           1     -28.977  -3.791 -19.272  0.00  0.00     0.275 HD
HETATM   25  H           1     -30.647  -3.442 -19.309  0.00  0.00     0.275 HD
ENDBRANCH   1  22
TORSDOF 8
ENDMDL
MODEL 9
REMARK VINA RESULT:      -5.4      4.129      7.800
REMARK  8 active torsions:
REMARK  status: ('A' for Active; 'I' for Inactive)
REMARK    1  A    between atoms: C_1  and  C_6 
REMARK    2  A    between atoms: C_1  and  C_11 
REMARK    3  A    between atoms: C_1  and  N_14 
REMARK       I    between atoms: C_6  and  N_7 
REMARK    4  A    between atoms: N_7  and  C_24 
REMARK    5  A    between atoms: C_9  and  C_11 
REMARK    6  A    between atoms: C_22  and  O_23 
REMARK    7  A    between atoms: C_22  and  C_24 
REMARK    8  A    between atoms: C_24  and  C_25 
ROOT
HETATM    1  C           1     -21.629  -6.575  -5.438  0.00  0.00     0.280 C 
ENDROOT
BRANCH   1   2
HETATM    2  C           1     -20.874  -7.426  -4.446  0.00  0.00     0.249 C 
HETATM    3  N           1     -21.422  -7.698  -3.221  0.00  0.00    -0.343 N 
HETATM    4  H           1     -22.332  -7.328  -2.981  0.00  0.00     0.163 HD
HETATM    5  O           1     -19.787  -7.869  -4.733  0.00  0.00    -0.271 OA
BRANCH   3   6
HETATM    6  C           1     -20.697  -8.516  -2.268  0.00  0.00     0.214 C 
BRANCH   6   7
HETATM    7  C           1     -21.032  -8.063  -0.852  0.00  0.00     0.147 C 
HETATM    8  C           1     -22.203  -7.091  -0.893  0.00  0.00     0.042 C 
BRANCH   7   9
HETATM    9  O           1     -21.376  -9.178  -0.074  0.00  0.00    -0.393 OA
HETATM   10  H           1     -20.673  -9.312   0.538  0.00  0.00     0.210 HD
ENDBRANCH   7   9
ENDBRANCH   6   7
BRANCH   6  11
HETATM   11  C           1     -21.096  -9.961  -2.440  0.00  0.00     0.199 C 
HETATM   12  O           1     -20.244 -10.865  -2.292  0.00  0.00    -0.646 OA
HETATM   13  O           1     -22.275 -10.254  -2.730  0.00  0.00    -0.646 OA
ENDBRANCH   6  11
ENDBRANCH   3   6
ENDBRANCH   1   2
BRANCH   1  14
HETATM   14  C           1     -20.841  -5.301  -5.717  0.00  0.00     0.101 C 
BRANCH  14  15
HETATM   15  C           1     -21.195  -4.782  -7.076  0.00  0.00     0.028 A 
HETATM   16  C           1     -20.509  -5.080  -8.229  0.00  0.00     0.114 A 
HETATM   17  N           1     -21.167  -4.402  -9.218  0.00  0.00    -0.360 N 
HETATM   18  C           1     -22.204  -3.732  -8.635  0.00  0.00     0.180 A 
HETATM   19  H           1     -20.918  -4.397 -10.238  0.00  0.00     0.166 HD
HETATM   20  N           1     -22.247  -3.943  -7.339  0.00  0.00    -0.355 N 
ATOM     21  HN          1     -22.918  -3.563  -6.672  1.00  0.00     0.166 HD
ENDBRANCH  14  15
ENDBRANCH   1  14
BRANCH   1  22
HETATM   22  N           1     -22.970  -6.219  -4.871  0.00  0.00    -0.066 N 
HETATM   23  H           1     -23.690  -6.258  -5.627  0.00  0.00     0.275 HD
HETATM   24  H           1     -22.934  -5.254  -4.471  0.00  0.00     0.275 HD
HETATM   25  H           1     -23.221  -6.898  -4.117  0.00  0.00     0.275 HD
ENDBRANCH   1  22
TORSDOF 8
ENDMDL
