MODEL 1
REMARK VINA RESULT:      -6.2      0.000      0.000
REMARK  10 active torsions:
REMARK  status: ('A' for Active; 'I' for Inactive)
REMARK    1  A    between atoms: C_1  and  C_18 
REMARK    2  A    between atoms: C_1  and  C_19 
REMARK    3  A    between atoms: C_1  and  N_23 
REMARK    4  A    between atoms: N_2  and  C_15 
REMARK       I    between atoms: N_2  and  C_18 
REMARK    5  A    between atoms: C_4  and  C_10 
REMARK    6  A    between atoms: C_6  and  C_15 
REMARK    7  A    between atoms: C_8  and  C_19 
REMARK    8  A    between atoms: C_8  and  C_22 
REMARK    9  A    between atoms: C_9  and  C_10 
REMARK   10  A    between atoms: C_9  and  C_15 
REMARK       I    between atoms: N_21  and  C_22 
ROOT
HETATM    1  N           1     -21.572  -6.041  -6.387  0.00  0.00    -0.345 N 
HETATM    2  O           1     -19.798  -4.739  -6.771  0.00  0.00    -0.271 OA
HETATM    3  C           1     -20.877  -5.134  -7.143  0.00  0.00     0.249 C 
HETATM    4  H           1     -22.476  -6.370  -6.698  0.00  0.00     0.163 HD
ENDROOT
BRANCH   3   5
HETATM    5  C           1     -21.461  -4.627  -8.438  0.00  0.00     0.275 C 
BRANCH   5   6
HETATM    6  C           1     -20.370  -3.952  -9.259  0.00  0.00     0.052 C 
BRANCH   6   7
HETATM    7  C           1     -20.358  -4.536 -10.666  0.00  0.00     0.105 C 
BRANCH   7   8
HETATM    8  C           1     -21.469  -3.917 -11.477  0.00  0.00     0.215 C 
HETATM    9  O           1     -21.516  -2.718 -11.620  0.00  0.00    -0.274 OA
HETATM   10  N           1     -22.423  -4.713 -12.051  0.00  0.00    -0.370 N 
HETATM   11  H           1     -22.383  -5.717 -11.931  0.00  0.00     0.159 HD
HETATM   12  H           1     -23.168  -4.296 -12.595  0.00  0.00     0.159 HD
ENDBRANCH   7   8
ENDBRANCH   6   7
ENDBRANCH   5   6
BRANCH   5  13
HETATM   13  N           1     -22.548  -3.636  -8.142  0.00  0.00    -0.066 N 
HETATM   14  H           1     -23.038  -3.381  -9.029  0.00  0.00     0.275 HD
HETATM   15  H           1     -22.129  -2.779  -7.714  0.00  0.00     0.275 HD
HETATM   16  H           1     -23.233  -4.058  -7.475  0.00  0.00     0.275 HD
ENDBRANCH   5  13
ENDBRANCH   3   5
BRANCH   1  17
HETATM   17  C           1     -21.011  -6.527  -5.142  0.00  0.00     0.186 C 
BRANCH  17  18
HETATM   18  C           1     -20.550  -7.953  -5.322  0.00  0.00     0.196 C 
HETATM   19  O           1     -19.403  -8.189  -5.759  0.00  0.00    -0.646 OA
HETATM   20  O           1     -21.316  -8.898  -5.033  0.00  0.00    -0.646 OA
ENDBRANCH  17  18
BRANCH  17  21
HETATM   21  C           1     -22.073  -6.470  -4.052  0.00  0.00     0.046 C 
BRANCH  21  22
HETATM   22  C           1     -21.413  -6.152  -2.716  0.00  0.00     0.116 C 
BRANCH  22  23
HETATM   23  C           1     -21.878  -7.142  -1.676  0.00  0.00     0.172 C 
HETATM   24  O           1     -21.449  -8.316  -1.695  0.00  0.00    -0.648 OA
HETATM   25  O           1     -22.693  -6.788  -0.796  0.00  0.00    -0.648 OA
ENDBRANCH  22  23
ENDBRANCH  21  22
ENDBRANCH  17  21
ENDBRANCH   1  17
TORSDOF 10
ENDMDL
MODEL 2
REMARK VINA RESULT:      -6.1      2.504      7.598
REMARK  10 active torsions:
REMARK  status: ('A' for Active; 'I' for Inactive)
REMARK    1  A    between atoms: C_1  and  C_18 
REMARK    2  A    between atoms: C_1  and  C_19 
REMARK    3  A    between atoms: C_1  and  N_23 
REMARK    4  A    between atoms: N_2  and  C_15 
REMARK       I    between atoms: N_2  and  C_18 
REMARK    5  A    between atoms: C_4  and  C_10 
REMARK    6  A    between atoms: C_6  and  C_15 
REMARK    7  A    between atoms: C_8  and  C_19 
REMARK    8  A    between atoms: C_8  and  C_22 
REMARK    9  A    between atoms: C_9  and  C_10 
REMARK   10  A    between atoms: C_9  and  C_15 
REMARK       I    between atoms: N_21  and  C_22 
ROOT
HETATM    1  N           1     -22.261  -5.474  -6.069  0.00  0.00    -0.345 N 
HETATM    2  O           1     -20.976  -7.273  -6.386  0.00  0.00    -0.271 OA
HETATM    3  C           1     -21.708  -6.655  -5.650  0.00  0.00     0.249 C 
HETATM    4  H           1     -22.875  -4.956  -5.453  0.00  0.00     0.163 HD
ENDROOT
BRANCH   3   5
HETATM    5  C           1     -22.015  -7.185  -4.271  0.00  0.00     0.275 C 
BRANCH   5   6
HETATM    6  C           1     -21.314  -6.324  -3.228  0.00  0.00     0.052 C 
BRANCH   6   7
HETATM    7  C           1     -22.215  -6.168  -2.010  0.00  0.00     0.105 C 
BRANCH   7   8
HETATM    8  C           1     -21.924  -7.273  -1.025  0.00  0.00     0.215 C 
HETATM    9  O           1     -20.883  -7.883  -1.090  0.00  0.00    -0.274 OA
HETATM   10  N           1     -22.841  -7.585  -0.057  0.00  0.00    -0.370 N 
HETATM   11  H           1     -23.713  -7.074  -0.002  0.00  0.00     0.159 HD
HETATM   12  H           1     -22.645  -8.326   0.604  0.00  0.00     0.159 HD
ENDBRANCH   7   8
ENDBRANCH   6   7
ENDBRANCH   5   6
BRANCH   5  13
HETATM   13  N           1     -21.528  -8.599  -4.160  0.00  0.00    -0.066 N 
HETATM   14  H           1     -21.794  -8.987  -3.227  0.00  0.00     0.275 HD
HETATM   15  H           1     -20.488  -8.618  -4.264  0.00  0.00     0.275 HD
HETATM   16  H           1     -21.963  -9.178  -4.914  0.00  0.00     0.275 HD
ENDBRANCH   5  13
ENDBRANCH   3   5
BRANCH   1  17
HETATM   17  C           1     -21.967  -4.966  -7.395  0.00  0.00     0.186 C 
BRANCH  17  18
HETATM   18  C           1     -20.901  -3.901  -7.300  0.00  0.00     0.196 C 
HETATM   19  O           1     -21.217  -2.724  -7.020  0.00  0.00    -0.646 OA
HETATM   20  O           1     -19.703  -4.197  -7.500  0.00  0.00    -0.646 OA
ENDBRANCH  17  18
BRANCH  17  21
HETATM   21  C           1     -23.230  -4.367  -7.999  0.00  0.00     0.046 C 
BRANCH  21  22
HETATM   22  C           1     -23.054  -4.223  -9.505  0.00  0.00     0.116 C 
BRANCH  22  23
HETATM   23  C           1     -24.289  -3.591 -10.099  0.00  0.00     0.172 C 
HETATM   24  O           1     -24.997  -2.829  -9.404  0.00  0.00    -0.648 OA
HETATM   25  O           1     -24.605  -3.828 -11.285  0.00  0.00    -0.648 OA
ENDBRANCH  22  23
ENDBRANCH  21  22
ENDBRANCH  17  21
ENDBRANCH   1  17
TORSDOF 10
ENDMDL
MODEL 3
REMARK VINA RESULT:      -6.0      1.582      1.861
REMARK  10 active torsions:
REMARK  status: ('A' for Active; 'I' for Inactive)
REMARK    1  A    between atoms: C_1  and  C_18 
REMARK    2  A    between atoms: C_1  and  C_19 
REMARK    3  A    between atoms: C_1  and  N_23 
REMARK    4  A    between atoms: N_2  and  C_15 
REMARK       I    between atoms: N_2  and  C_18 
REMARK    5  A    between atoms: C_4  and  C_10 
REMARK    6  A    between atoms: C_6  and  C_15 
REMARK    7  A    between atoms: C_8  and  C_19 
REMARK    8  A    between atoms: C_8  and  C_22 
REMARK    9  A    between atoms: C_9  and  C_10 
REMARK   10  A    between atoms: C_9  and  C_15 
REMARK       I    between atoms: N_21  and  C_22 
ROOT
HETATM    1  N           1     -21.119  -6.094  -6.062  0.00  0.00    -0.345 N 
HETATM    2  O           1     -19.919  -4.352  -5.343  0.00  0.00    -0.271 OA
HETATM    3  C           1     -20.584  -4.844  -6.224  0.00  0.00     0.249 C 
HETATM    4  H           1     -21.676  -6.505  -6.800  0.00  0.00     0.163 HD
ENDROOT
BRANCH   3   5
HETATM    5  C           1     -20.827  -4.079  -7.502  0.00  0.00     0.275 C 
BRANCH   5   6
HETATM    6  C           1     -22.205  -4.427  -8.050  0.00  0.00     0.052 C 
BRANCH   6   7
HETATM    7  C           1     -22.262  -4.087  -9.533  0.00  0.00     0.105 C 
BRANCH   7   8
HETATM    8  C           1     -23.692  -3.823  -9.934  0.00  0.00     0.215 C 
HETATM    9  O           1     -24.059  -4.066 -11.060  0.00  0.00    -0.274 OA
HETATM   10  N           1     -24.574  -3.308  -9.024  0.00  0.00    -0.370 N 
HETATM   11  H           1     -24.267  -3.104  -8.081  0.00  0.00     0.159 HD
HETATM   12  H           1     -25.534  -3.131  -9.293  0.00  0.00     0.159 HD
ENDBRANCH   7   8
ENDBRANCH   6   7
ENDBRANCH   5   6
BRANCH   5  13
HETATM   13  N           1     -19.780  -4.449  -8.511  0.00  0.00    -0.066 N 
HETATM   14  H           1     -19.765  -3.736  -9.275  0.00  0.00     0.275 HD
HETATM   15  H           1     -20.002  -5.388  -8.913  0.00  0.00     0.275 HD
HETATM   16  H           1     -18.845  -4.482  -8.048  0.00  0.00     0.275 HD
ENDBRANCH   5  13
ENDBRANCH   3   5
BRANCH   1  17
HETATM   17  C           1     -20.886  -6.828  -4.833  0.00  0.00     0.186 C 
BRANCH  17  18
HETATM   18  C           1     -20.674  -8.288  -5.153  0.00  0.00     0.196 C 
HETATM   19  O           1     -21.576  -9.119  -4.909  0.00  0.00    -0.646 OA
HETATM   20  O           1     -19.597  -8.666  -5.662  0.00  0.00    -0.646 OA
ENDBRANCH  17  18
BRANCH  17  21
HETATM   21  C           1     -22.094  -6.679  -3.918  0.00  0.00     0.046 C 
BRANCH  21  22
HETATM   22  C           1     -21.639  -6.182  -2.553  0.00  0.00     0.116 C 
BRANCH  22  23
HETATM   23  C           1     -21.942  -7.228  -1.509  0.00  0.00     0.172 C 
HETATM   24  O           1     -21.430  -8.365  -1.597  0.00  0.00    -0.648 OA
HETATM   25  O           1     -22.705  -6.958  -0.555  0.00  0.00    -0.648 OA
ENDBRANCH  22  23
ENDBRANCH  21  22
ENDBRANCH  17  21
ENDBRANCH   1  17
TORSDOF 10
ENDMDL
MODEL 4
REMARK VINA RESULT:      -6.0      2.519      7.085
REMARK  10 active torsions:
REMARK  status: ('A' for Active; 'I' for Inactive)
REMARK    1  A    between atoms: C_1  and  C_18 
REMARK    2  A    between atoms: C_1  and  C_19 
REMARK    3  A    between atoms: C_1  and  N_23 
REMARK    4  A    between atoms: N_2  and  C_15 
REMARK       I    between atoms: N_2  and  C_18 
REMARK    5  A    between atoms: C_4  and  C_10 
REMARK    6  A    between atoms: C_6  and  C_15 
REMARK    7  A    between atoms: C_8  and  C_19 
REMARK    8  A    between atoms: C_8  and  C_22 
REMARK    9  A    between atoms: C_9  and  C_10 
REMARK   10  A    between atoms: C_9  and  C_15 
REMARK       I    between atoms: N_21  and  C_22 
ROOT
HETATM    1  N           1     -21.486  -5.025  -6.616  0.00  0.00    -0.345 N 
HETATM    2  O           1     -21.051  -7.210  -6.783  0.00  0.00    -0.271 OA
HETATM    3  C           1     -21.162  -6.240  -6.072  0.00  0.00     0.249 C 
HETATM    4  H           1     -21.581  -4.213  -6.020  0.00  0.00     0.163 HD
ENDROOT
BRANCH   3   5
HETATM    5  C           1     -20.947  -6.366  -4.584  0.00  0.00     0.275 C 
BRANCH   5   6
HETATM    6  C           1     -20.387  -7.747  -4.266  0.00  0.00     0.052 C 
BRANCH   6   7
HETATM    7  C           1     -21.513  -8.653  -3.786  0.00  0.00     0.105 C 
BRANCH   7   8
HETATM    8  C           1     -21.433  -9.978  -4.502  0.00  0.00     0.215 C 
HETATM    9  O           1     -21.777 -10.991  -3.939  0.00  0.00    -0.274 OA
HETATM   10  N           1     -20.969 -10.034  -5.789  0.00  0.00    -0.370 N 
HETATM   11  H           1     -20.681  -9.186  -6.260  0.00  0.00     0.159 HD
HETATM   12  H           1     -20.916 -10.924  -6.269  0.00  0.00     0.159 HD
ENDBRANCH   7   8
ENDBRANCH   6   7
ENDBRANCH   5   6
BRANCH   5  13
HETATM   13  N           1     -22.254  -6.182  -3.872  0.00  0.00    -0.066 N 
HETATM   14  H           1     -22.164  -5.415  -3.169  0.00  0.00     0.275 HD
HETATM   15  H           1     -22.515  -7.072  -3.389  0.00  0.00     0.275 HD
HETATM   16  H           1     -22.996  -5.933  -4.565  0.00  0.00     0.275 HD
ENDBRANCH   5  13
ENDBRANCH   3   5
BRANCH   1  17
HETATM   17  C           1     -21.694  -4.905  -8.046  0.00  0.00     0.186 C 
BRANCH  17  18
HETATM   18  C           1     -20.423  -4.418  -8.699  0.00  0.00     0.196 C 
HETATM   19  O           1     -19.598  -3.750  -8.039  0.00  0.00    -0.646 OA
HETATM   20  O           1     -20.197  -4.683  -9.900  0.00  0.00    -0.646 OA
ENDBRANCH  17  18
BRANCH  17  21
HETATM   21  C           1     -22.816  -3.909  -8.312  0.00  0.00     0.046 C 
BRANCH  21  22
HETATM   22  C           1     -23.791  -4.500  -9.322  0.00  0.00     0.116 C 
BRANCH  22  23
HETATM   23  C           1     -23.959  -3.545 -10.478  0.00  0.00     0.172 C 
HETATM   24  O           1     -22.954  -3.119 -11.088  0.00  0.00    -0.648 OA
HETATM   25  O           1     -25.102  -3.180 -10.827  0.00  0.00    -0.648 OA
ENDBRANCH  22  23
ENDBRANCH  21  22
ENDBRANCH  17  21
ENDBRANCH   1  17
TORSDOF 10
ENDMDL
MODEL 5
REMARK VINA RESULT:      -5.9      2.085      3.356
REMARK  10 active torsions:
REMARK  status: ('A' for Active; 'I' for Inactive)
REMARK    1  A    between atoms: C_1  and  C_18 
REMARK    2  A    between atoms: C_1  and  C_19 
REMARK    3  A    between atoms: C_1  and  N_23 
REMARK    4  A    between atoms: N_2  and  C_15 
REMARK       I    between atoms: N_2  and  C_18 
REMARK    5  A    between atoms: C_4  and  C_10 
REMARK    6  A    between atoms: C_6  and  C_15 
REMARK    7  A    between atoms: C_8  and  C_19 
REMARK    8  A    between atoms: C_8  and  C_22 
REMARK    9  A    between atoms: C_9  and  C_10 
REMARK   10  A    between atoms: C_9  and  C_15 
REMARK       I    between atoms: N_21  and  C_22 
ROOT
HETATM    1  N           1     -20.828  -6.394  -4.999  0.00  0.00    -0.345 N 
HETATM    2  O           1     -22.639  -5.465  -5.919  0.00  0.00    -0.271 OA
HETATM    3  C           1     -21.434  -5.504  -5.846  0.00  0.00     0.249 C 
HETATM    4  H           1     -19.818  -6.427  -4.939  0.00  0.00     0.163 HD
ENDROOT
BRANCH   3   5
HETATM    5  C           1     -20.596  -4.575  -6.689  0.00  0.00     0.275 C 
BRANCH   5   6
HETATM    6  C           1     -21.500  -3.565  -7.385  0.00  0.00     0.052 C 
BRANCH   6   7
HETATM    7  C           1     -21.648  -3.944  -8.853  0.00  0.00     0.105 C 
BRANCH   7   8
HETATM    8  C           1     -23.080  -3.741  -9.283  0.00  0.00     0.215 C 
HETATM    9  O           1     -23.330  -3.417 -10.420  0.00  0.00    -0.274 OA
HETATM   10  N           1     -24.097  -3.924  -8.384  0.00  0.00    -0.370 N 
HETATM   11  H           1     -23.888  -4.195  -7.432  0.00  0.00     0.159 HD
HETATM   12  H           1     -25.057  -3.788  -8.673  0.00  0.00     0.159 HD
ENDBRANCH   7   8
ENDBRANCH   6   7
ENDBRANCH   5   6
BRANCH   5  13
HETATM   13  N           1     -19.850  -5.370  -7.719  0.00  0.00    -0.066 N 
HETATM   14  H           1     -20.466  -6.130  -8.086  0.00  0.00     0.275 HD
HETATM   15  H           1     -18.997  -5.790  -7.284  0.00  0.00     0.275 HD
HETATM   16  H           1     -19.566  -4.743  -8.505  0.00  0.00     0.275 HD
ENDBRANCH   5  13
ENDBRANCH   3   5
BRANCH   1  17
HETATM   17  C           1     -21.633  -7.288  -4.191  0.00  0.00     0.186 C 
BRANCH  17  18
HETATM   18  C           1     -21.645  -6.800  -2.762  0.00  0.00     0.196 C 
HETATM   19  O           1     -22.439  -5.898  -2.417  0.00  0.00    -0.646 OA
HETATM   20  O           1     -20.860  -7.297  -1.926  0.00  0.00    -0.646 OA
ENDBRANCH  17  18
BRANCH  17  21
HETATM   21  C           1     -21.041  -8.690  -4.243  0.00  0.00     0.046 C 
BRANCH  21  22
HETATM   22  C           1     -19.710  -8.652  -4.982  0.00  0.00     0.116 C 
BRANCH  22  23
HETATM   23  C           1     -18.694  -9.479  -4.233  0.00  0.00     0.172 C 
HETATM   24  O           1     -18.182 -10.481  -4.776  0.00  0.00    -0.648 OA
HETATM   25  O           1     -18.365  -9.162  -3.069  0.00  0.00    -0.648 OA
ENDBRANCH  22  23
ENDBRANCH  21  22
ENDBRANCH  17  21
ENDBRANCH   1  17
TORSDOF 10
ENDMDL
MODEL 6
REMARK VINA RESULT:      -5.7      2.205      3.320
REMARK  10 active torsions:
REMARK  status: ('A' for Active; 'I' for Inactive)
REMARK    1  A    between atoms: C_1  and  C_18 
REMARK    2  A    between atoms: C_1  and  C_19 
REMARK    3  A    between atoms: C_1  and  N_23 
REMARK    4  A    between atoms: N_2  and  C_15 
REMARK       I    between atoms: N_2  and  C_18 
REMARK    5  A    between atoms: C_4  and  C_10 
REMARK    6  A    between atoms: C_6  and  C_15 
REMARK    7  A    between atoms: C_8  and  C_19 
REMARK    8  A    between atoms: C_8  and  C_22 
REMARK    9  A    between atoms: C_9  and  C_10 
REMARK   10  A    between atoms: C_9  and  C_15 
REMARK       I    between atoms: N_21  and  C_22 
ROOT
HETATM    1  N           1     -21.633  -8.079  -4.128  0.00  0.00    -0.345 N 
HETATM    2  O           1     -19.891  -8.078  -5.526  0.00  0.00    -0.271 OA
HETATM    3  C           1     -20.915  -7.547  -5.166  0.00  0.00     0.249 C 
HETATM    4  H           1     -22.491  -7.634  -3.827  0.00  0.00     0.163 HD
ENDROOT
BRANCH   3   5
HETATM    5  C           1     -21.401  -6.298  -5.859  0.00  0.00     0.275 C 
BRANCH   5   6
HETATM    6  C           1     -20.441  -5.151  -5.572  0.00  0.00     0.052 C 
BRANCH   6   7
HETATM    7  C           1     -19.714  -4.766  -6.855  0.00  0.00     0.105 C 
BRANCH   7   8
HETATM    8  C           1     -20.663  -4.035  -7.772  0.00  0.00     0.215 C 
HETATM    9  O           1     -20.610  -4.216  -8.965  0.00  0.00    -0.274 OA
HETATM   10  N           1     -21.585  -3.167  -7.251  0.00  0.00    -0.370 N 
HETATM   11  H           1     -21.629  -3.016  -6.251  0.00  0.00     0.159 HD
HETATM   12  H           1     -22.222  -2.677  -7.867  0.00  0.00     0.159 HD
ENDBRANCH   7   8
ENDBRANCH   6   7
ENDBRANCH   5   6
BRANCH   5  13
HETATM   13  N           1     -22.767  -5.945  -5.350  0.00  0.00    -0.066 N 
HETATM   14  H           1     -23.377  -6.793  -5.371  0.00  0.00     0.275 HD
HETATM   15  H           1     -23.182  -5.200  -5.955  0.00  0.00     0.275 HD
HETATM   16  H           1     -22.694  -5.593  -4.369  0.00  0.00     0.275 HD
ENDBRANCH   5  13
ENDBRANCH   3   5
BRANCH   1  17
HETATM   17  C           1     -21.165  -9.279  -3.463  0.00  0.00     0.186 C 
BRANCH  17  18
HETATM   18  C           1     -21.947 -10.469  -3.964  0.00  0.00     0.196 C 
HETATM   19  O           1     -22.910 -10.909  -3.299  0.00  0.00    -0.646 OA
HETATM   20  O           1     -21.631 -11.015  -5.043  0.00  0.00    -0.646 OA
ENDBRANCH  17  18
BRANCH  17  21
HETATM   21  C           1     -21.366  -9.135  -1.960  0.00  0.00     0.046 C 
BRANCH  21  22
HETATM   22  C           1     -20.990  -7.724  -1.530  0.00  0.00     0.116 C 
BRANCH  22  23
HETATM   23  C           1     -22.243  -6.911  -1.315  0.00  0.00     0.172 C 
HETATM   24  O           1     -22.534  -5.990  -2.107  0.00  0.00    -0.648 OA
HETATM   25  O           1     -22.991  -7.160  -0.344  0.00  0.00    -0.648 OA
ENDBRANCH  22  23
ENDBRANCH  21  22
ENDBRANCH  17  21
ENDBRANCH   1  17
TORSDOF 10
ENDMDL
MODEL 7
REMARK VINA RESULT:      -5.4      2.439      3.365
REMARK  10 active torsions:
REMARK  status: ('A' for Active; 'I' for Inactive)
REMARK    1  A    between atoms: C_1  and  C_18 
REMARK    2  A    between atoms: C_1  and  C_19 
REMARK    3  A    between atoms: C_1  and  N_23 
REMARK    4  A    between atoms: N_2  and  C_15 
REMARK       I    between atoms: N_2  and  C_18 
REMARK    5  A    between atoms: C_4  and  C_10 
REMARK    6  A    between atoms: C_6  and  C_15 
REMARK    7  A    between atoms: C_8  and  C_19 
REMARK    8  A    between atoms: C_8  and  C_22 
REMARK    9  A    between atoms: C_9  and  C_10 
REMARK   10  A    between atoms: C_9  and  C_15 
REMARK       I    between atoms: N_21  and  C_22 
ROOT
HETATM    1  N           1     -21.141  -6.800  -4.657  0.00  0.00    -0.345 N 
HETATM    2  O           1     -23.141  -6.020  -5.273  0.00  0.00    -0.271 OA
HETATM    3  C           1     -21.946  -6.023  -5.447  0.00  0.00     0.249 C 
HETATM    4  H           1     -20.140  -6.803  -4.803  0.00  0.00     0.163 HD
ENDROOT
BRANCH   3   5
HETATM    5  C           1     -21.339  -5.172  -6.535  0.00  0.00     0.275 C 
BRANCH   5   6
HETATM    6  C           1     -22.438  -4.384  -7.236  0.00  0.00     0.052 C 
BRANCH   6   7
HETATM    7  C           1     -22.227  -4.451  -8.744  0.00  0.00     0.105 C 
BRANCH   7   8
HETATM    8  C           1     -23.556  -4.308  -9.444  0.00  0.00     0.215 C 
HETATM    9  O           1     -23.837  -5.041 -10.363  0.00  0.00    -0.274 OA
HETATM   10  N           1     -24.443  -3.347  -9.040  0.00  0.00    -0.370 N 
HETATM   11  H           1     -24.208  -2.732  -8.270  0.00  0.00     0.159 HD
HETATM   12  H           1     -25.335  -3.251  -9.510  0.00  0.00     0.159 HD
ENDBRANCH   7   8
ENDBRANCH   6   7
ENDBRANCH   5   6
BRANCH   5  13
HETATM   13  N           1     -20.645  -6.054  -7.531  0.00  0.00    -0.066 N 
HETATM   14  H           1     -19.630  -6.119  -7.291  0.00  0.00     0.275 HD
HETATM   15  H           1     -20.754  -5.650  -8.489  0.00  0.00     0.275 HD
HETATM   16  H           1     -21.069  -7.009  -7.506  0.00  0.00     0.275 HD
ENDBRANCH   5  13
ENDBRANCH   3   5
BRANCH   1  17
HETATM   17  C           1     -21.724  -7.619  -3.612  0.00  0.00     0.186 C 
BRANCH  17  18
HETATM   18  C           1     -21.571  -6.920  -2.283  0.00  0.00     0.196 C 
HETATM   19  O           1     -20.842  -7.415  -1.396  0.00  0.00    -0.646 OA
HETATM   20  O           1     -22.175  -5.846  -2.069  0.00  0.00    -0.646 OA
ENDBRANCH  17  18
BRANCH  17  21
HETATM   21  C           1     -21.010  -8.963  -3.563  0.00  0.00     0.046 C 
BRANCH  21  22
HETATM   22  C           1     -21.981 -10.068  -3.957  0.00  0.00     0.116 C 
BRANCH  22  23
HETATM   23  C           1     -22.342 -10.880  -2.738  0.00  0.00     0.172 C 
HETATM   24  O           1     -22.451 -12.122  -2.824  0.00  0.00    -0.648 OA
HETATM   25  O           1     -22.533 -10.310  -1.641  0.00  0.00    -0.648 OA
ENDBRANCH  22  23
ENDBRANCH  21  22
ENDBRANCH  17  21
ENDBRANCH   1  17
TORSDOF 10
ENDMDL
MODEL 8
REMARK VINA RESULT:      -5.3      2.151      2.700
REMARK  10 active torsions:
REMARK  status: ('A' for Active; 'I' for Inactive)
REMARK    1  A    between atoms: C_1  and  C_18 
REMARK    2  A    between atoms: C_1  and  C_19 
REMARK    3  A    between atoms: C_1  and  N_23 
REMARK    4  A    between atoms: N_2  and  C_15 
REMARK       I    between atoms: N_2  and  C_18 
REMARK    5  A    between atoms: C_4  and  C_10 
REMARK    6  A    between atoms: C_6  and  C_15 
REMARK    7  A    between atoms: C_8  and  C_19 
REMARK    8  A    between atoms: C_8  and  C_22 
REMARK    9  A    between atoms: C_9  and  C_10 
REMARK   10  A    between atoms: C_9  and  C_15 
REMARK       I    between atoms: N_21  and  C_22 
ROOT
HETATM    1  N           1     -20.720  -7.568  -4.578  0.00  0.00    -0.345 N 
HETATM    2  O           1     -19.598  -7.327  -6.495  0.00  0.00    -0.271 OA
HETATM    3  C           1     -20.385  -6.864  -5.705  0.00  0.00     0.249 C 
HETATM    4  H           1     -21.379  -7.179  -3.917  0.00  0.00     0.163 HD
ENDROOT
BRANCH   3   5
HETATM    5  C           1     -20.999  -5.509  -5.958  0.00  0.00     0.275 C 
BRANCH   5   6
HETATM    6  C           1     -21.099  -5.268  -7.459  0.00  0.00     0.052 C 
BRANCH   6   7
HETATM    7  C           1     -21.541  -3.832  -7.714  0.00  0.00     0.105 C 
BRANCH   7   8
HETATM    8  C           1     -22.692  -3.825  -8.689  0.00  0.00     0.215 C 
HETATM    9  O           1     -22.483  -3.674  -9.869  0.00  0.00    -0.274 OA
HETATM   10  N           1     -23.973  -3.990  -8.236  0.00  0.00    -0.370 N 
HETATM   11  H           1     -24.148  -4.116  -7.247  0.00  0.00     0.159 HD
HETATM   12  H           1     -24.745  -3.985  -8.890  0.00  0.00     0.159 HD
ENDBRANCH   7   8
ENDBRANCH   6   7
ENDBRANCH   5   6
BRANCH   5  13
HETATM   13  N           1     -20.140  -4.447  -5.338  0.00  0.00    -0.066 N 
HETATM   14  H           1     -19.268  -4.882  -4.960  0.00  0.00     0.275 HD
HETATM   15  H           1     -20.665  -3.984  -4.561  0.00  0.00     0.275 HD
HETATM   16  H           1     -19.890  -3.735  -6.060  0.00  0.00     0.275 HD
ENDBRANCH   5  13
ENDBRANCH   3   5
BRANCH   1  17
HETATM   17  C           1     -20.129  -8.869  -4.335  0.00  0.00     0.186 C 
BRANCH  17  18
HETATM   18  C           1     -21.050  -9.945  -4.858  0.00  0.00     0.196 C 
HETATM   19  O           1     -20.874 -10.416  -6.003  0.00  0.00    -0.646 OA
HETATM   20  O           1     -21.988 -10.364  -4.146  0.00  0.00    -0.646 OA
ENDBRANCH  17  18
BRANCH  17  21
HETATM   21  C           1     -19.923  -9.060  -2.838  0.00  0.00     0.046 C 
BRANCH  21  22
HETATM   22  C           1     -20.577  -7.909  -2.085  0.00  0.00     0.116 C 
BRANCH  22  23
HETATM   23  C           1     -21.394  -8.455  -0.940  0.00  0.00     0.172 C 
HETATM   24  O           1     -21.021  -8.267   0.238  0.00  0.00    -0.648 OA
HETATM   25  O           1     -22.443  -9.095  -1.169  0.00  0.00    -0.648 OA
ENDBRANCH  22  23
ENDBRANCH  21  22
ENDBRANCH  17  21
ENDBRANCH   1  17
TORSDOF 10
ENDMDL
MODEL 9
REMARK VINA RESULT:      -5.1      4.699      7.027
REMARK  10 active torsions:
REMARK  status: ('A' for Active; 'I' for Inactive)
REMARK    1  A    between atoms: C_1  and  C_18 
REMARK    2  A    between atoms: C_1  and  C_19 
REMARK    3  A    between atoms: C_1  and  N_23 
REMARK    4  A    between atoms: N_2  and  C_15 
REMARK       I    between atoms: N_2  and  C_18 
REMARK    5  A    between atoms: C_4  and  C_10 
REMARK    6  A    between atoms: C_6  and  C_15 
REMARK    7  A    between atoms: C_8  and  C_19 
REMARK    8  A    between atoms: C_8  and  C_22 
REMARK    9  A    between atoms: C_9  and  C_10 
REMARK   10  A    between atoms: C_9  and  C_15 
REMARK       I    between atoms: N_21  and  C_22 
ROOT
HETATM    1  N           1     -21.919  -9.141  -1.605  0.00  0.00    -0.345 N 
HETATM    2  O           1     -19.765  -9.729  -1.661  0.00  0.00    -0.271 OA
HETATM    3  C           1     -20.905  -9.989  -1.963  0.00  0.00     0.249 C 
HETATM    4  H           1     -22.874  -9.359  -1.859  0.00  0.00     0.163 HD
ENDROOT
BRANCH   3   5
HETATM    5  C           1     -21.212 -11.248  -2.737  0.00  0.00     0.275 C 
BRANCH   5   6
HETATM    6  C           1     -22.262 -10.948  -3.799  0.00  0.00     0.052 C 
BRANCH   6   7
HETATM    7  C           1     -21.975 -11.778  -5.045  0.00  0.00     0.105 C 
BRANCH   7   8
HETATM    8  C           1     -21.060 -11.005  -5.963  0.00  0.00     0.215 C 
HETATM    9  O           1     -20.360 -11.594  -6.753  0.00  0.00    -0.274 OA
HETATM   10  N           1     -21.025  -9.638  -5.902  0.00  0.00    -0.370 N 
HETATM   11  H           1     -21.612  -9.146  -5.241  0.00  0.00     0.159 HD
HETATM   12  H           1     -20.411  -9.121  -6.519  0.00  0.00     0.159 HD
ENDBRANCH   7   8
ENDBRANCH   6   7
ENDBRANCH   5   6
BRANCH   5  13
HETATM   13  N           1     -21.736 -12.295  -1.799  0.00  0.00    -0.066 N 
HETATM   14  H           1     -22.174 -13.068  -2.350  0.00  0.00     0.275 HD
HETATM   15  H           1     -22.449 -11.869  -1.165  0.00  0.00     0.275 HD
HETATM   16  H           1     -20.948 -12.678  -1.229  0.00  0.00     0.275 HD
ENDBRANCH   5  13
ENDBRANCH   3   5
BRANCH   1  17
HETATM   17  C           1     -21.623  -7.931  -0.862  0.00  0.00     0.186 C 
BRANCH  17  18
HETATM   18  C           1     -22.035  -8.114   0.579  0.00  0.00     0.196 C 
HETATM   19  O           1     -21.183  -8.434   1.436  0.00  0.00    -0.646 OA
HETATM   20  O           1     -23.227  -7.945   0.915  0.00  0.00    -0.646 OA
ENDBRANCH  17  18
BRANCH  17  21
HETATM   21  C           1     -22.394  -6.765  -1.466  0.00  0.00     0.046 C 
BRANCH  21  22
HETATM   22  C           1     -21.486  -5.993  -2.415  0.00  0.00     0.116 C 
BRANCH  22  23
HETATM   23  C           1     -21.623  -6.552  -3.810  0.00  0.00     0.172 C 
HETATM   24  O           1     -22.557  -6.169  -4.547  0.00  0.00    -0.648 OA
HETATM   25  O           1     -20.802  -7.397  -4.229  0.00  0.00    -0.648 OA
ENDBRANCH  22  23
ENDBRANCH  21  22
ENDBRANCH  17  21
ENDBRANCH   1  17
TORSDOF 10
ENDMDL
