MODEL 1
REMARK VINA RESULT:      -6.3      0.000      0.000
REMARK  7 active torsions:
REMARK  status: ('A' for Active; 'I' for Inactive)
REMARK       I    between atoms: C_1  and  N_9 
REMARK    1  A    between atoms: C_1  and  C_11 
REMARK    2  A    between atoms: N_4  and  C_20 
REMARK       I    between atoms: N_4  and  C_5 
REMARK    3  A    between atoms: C_5  and  C_6 
REMARK    4  A    between atoms: C_6  and  N_15 
REMARK    5  A    between atoms: C_11  and  C_19 
REMARK    6  A    between atoms: C_19  and  C_20 
REMARK    7  A    between atoms: C_20  and  C_21 
ROOT
HETATM    1  C           1     -26.689  -5.870 -16.937  0.00  0.00     0.186 C 
ENDROOT
BRANCH   1   2
HETATM    2  N           1     -26.702  -6.462 -18.260  0.00  0.00    -0.345 N 
HETATM    3  C           1     -25.523  -6.746 -18.894  0.00  0.00     0.248 C 
HETATM    4  O           1     -24.470  -6.503 -18.352  0.00  0.00    -0.271 OA
HETATM    5  H           1     -27.583  -6.665 -18.714  0.00  0.00     0.163 HD
BRANCH   3   6
HETATM    6  C           1     -25.537  -7.362 -20.272  0.00  0.00     0.270 C 
HETATM    7  C           1     -25.141  -6.313 -21.302  0.00  0.00     0.050 C 
BRANCH   6   8
HETATM    8  N           1     -26.915  -7.869 -20.579  0.00  0.00    -0.067 N 
HETATM    9  H           1     -27.480  -7.101 -21.009  0.00  0.00     0.275 HD
HETATM   10  H           1     -26.850  -8.670 -21.247  0.00  0.00     0.275 HD
HETATM   11  H           1     -27.373  -8.187 -19.696  0.00  0.00     0.275 HD
ENDBRANCH   6   8
ENDBRANCH   3   6
ENDBRANCH   1   2
BRANCH   1  12
HETATM   12  C           1     -27.857  -4.903 -16.801  0.00  0.00     0.045 C 
BRANCH  12  13
HETATM   13  C           1     -28.723  -4.973 -18.052  0.00  0.00     0.105 C 
BRANCH  13  14
HETATM   14  C           1     -30.120  -4.504 -17.725  0.00  0.00     0.215 C 
HETATM   15  O           1     -30.911  -5.268 -17.227  0.00  0.00    -0.274 OA
HETATM   16  N           1     -30.489  -3.215 -17.994  0.00  0.00    -0.370 N 
HETATM   17  H           1     -29.826  -2.575 -18.412  0.00  0.00     0.159 HD
HETATM   18  H           1     -31.427  -2.900 -17.775  0.00  0.00     0.159 HD
ENDBRANCH  13  14
ENDBRANCH  12  13
ENDBRANCH   1  12
BRANCH   1  19
HETATM   19  C           1     -26.812  -6.958 -15.898  0.00  0.00     0.196 C 
HETATM   20  O           1     -25.786  -7.423 -15.356  0.00  0.00    -0.646 OA
HETATM   21  O           1     -27.939  -7.393 -15.580  0.00  0.00    -0.646 OA
ENDBRANCH   1  19
TORSDOF 7
ENDMDL
MODEL 2
REMARK VINA RESULT:      -5.7      9.072     11.179
REMARK  7 active torsions:
REMARK  status: ('A' for Active; 'I' for Inactive)
REMARK       I    between atoms: C_1  and  N_9 
REMARK    1  A    between atoms: C_1  and  C_11 
REMARK    2  A    between atoms: N_4  and  C_20 
REMARK       I    between atoms: N_4  and  C_5 
REMARK    3  A    between atoms: C_5  and  C_6 
REMARK    4  A    between atoms: C_6  and  N_15 
REMARK    5  A    between atoms: C_11  and  C_19 
REMARK    6  A    between atoms: C_19  and  C_20 
REMARK    7  A    between atoms: C_20  and  C_21 
ROOT
HETATM    1  C           1     -23.275  -3.812  -9.861  0.00  0.00     0.186 C 
ENDROOT
BRANCH   1   2
HETATM    2  N           1     -23.273  -4.466  -8.567  0.00  0.00    -0.345 N 
HETATM    3  C           1     -22.213  -4.299  -7.718  0.00  0.00     0.248 C 
HETATM    4  O           1     -21.278  -3.607  -8.047  0.00  0.00    -0.271 OA
HETATM    5  H           1     -24.056  -5.045  -8.291  0.00  0.00     0.163 HD
BRANCH   3   6
HETATM    6  C           1     -22.210  -4.979  -6.371  0.00  0.00     0.270 C 
HETATM    7  C           1     -21.316  -6.211  -6.425  0.00  0.00     0.050 C 
BRANCH   6   8
HETATM    8  N           1     -23.608  -5.392  -6.017  0.00  0.00    -0.067 N 
HETATM    9  H           1     -24.288  -4.870  -6.616  0.00  0.00     0.275 HD
HETATM   10  H           1     -23.720  -6.419  -6.178  0.00  0.00     0.275 HD
HETATM   11  H           1     -23.790  -5.175  -5.012  0.00  0.00     0.275 HD
ENDBRANCH   6   8
ENDBRANCH   3   6
ENDBRANCH   1   2
BRANCH   1  12
HETATM   12  C           1     -22.901  -4.819 -10.940  0.00  0.00     0.045 C 
BRANCH  12  13
HETATM   13  C           1     -21.919  -4.182 -11.912  0.00  0.00     0.105 C 
BRANCH  13  14
HETATM   14  C           1     -20.638  -3.846 -11.188  0.00  0.00     0.215 C 
HETATM   15  O           1     -20.224  -2.711 -11.188  0.00  0.00    -0.274 OA
HETATM   16  N           1     -19.946  -4.826 -10.531  0.00  0.00    -0.370 N 
HETATM   17  H           1     -20.292  -5.777 -10.531  0.00  0.00     0.159 HD
HETATM   18  H           1     -19.086  -4.601 -10.045  0.00  0.00     0.159 HD
ENDBRANCH  13  14
ENDBRANCH  12  13
ENDBRANCH   1  12
BRANCH   1  19
HETATM   19  C           1     -24.652  -3.260 -10.143  0.00  0.00     0.196 C 
HETATM   20  O           1     -25.284  -2.668  -9.242  0.00  0.00    -0.646 OA
HETATM   21  O           1     -25.158  -3.395 -11.277  0.00  0.00    -0.646 OA
ENDBRANCH   1  19
TORSDOF 7
ENDMDL
MODEL 3
REMARK VINA RESULT:      -5.6     10.370     12.294
REMARK  7 active torsions:
REMARK  status: ('A' for Active; 'I' for Inactive)
REMARK       I    between atoms: C_1  and  N_9 
REMARK    1  A    between atoms: C_1  and  C_11 
REMARK    2  A    between atoms: N_4  and  C_20 
REMARK       I    between atoms: N_4  and  C_5 
REMARK    3  A    between atoms: C_5  and  C_6 
REMARK    4  A    between atoms: C_6  and  N_15 
REMARK    5  A    between atoms: C_11  and  C_19 
REMARK    6  A    between atoms: C_19  and  C_20 
REMARK    7  A    between atoms: C_20  and  C_21 
ROOT
HETATM    1  C           1     -21.563  -4.829  -8.121  0.00  0.00     0.186 C 
ENDROOT
BRANCH   1   2
HETATM    2  N           1     -21.370  -4.961  -6.690  0.00  0.00    -0.345 N 
HETATM    3  C           1     -21.213  -6.201  -6.132  0.00  0.00     0.248 C 
HETATM    4  O           1     -21.236  -7.186  -6.832  0.00  0.00    -0.271 OA
HETATM    5  H           1     -21.351  -4.137  -6.104  0.00  0.00     0.163 HD
BRANCH   3   6
HETATM    6  C           1     -21.012  -6.338  -4.643  0.00  0.00     0.270 C 
HETATM    7  C           1     -20.470  -7.727  -4.329  0.00  0.00     0.050 C 
BRANCH   6   8
HETATM    8  N           1     -22.323  -6.143  -3.941  0.00  0.00    -0.067 N 
HETATM    9  H           1     -22.168  -6.151  -2.907  0.00  0.00     0.275 HD
HETATM   10  H           1     -22.737  -5.227  -4.225  0.00  0.00     0.275 HD
HETATM   11  H           1     -22.975  -6.916  -4.202  0.00  0.00     0.275 HD
ENDBRANCH   6   8
ENDBRANCH   3   6
ENDBRANCH   1   2
BRANCH   1  12
HETATM   12  C           1     -22.530  -3.686  -8.399  0.00  0.00     0.045 C 
BRANCH  12  13
HETATM   13  C           1     -23.848  -4.248  -8.913  0.00  0.00     0.105 C 
BRANCH  13  14
HETATM   14  C           1     -23.968  -3.981 -10.393  0.00  0.00     0.215 C 
HETATM   15  O           1     -24.843  -3.257 -10.807  0.00  0.00    -0.274 OA
HETATM   16  N           1     -23.086  -4.557 -11.267  0.00  0.00    -0.370 N 
HETATM   17  H           1     -22.354  -5.162 -10.920  0.00  0.00     0.159 HD
HETATM   18  H           1     -23.167  -4.377 -12.260  0.00  0.00     0.159 HD
ENDBRANCH  13  14
ENDBRANCH  12  13
ENDBRANCH   1  12
BRANCH   1  19
HETATM   19  C           1     -20.238  -4.541  -8.783  0.00  0.00     0.196 C 
HETATM   20  O           1     -20.118  -4.665 -10.021  0.00  0.00    -0.646 OA
HETATM   21  O           1     -19.261  -4.179  -8.094  0.00  0.00    -0.646 OA
ENDBRANCH   1  19
TORSDOF 7
ENDMDL
MODEL 4
REMARK VINA RESULT:      -5.3      9.209     11.204
REMARK  7 active torsions:
REMARK  status: ('A' for Active; 'I' for Inactive)
REMARK       I    between atoms: C_1  and  N_9 
REMARK    1  A    between atoms: C_1  and  C_11 
REMARK    2  A    between atoms: N_4  and  C_20 
REMARK       I    between atoms: N_4  and  C_5 
REMARK    3  A    between atoms: C_5  and  C_6 
REMARK    4  A    between atoms: C_6  and  N_15 
REMARK    5  A    between atoms: C_11  and  C_19 
REMARK    6  A    between atoms: C_19  and  C_20 
REMARK    7  A    between atoms: C_20  and  C_21 
ROOT
HETATM    1  C           1     -22.929  -3.595  -8.821  0.00  0.00     0.186 C 
ENDROOT
BRANCH   1   2
HETATM    2  N           1     -22.496  -4.838  -8.215  0.00  0.00    -0.345 N 
HETATM    3  C           1     -21.639  -4.817  -7.148  0.00  0.00     0.248 C 
HETATM    4  O           1     -21.243  -3.762  -6.712  0.00  0.00    -0.271 OA
HETATM    5  H           1     -22.828  -5.722  -8.580  0.00  0.00     0.163 HD
BRANCH   3   6
HETATM    6  C           1     -21.188  -6.111  -6.517  0.00  0.00     0.270 C 
HETATM    7  C           1     -21.109  -5.939  -5.005  0.00  0.00     0.050 C 
BRANCH   6   8
HETATM    8  N           1     -19.836  -6.482  -7.049  0.00  0.00    -0.067 N 
HETATM    9  H           1     -19.947  -6.995  -7.954  0.00  0.00     0.275 HD
HETATM   10  H           1     -19.273  -5.616  -7.206  0.00  0.00     0.275 HD
HETATM   11  H           1     -19.347  -7.095  -6.359  0.00  0.00     0.275 HD
ENDBRANCH   6   8
ENDBRANCH   3   6
ENDBRANCH   1   2
BRANCH   1  12
HETATM   12  C           1     -21.975  -3.219  -9.947  0.00  0.00     0.045 C 
BRANCH  12  13
HETATM   13  C           1     -21.597  -4.468 -10.732  0.00  0.00     0.105 C 
BRANCH  13  14
HETATM   14  C           1     -22.252  -4.426 -12.091  0.00  0.00     0.215 C 
HETATM   15  O           1     -21.824  -3.685 -12.944  0.00  0.00    -0.274 OA
HETATM   16  N           1     -23.329  -5.227 -12.357  0.00  0.00    -0.370 N 
HETATM   17  H           1     -23.686  -5.847 -11.642  0.00  0.00     0.159 HD
HETATM   18  H           1     -23.768  -5.198 -13.269  0.00  0.00     0.159 HD
ENDBRANCH  13  14
ENDBRANCH  12  13
ENDBRANCH   1  12
BRANCH   1  19
HETATM   19  C           1     -24.322  -3.765  -9.378  0.00  0.00     0.196 C 
HETATM   20  O           1     -25.057  -2.766  -9.540  0.00  0.00    -0.646 OA
HETATM   21  O           1     -24.740  -4.904  -9.677  0.00  0.00    -0.646 OA
ENDBRANCH   1  19
TORSDOF 7
ENDMDL
MODEL 5
REMARK VINA RESULT:      -5.3     12.803     14.730
REMARK  7 active torsions:
REMARK  status: ('A' for Active; 'I' for Inactive)
REMARK       I    between atoms: C_1  and  N_9 
REMARK    1  A    between atoms: C_1  and  C_11 
REMARK    2  A    between atoms: N_4  and  C_20 
REMARK       I    between atoms: N_4  and  C_5 
REMARK    3  A    between atoms: C_5  and  C_6 
REMARK    4  A    between atoms: C_6  and  N_15 
REMARK    5  A    between atoms: C_11  and  C_19 
REMARK    6  A    between atoms: C_19  and  C_20 
REMARK    7  A    between atoms: C_20  and  C_21 
ROOT
HETATM    1  C           1     -20.823  -6.787  -5.044  0.00  0.00     0.186 C 
ENDROOT
BRANCH   1   2
HETATM    2  N           1     -21.257  -6.375  -6.365  0.00  0.00    -0.345 N 
HETATM    3  C           1     -21.042  -5.091  -6.786  0.00  0.00     0.248 C 
HETATM    4  O           1     -20.491  -4.300  -6.058  0.00  0.00    -0.271 OA
HETATM    5  H           1     -21.718  -7.037  -6.975  0.00  0.00     0.163 HD
BRANCH   3   6
HETATM    6  C           1     -21.494  -4.662  -8.161  0.00  0.00     0.270 C 
HETATM    7  C           1     -20.290  -4.200  -8.971  0.00  0.00     0.050 C 
BRANCH   6   8
HETATM    8  N           1     -22.474  -3.534  -8.035  0.00  0.00    -0.067 N 
HETATM    9  H           1     -22.903  -3.340  -8.969  0.00  0.00     0.275 HD
HETATM   10  H           1     -23.223  -3.797  -7.356  0.00  0.00     0.275 HD
HETATM   11  H           1     -21.980  -2.680  -7.695  0.00  0.00     0.275 HD
ENDBRANCH   6   8
ENDBRANCH   3   6
ENDBRANCH   1   2
BRANCH   1  12
HETATM   12  C           1     -21.996  -6.710  -4.077  0.00  0.00     0.045 C 
BRANCH  12  13
HETATM   13  C           1     -21.527  -6.122  -2.753  0.00  0.00     0.105 C 
BRANCH  13  14
HETATM   14  C           1     -21.863  -7.073  -1.631  0.00  0.00     0.215 C 
HETATM   15  O           1     -22.716  -6.780  -0.827  0.00  0.00    -0.274 OA
HETATM   16  N           1     -21.203  -8.266  -1.524  0.00  0.00    -0.370 N 
HETATM   17  H           1     -20.489  -8.512  -2.198  0.00  0.00     0.159 HD
HETATM   18  H           1     -21.429  -8.904  -0.771  0.00  0.00     0.159 HD
ENDBRANCH  13  14
ENDBRANCH  12  13
ENDBRANCH   1  12
BRANCH   1  19
HETATM   19  C           1     -20.310  -8.206  -5.103  0.00  0.00     0.196 C 
HETATM   20  O           1     -20.908  -9.112  -4.484  0.00  0.00    -0.646 OA
HETATM   21  O           1     -19.288  -8.473  -5.770  0.00  0.00    -0.646 OA
ENDBRANCH   1  19
TORSDOF 7
ENDMDL
MODEL 6
REMARK VINA RESULT:      -5.2     15.389     17.546
REMARK  7 active torsions:
REMARK  status: ('A' for Active; 'I' for Inactive)
REMARK       I    between atoms: C_1  and  N_9 
REMARK    1  A    between atoms: C_1  and  C_11 
REMARK    2  A    between atoms: N_4  and  C_20 
REMARK       I    between atoms: N_4  and  C_5 
REMARK    3  A    between atoms: C_5  and  C_6 
REMARK    4  A    between atoms: C_6  and  N_15 
REMARK    5  A    between atoms: C_11  and  C_19 
REMARK    6  A    between atoms: C_19  and  C_20 
REMARK    7  A    between atoms: C_20  and  C_21 
ROOT
HETATM    1  C           1     -21.235  -7.961  -1.563  0.00  0.00     0.186 C 
ENDROOT
BRANCH   1   2
HETATM    2  N           1     -21.920  -9.237  -1.507  0.00  0.00    -0.345 N 
HETATM    3  C           1     -21.725 -10.073  -0.441  0.00  0.00     0.248 C 
HETATM    4  O           1     -20.982  -9.747   0.455  0.00  0.00    -0.271 OA
HETATM    5  H           1     -22.543  -9.510  -2.256  0.00  0.00     0.163 HD
BRANCH   3   6
HETATM    6  C           1     -22.438 -11.401  -0.383  0.00  0.00     0.270 C 
HETATM    7  C           1     -23.934 -11.169  -0.213  0.00  0.00     0.050 C 
BRANCH   6   8
HETATM    8  N           1     -21.920 -12.196   0.779  0.00  0.00    -0.067 N 
HETATM    9  H           1     -22.537 -13.026   0.935  0.00  0.00     0.275 HD
HETATM   10  H           1     -20.947 -12.518   0.576  0.00  0.00     0.275 HD
HETATM   11  H           1     -21.917 -11.598   1.635  0.00  0.00     0.275 HD
ENDBRANCH   6   8
ENDBRANCH   3   6
ENDBRANCH   1   2
BRANCH   1  12
HETATM   12  C           1     -20.622  -7.773  -2.944  0.00  0.00     0.045 C 
BRANCH  12  13
HETATM   13  C           1     -21.517  -8.423  -3.990  0.00  0.00     0.105 C 
BRANCH  13  14
HETATM   14  C           1     -21.745  -7.459  -5.128  0.00  0.00     0.215 C 
HETATM   15  O           1     -21.243  -7.669  -6.207  0.00  0.00    -0.274 OA
HETATM   16  N           1     -22.519  -6.347  -4.939  0.00  0.00    -0.370 N 
HETATM   17  H           1     -22.939  -6.171  -4.035  0.00  0.00     0.159 HD
HETATM   18  H           1     -22.672  -5.700  -5.702  0.00  0.00     0.159 HD
ENDBRANCH  13  14
ENDBRANCH  12  13
ENDBRANCH   1  12
BRANCH   1  19
HETATM   19  C           1     -22.221  -6.849  -1.294  0.00  0.00     0.196 C 
HETATM   20  O           1     -23.063  -6.968  -0.378  0.00  0.00    -0.646 OA
HETATM   21  O           1     -22.194  -5.810  -1.988  0.00  0.00    -0.646 OA
ENDBRANCH   1  19
TORSDOF 7
ENDMDL
MODEL 7
REMARK VINA RESULT:      -5.1      2.132      2.181
REMARK  7 active torsions:
REMARK  status: ('A' for Active; 'I' for Inactive)
REMARK       I    between atoms: C_1  and  N_9 
REMARK    1  A    between atoms: C_1  and  C_11 
REMARK    2  A    between atoms: N_4  and  C_20 
REMARK       I    between atoms: N_4  and  C_5 
REMARK    3  A    between atoms: C_5  and  C_6 
REMARK    4  A    between atoms: C_6  and  N_15 
REMARK    5  A    between atoms: C_11  and  C_19 
REMARK    6  A    between atoms: C_19  and  C_20 
REMARK    7  A    between atoms: C_20  and  C_21 
ROOT
HETATM    1  C           1     -27.472  -5.910 -17.718  0.00  0.00     0.186 C 
ENDROOT
BRANCH   1   2
HETATM    2  N           1     -26.457  -6.658 -18.433  0.00  0.00    -0.345 N 
HETATM    3  C           1     -26.392  -6.591 -19.798  0.00  0.00     0.248 C 
HETATM    4  O           1     -27.182  -5.909 -20.408  0.00  0.00    -0.271 OA
HETATM    5  H           1     -25.796  -7.229 -17.922  0.00  0.00     0.163 HD
BRANCH   3   6
HETATM    6  C           1     -25.336  -7.370 -20.542  0.00  0.00     0.270 C 
HETATM    7  C           1     -24.683  -6.473 -21.586  0.00  0.00     0.050 C 
BRANCH   6   8
HETATM    8  N           1     -25.969  -8.548 -21.222  0.00  0.00    -0.067 N 
HETATM    9  H           1     -26.463  -8.227 -22.086  0.00  0.00     0.275 HD
HETATM   10  H           1     -25.230  -9.240 -21.480  0.00  0.00     0.275 HD
HETATM   11  H           1     -26.654  -8.996 -20.574  0.00  0.00     0.275 HD
ENDBRANCH   6   8
ENDBRANCH   3   6
ENDBRANCH   1   2
BRANCH   1  12
HETATM   12  C           1     -28.691  -6.794 -17.492  0.00  0.00     0.045 C 
BRANCH  12  13
HETATM   13  C           1     -29.927  -6.113 -18.063  0.00  0.00     0.105 C 
BRANCH  13  14
HETATM   14  C           1     -31.087  -7.078 -18.045  0.00  0.00     0.215 C 
HETATM   15  O           1     -31.061  -8.067 -18.738  0.00  0.00    -0.274 OA
HETATM   16  N           1     -32.169  -6.832 -17.244  0.00  0.00    -0.370 N 
HETATM   17  H           1     -32.191  -6.004 -16.663  0.00  0.00     0.159 HD
HETATM   18  H           1     -32.948  -7.479 -17.232  0.00  0.00     0.159 HD
ENDBRANCH  13  14
ENDBRANCH  12  13
ENDBRANCH   1  12
BRANCH   1  19
HETATM   19  C           1     -26.922  -5.461 -16.386  0.00  0.00     0.196 C 
HETATM   20  O           1     -25.713  -5.634 -16.119  0.00  0.00    -0.646 OA
HETATM   21  O           1     -27.675  -4.917 -15.550  0.00  0.00    -0.646 OA
ENDBRANCH   1  19
TORSDOF 7
ENDMDL
MODEL 8
REMARK VINA RESULT:      -5.1     10.250     12.252
REMARK  7 active torsions:
REMARK  status: ('A' for Active; 'I' for Inactive)
REMARK       I    between atoms: C_1  and  N_9 
REMARK    1  A    between atoms: C_1  and  C_11 
REMARK    2  A    between atoms: N_4  and  C_20 
REMARK       I    between atoms: N_4  and  C_5 
REMARK    3  A    between atoms: C_5  and  C_6 
REMARK    4  A    between atoms: C_6  and  N_15 
REMARK    5  A    between atoms: C_11  and  C_19 
REMARK    6  A    between atoms: C_19  and  C_20 
REMARK    7  A    between atoms: C_20  and  C_21 
ROOT
HETATM    1  C           1     -21.039  -4.281  -7.518  0.00  0.00     0.186 C 
ENDROOT
BRANCH   1   2
HETATM    2  N           1     -22.110  -4.925  -8.254  0.00  0.00    -0.345 N 
HETATM    3  C           1     -22.923  -4.185  -9.068  0.00  0.00     0.248 C 
HETATM    4  O           1     -22.749  -2.993  -9.173  0.00  0.00    -0.271 OA
HETATM    5  H           1     -22.255  -5.923  -8.165  0.00  0.00     0.163 HD
BRANCH   3   6
HETATM    6  C           1     -24.037  -4.855  -9.833  0.00  0.00     0.270 C 
HETATM    7  C           1     -23.663  -4.937 -11.308  0.00  0.00     0.050 C 
BRANCH   6   8
HETATM    8  N           1     -25.298  -4.057  -9.681  0.00  0.00    -0.067 N 
HETATM    9  H           1     -25.258  -3.509  -8.792  0.00  0.00     0.275 HD
HETATM   10  H           1     -25.396  -3.403 -10.490  0.00  0.00     0.275 HD
HETATM   11  H           1     -26.117  -4.704  -9.656  0.00  0.00     0.275 HD
ENDBRANCH   6   8
ENDBRANCH   3   6
ENDBRANCH   1   2
BRANCH   1  12
HETATM   12  C           1     -20.923  -4.909  -6.136  0.00  0.00     0.045 C 
BRANCH  12  13
HETATM   13  C           1     -20.902  -6.427  -6.267  0.00  0.00     0.105 C 
BRANCH  13  14
HETATM   14  C           1     -21.818  -7.034  -5.233  0.00  0.00     0.215 C 
HETATM   15  O           1     -21.660  -8.181  -4.886  0.00  0.00    -0.274 OA
HETATM   16  N           1     -22.827  -6.288  -4.688  0.00  0.00    -0.370 N 
HETATM   17  H           1     -22.959  -5.327  -4.979  0.00  0.00     0.159 HD
HETATM   18  H           1     -23.441  -6.696  -3.995  0.00  0.00     0.159 HD
ENDBRANCH  13  14
ENDBRANCH  12  13
ENDBRANCH   1  12
BRANCH   1  19
HETATM   19  C           1     -19.738  -4.460  -8.263  0.00  0.00     0.196 C 
HETATM   20  O           1     -19.747  -4.842  -9.453  0.00  0.00    -0.646 OA
HETATM   21  O           1     -18.653  -4.226  -7.690  0.00  0.00    -0.646 OA
ENDBRANCH   1  19
TORSDOF 7
ENDMDL
MODEL 9
REMARK VINA RESULT:      -4.9     11.695     13.723
REMARK  7 active torsions:
REMARK  status: ('A' for Active; 'I' for Inactive)
REMARK       I    between atoms: C_1  and  N_9 
REMARK    1  A    between atoms: C_1  and  C_11 
REMARK    2  A    between atoms: N_4  and  C_20 
REMARK       I    between atoms: N_4  and  C_5 
REMARK    3  A    between atoms: C_5  and  C_6 
REMARK    4  A    between atoms: C_6  and  N_15 
REMARK    5  A    between atoms: C_11  and  C_19 
REMARK    6  A    between atoms: C_19  and  C_20 
REMARK    7  A    between atoms: C_20  and  C_21 
ROOT
HETATM    1  C           1     -21.435  -5.404  -6.041  0.00  0.00     0.186 C 
ENDROOT
BRANCH   1   2
HETATM    2  N           1     -22.259  -5.372  -7.233  0.00  0.00    -0.345 N 
HETATM    3  C           1     -22.384  -4.211  -7.947  0.00  0.00     0.248 C 
HETATM    4  O           1     -21.810  -3.212  -7.583  0.00  0.00    -0.271 OA
HETATM    5  H           1     -22.740  -6.208  -7.539  0.00  0.00     0.163 HD
BRANCH   3   6
HETATM    6  C           1     -23.241  -4.177  -9.189  0.00  0.00     0.270 C 
HETATM    7  C           1     -22.437  -3.600 -10.346  0.00  0.00     0.050 C 
BRANCH   6   8
HETATM    8  N           1     -24.447  -3.320  -8.941  0.00  0.00    -0.067 N 
HETATM    9  H           1     -24.655  -3.299  -7.917  0.00  0.00     0.275 HD
HETATM   10  H           1     -24.259  -2.349  -9.278  0.00  0.00     0.275 HD
HETATM   11  H           1     -25.265  -3.714  -9.456  0.00  0.00     0.275 HD
ENDBRANCH   6   8
ENDBRANCH   3   6
ENDBRANCH   1   2
BRANCH   1  12
HETATM   12  C           1     -21.987  -6.440  -5.071  0.00  0.00     0.045 C 
BRANCH  12  13
HETATM   13  C           1     -21.424  -6.185  -3.679  0.00  0.00     0.105 C 
BRANCH  13  14
HETATM   14  C           1     -21.013  -7.496  -3.053  0.00  0.00     0.215 C 
HETATM   15  O           1     -20.704  -8.429  -3.755  0.00  0.00    -0.274 OA
HETATM   16  N           1     -20.991  -7.627  -1.692  0.00  0.00    -0.370 N 
HETATM   17  H           1     -21.250  -6.845  -1.104  0.00  0.00     0.159 HD
HETATM   18  H           1     -20.715  -8.506  -1.272  0.00  0.00     0.159 HD
ENDBRANCH  13  14
ENDBRANCH  12  13
ENDBRANCH   1  12
BRANCH   1  19
HETATM   19  C           1     -20.020  -5.769  -6.416  0.00  0.00     0.196 C 
HETATM   20  O           1     -19.718  -6.963  -6.627  0.00  0.00    -0.646 OA
HETATM   21  O           1     -19.150  -4.877  -6.514  0.00  0.00    -0.646 OA
ENDBRANCH   1  19
TORSDOF 7
ENDMDL
