MODEL 1
REMARK VINA RESULT:      -5.6      0.000      0.000
REMARK  2 active torsions:
REMARK  status: ('A' for Active; 'I' for Inactive)
REMARK    1  A    between atoms: C_9  and  C_15 
REMARK    2  A    between atoms: C_12  and  C_13 
REMARK       I    between atoms: C_13  and  N_16 
ROOT
HETATM    1  C           1     -22.041  -2.641 -11.110  0.00  0.00     0.038 C 
HETATM    2  C           1     -21.263  -3.725 -11.844  0.00  0.00     0.022 C 
HETATM    3  C           1     -21.352  -4.951 -10.953  0.00  0.00     0.127 C 
HETATM    4  O           1     -20.291  -5.743  -8.413  0.00  0.00    -0.271 OA
HETATM    5  C           1     -21.065  -4.816  -8.435  0.00  0.00     0.254 C 
HETATM    6  C           1     -22.543  -3.305  -9.839  0.00  0.00     0.188 C 
HETATM    7  N           1     -21.601  -4.399  -9.624  0.00  0.00    -0.336 N 
ENDROOT
BRANCH   5   8
HETATM    8  C           1     -21.442  -4.117  -7.151  0.00  0.00     0.311 C 
HETATM    9  C           1     -20.413  -4.387  -6.067  0.00  0.00     0.047 C 
HETATM   10  C           1     -20.961  -5.574  -5.285  0.00  0.00     0.033 C 
HETATM   11  C           1     -22.280  -5.916  -5.958  0.00  0.00     0.271 C 
HETATM   12  N           1     -22.677  -4.668  -6.603  0.00  0.00     0.097 N 
HETATM   13  H           1     -23.077  -4.038  -5.907  0.00  0.00     0.317 HD
ENDBRANCH   5   8
BRANCH   6  14
HETATM   14  C           1     -23.944  -3.833 -10.027  0.00  0.00     0.196 C 
HETATM   15  O           1     -24.710  -3.291 -10.854  0.00  0.00    -0.646 OA
HETATM   16  O           1     -24.339  -4.811  -9.357  0.00  0.00    -0.646 OA
ENDBRANCH   6  14
TORSDOF 2
ENDMDL
MODEL 2
REMARK VINA RESULT:      -5.4      5.711      9.010
REMARK  2 active torsions:
REMARK  status: ('A' for Active; 'I' for Inactive)
REMARK    1  A    between atoms: C_9  and  C_15 
REMARK    2  A    between atoms: C_12  and  C_13 
REMARK       I    between atoms: C_13  and  N_16 
ROOT
HETATM    1  C           1     -20.968  -8.834   0.705  0.00  0.00     0.038 C 
HETATM    2  C           1     -22.181  -8.083   1.238  0.00  0.00     0.022 C 
HETATM    3  C           1     -22.993  -7.716   0.008  0.00  0.00     0.127 C 
HETATM    4  O           1     -22.700  -5.917  -2.201  0.00  0.00    -0.271 OA
HETATM    5  C           1     -21.912  -6.828  -2.109  0.00  0.00     0.254 C 
HETATM    6  C           1     -21.152  -8.866  -0.802  0.00  0.00     0.188 C 
HETATM    7  N           1     -22.009  -7.715  -1.071  0.00  0.00    -0.336 N 
ENDROOT
BRANCH   5   8
HETATM    8  C           1     -20.820  -6.987  -3.139  0.00  0.00     0.311 C 
HETATM    9  C           1     -20.774  -5.787  -4.069  0.00  0.00     0.047 C 
HETATM   10  C           1     -21.617  -6.185  -5.273  0.00  0.00     0.033 C 
HETATM   11  C           1     -22.096  -7.596  -4.972  0.00  0.00     0.271 C 
HETATM   12  N           1     -21.105  -8.107  -4.030  0.00  0.00     0.097 N 
HETATM   13  H           1     -20.266  -8.388  -4.538  0.00  0.00     0.317 HD
ENDBRANCH   5   8
BRANCH   6  14
HETATM   14  C           1     -21.822 -10.147  -1.235  0.00  0.00     0.196 C 
HETATM   15  O           1     -22.335 -10.231  -2.372  0.00  0.00    -0.646 OA
HETATM   16  O           1     -21.865 -11.124  -0.456  0.00  0.00    -0.646 OA
ENDBRANCH   6  14
TORSDOF 2
ENDMDL
MODEL 3
REMARK VINA RESULT:      -5.3      5.818      8.015
REMARK  2 active torsions:
REMARK  status: ('A' for Active; 'I' for Inactive)
REMARK    1  A    between atoms: C_9  and  C_15 
REMARK    2  A    between atoms: C_12  and  C_13 
REMARK       I    between atoms: C_13  and  N_16 
ROOT
HETATM    1  C           1     -21.656  -8.052  -5.113  0.00  0.00     0.038 C 
HETATM    2  C           1     -21.652  -6.528  -5.130  0.00  0.00     0.022 C 
HETATM    3  C           1     -21.219  -6.117  -3.733  0.00  0.00     0.127 C 
HETATM    4  O           1     -22.359  -6.204  -1.106  0.00  0.00    -0.271 OA
HETATM    5  C           1     -22.117  -7.256  -1.650  0.00  0.00     0.254 C 
HETATM    6  C           1     -21.217  -8.434  -3.710  0.00  0.00     0.188 C 
HETATM    7  N           1     -21.572  -7.268  -2.906  0.00  0.00    -0.336 N 
ENDROOT
BRANCH   5   8
HETATM    8  C           1     -22.416  -8.556  -0.944  0.00  0.00     0.311 C 
HETATM    9  C           1     -23.256  -8.316   0.298  0.00  0.00     0.047 C 
HETATM   10  C           1     -22.256  -8.220   1.442  0.00  0.00     0.033 C 
HETATM   11  C           1     -20.895  -8.417   0.795  0.00  0.00     0.271 C 
HETATM   12  N           1     -21.192  -9.160  -0.426  0.00  0.00     0.097 N 
HETATM   13  H           1     -21.342 -10.143  -0.198  0.00  0.00     0.317 HD
ENDBRANCH   5   8
BRANCH   6  14
HETATM   14  C           1     -19.730  -8.686  -3.662  0.00  0.00     0.196 C 
HETATM   15  O           1     -19.074  -8.759  -4.724  0.00  0.00    -0.646 OA
HETATM   16  O           1     -19.154  -8.824  -2.561  0.00  0.00    -0.646 OA
ENDBRANCH   6  14
TORSDOF 2
ENDMDL
MODEL 4
REMARK VINA RESULT:      -5.2     10.898     12.123
REMARK  2 active torsions:
REMARK  status: ('A' for Active; 'I' for Inactive)
REMARK    1  A    between atoms: C_9  and  C_15 
REMARK    2  A    between atoms: C_12  and  C_13 
REMARK       I    between atoms: C_13  and  N_16 
ROOT
HETATM    1  C           1     -25.390  -6.288 -21.025  0.00  0.00     0.038 C 
HETATM    2  C           1     -24.366  -6.602 -19.944  0.00  0.00     0.022 C 
HETATM    3  C           1     -25.178  -7.086 -18.755  0.00  0.00     0.127 C 
HETATM    4  O           1     -26.983  -5.907 -16.869  0.00  0.00    -0.271 OA
HETATM    5  C           1     -27.322  -5.938 -18.028  0.00  0.00     0.254 C 
HETATM    6  C           1     -26.737  -6.614 -20.403  0.00  0.00     0.188 C 
HETATM    7  N           1     -26.495  -6.491 -18.968  0.00  0.00    -0.336 N 
ENDROOT
BRANCH   5   8
HETATM    8  C           1     -28.658  -5.368 -18.439  0.00  0.00     0.311 C 
HETATM    9  C           1     -29.185  -4.412 -17.383  0.00  0.00     0.047 C 
HETATM   10  C           1     -30.102  -5.255 -16.505  0.00  0.00     0.033 C 
HETATM   11  C           1     -30.056  -6.648 -17.110  0.00  0.00     0.271 C 
HETATM   12  N           1     -29.673  -6.414 -18.500  0.00  0.00     0.097 N 
HETATM   13  H           1     -30.487  -6.098 -19.028  0.00  0.00     0.317 HD
ENDBRANCH   5   8
BRANCH   6  14
HETATM   14  C           1     -27.166  -8.017 -20.756  0.00  0.00     0.196 C 
HETATM   15  O           1     -28.219  -8.489 -20.274  0.00  0.00    -0.646 OA
HETATM   16  O           1     -26.469  -8.708 -21.530  0.00  0.00    -0.646 OA
ENDBRANCH   6  14
TORSDOF 2
ENDMDL
MODEL 5
REMARK VINA RESULT:      -5.0      7.270     10.351
REMARK  2 active torsions:
REMARK  status: ('A' for Active; 'I' for Inactive)
REMARK    1  A    between atoms: C_9  and  C_15 
REMARK    2  A    between atoms: C_12  and  C_13 
REMARK       I    between atoms: C_13  and  N_16 
ROOT
HETATM    1  C           1     -23.837 -11.285   0.195  0.00  0.00     0.038 C 
HETATM    2  C           1     -24.180 -11.928  -1.142  0.00  0.00     0.022 C 
HETATM    3  C           1     -22.964 -11.693  -2.021  0.00  0.00     0.127 C 
HETATM    4  O           1     -21.734  -9.438  -3.287  0.00  0.00    -0.271 OA
HETATM    5  C           1     -21.750  -9.465  -2.080  0.00  0.00     0.254 C 
HETATM    6  C           1     -22.437 -10.721   0.016  0.00  0.00     0.188 C 
HETATM    7  N           1     -22.326 -10.521  -1.427  0.00  0.00    -0.336 N 
ENDROOT
BRANCH   5   8
HETATM    8  C           1     -21.135  -8.334  -1.291  0.00  0.00     0.311 C 
HETATM    9  C           1     -22.207  -7.392  -0.772  0.00  0.00     0.047 C 
HETATM   10  C           1     -22.298  -6.281  -1.810  0.00  0.00     0.033 C 
HETATM   11  C           1     -21.267  -6.642  -2.867  0.00  0.00     0.271 C 
HETATM   12  N           1     -20.315  -7.487  -2.152  0.00  0.00     0.097 N 
HETATM   13  H           1     -19.692  -6.901  -1.595  0.00  0.00     0.317 HD
ENDBRANCH   5   8
BRANCH   6  14
HETATM   14  C           1     -21.397 -11.700   0.503  0.00  0.00     0.196 C 
HETATM   15  O           1     -20.193 -11.528   0.214  0.00  0.00    -0.646 OA
HETATM   16  O           1     -21.740 -12.682   1.196  0.00  0.00    -0.646 OA
ENDBRANCH   6  14
TORSDOF 2
ENDMDL
MODEL 6
REMARK VINA RESULT:      -5.0      7.147      9.464
REMARK  2 active torsions:
REMARK  status: ('A' for Active; 'I' for Inactive)
REMARK    1  A    between atoms: C_9  and  C_15 
REMARK    2  A    between atoms: C_12  and  C_13 
REMARK       I    between atoms: C_13  and  N_16 
ROOT
HETATM    1  C           1     -21.454  -7.747  -3.860  0.00  0.00     0.038 C 
HETATM    2  C           1     -21.573  -6.633  -2.828  0.00  0.00     0.022 C 
HETATM    3  C           1     -21.451  -7.325  -1.481  0.00  0.00     0.127 C 
HETATM    4  O           1     -23.060  -9.108   0.080  0.00  0.00    -0.271 OA
HETATM    5  C           1     -22.633  -9.513  -0.974  0.00  0.00     0.254 C 
HETATM    6  C           1     -21.262  -9.019  -3.052  0.00  0.00     0.188 C 
HETATM    7  N           1     -21.858  -8.700  -1.758  0.00  0.00    -0.336 N 
ENDROOT
BRANCH   5   8
HETATM    8  C           1     -22.953 -10.917  -1.428  0.00  0.00     0.311 C 
HETATM    9  C           1     -24.090 -11.504  -0.610  0.00  0.00     0.047 C 
HETATM   10  C           1     -23.413 -12.291   0.505  0.00  0.00     0.033 C 
HETATM   11  C           1     -21.923 -12.119   0.261  0.00  0.00     0.271 C 
HETATM   12  N           1     -21.834 -11.816  -1.165  0.00  0.00     0.097 N 
HETATM   13  H           1     -21.929 -12.678  -1.702  0.00  0.00     0.317 HD
ENDBRANCH   5   8
BRANCH   6  14
HETATM   14  C           1     -19.795  -9.343  -2.901  0.00  0.00     0.196 C 
HETATM   15  O           1     -19.406 -10.045  -1.943  0.00  0.00    -0.646 OA
HETATM   16  O           1     -18.970  -8.909  -3.734  0.00  0.00    -0.646 OA
ENDBRANCH   6  14
TORSDOF 2
ENDMDL
MODEL 7
REMARK VINA RESULT:      -5.0      5.484      8.536
REMARK  2 active torsions:
REMARK  status: ('A' for Active; 'I' for Inactive)
REMARK    1  A    between atoms: C_9  and  C_15 
REMARK    2  A    between atoms: C_12  and  C_13 
REMARK       I    between atoms: C_13  and  N_16 
ROOT
HETATM    1  C           1     -22.453 -10.058  -0.648  0.00  0.00     0.038 C 
HETATM    2  C           1     -21.009 -10.485  -0.415  0.00  0.00     0.022 C 
HETATM    3  C           1     -20.165  -9.404  -1.069  0.00  0.00     0.127 C 
HETATM    4  O           1     -19.609  -8.554  -3.747  0.00  0.00    -0.271 OA
HETATM    5  C           1     -20.740  -8.432  -3.342  0.00  0.00     0.254 C 
HETATM    6  C           1     -22.361  -8.751  -1.416  0.00  0.00     0.188 C 
HETATM    7  N           1     -21.057  -8.823  -2.069  0.00  0.00    -0.336 N 
ENDROOT
BRANCH   5   8
HETATM    8  C           1     -21.804  -7.848  -4.240  0.00  0.00     0.311 C 
HETATM    9  C           1     -21.331  -7.807  -5.682  0.00  0.00     0.047 C 
HETATM   10  C           1     -20.760  -6.408  -5.875  0.00  0.00     0.033 C 
HETATM   11  C           1     -20.943  -5.718  -4.533  0.00  0.00     0.271 C 
HETATM   12  N           1     -22.047  -6.446  -3.913  0.00  0.00     0.097 N 
HETATM   13  H           1     -22.930  -6.129  -4.314  0.00  0.00     0.317 HD
ENDBRANCH   5   8
BRANCH   6  14
HETATM   14  C           1     -22.427  -7.571  -0.478  0.00  0.00     0.196 C 
HETATM   15  O           1     -22.430  -6.408  -0.936  0.00  0.00    -0.646 OA
HETATM   16  O           1     -22.478  -7.756   0.757  0.00  0.00    -0.646 OA
ENDBRANCH   6  14
TORSDOF 2
ENDMDL
MODEL 8
REMARK VINA RESULT:      -5.0     18.489     19.849
REMARK  2 active torsions:
REMARK  status: ('A' for Active; 'I' for Inactive)
REMARK    1  A    between atoms: C_9  and  C_15 
REMARK    2  A    between atoms: C_12  and  C_13 
REMARK       I    between atoms: C_13  and  N_16 
ROOT
HETATM    1  C           1     -13.686  10.163   1.092  0.00  0.00     0.038 C 
HETATM    2  C           1     -13.767   8.689   0.715  0.00  0.00     0.022 C 
HETATM    3  C           1     -14.771   8.086   1.682  0.00  0.00     0.127 C 
HETATM    4  O           1     -14.845   7.496   4.484  0.00  0.00    -0.271 OA
HETATM    5  C           1     -14.776   8.657   4.155  0.00  0.00     0.254 C 
HETATM    6  C           1     -14.654  10.330   2.250  0.00  0.00     0.188 C 
HETATM    7  N           1     -14.738   8.991   2.828  0.00  0.00    -0.336 N 
ENDROOT
BRANCH   5   8
HETATM    8  C           1     -14.731   9.738   5.207  0.00  0.00     0.311 C 
HETATM    9  C           1     -14.632   9.135   6.598  0.00  0.00     0.047 C 
HETATM   10  C           1     -16.068   9.058   7.101  0.00  0.00     0.033 C 
HETATM   11  C           1     -16.913   9.628   5.974  0.00  0.00     0.271 C 
HETATM   12  N           1     -15.985  10.484   5.240  0.00  0.00     0.097 N 
HETATM   13  H           1     -15.869  11.366   5.739  0.00  0.00     0.317 HD
ENDBRANCH   5   8
BRANCH   6  14
HETATM   14  C           1     -16.006  10.787   1.759  0.00  0.00     0.196 C 
HETATM   15  O           1     -17.032  10.527   2.422  0.00  0.00    -0.646 OA
HETATM   16  O           1     -16.098  11.426   0.688  0.00  0.00    -0.646 OA
ENDBRANCH   6  14
TORSDOF 2
ENDMDL
MODEL 9
REMARK VINA RESULT:      -4.9      6.400      8.049
REMARK  2 active torsions:
REMARK  status: ('A' for Active; 'I' for Inactive)
REMARK    1  A    between atoms: C_9  and  C_15 
REMARK    2  A    between atoms: C_12  and  C_13 
REMARK       I    between atoms: C_13  and  N_16 
ROOT
HETATM    1  C           1     -19.284 -10.240  -4.732  0.00  0.00     0.038 C 
HETATM    2  C           1     -20.434 -11.161  -5.118  0.00  0.00     0.022 C 
HETATM    3  C           1     -21.659 -10.574  -4.436  0.00  0.00     0.127 C 
HETATM    4  O           1     -22.604 -10.324  -1.744  0.00  0.00    -0.271 OA
HETATM    5  C           1     -21.597  -9.728  -2.044  0.00  0.00     0.254 C 
HETATM    6  C           1     -19.910  -9.169  -3.855  0.00  0.00     0.188 C 
HETATM    7  N           1     -21.105  -9.815  -3.318  0.00  0.00    -0.336 N 
ENDROOT
BRANCH   5   8
HETATM    8  C           1     -20.883  -8.887  -1.014  0.00  0.00     0.311 C 
HETATM    9  C           1     -21.459  -9.124   0.371  0.00  0.00     0.047 C 
HETATM   10  C           1     -22.496  -8.025   0.565  0.00  0.00     0.033 C 
HETATM   11  C           1     -22.453  -7.211  -0.718  0.00  0.00     0.271 C 
HETATM   12  N           1     -21.117  -7.466  -1.250  0.00  0.00     0.097 N 
HETATM   13  H           1     -20.437  -6.898  -0.744  0.00  0.00     0.317 HD
ENDBRANCH   5   8
BRANCH   6  14
HETATM   14  C           1     -20.278  -7.954  -4.672  0.00  0.00     0.196 C 
HETATM   15  O           1     -19.806  -7.808  -5.820  0.00  0.00    -0.646 OA
HETATM   16  O           1     -21.053  -7.095  -4.200  0.00  0.00    -0.646 OA
ENDBRANCH   6  14
TORSDOF 2
ENDMDL
