MODEL 1
REMARK VINA RESULT:      -7.3      0.000      0.000
REMARK  9 active torsions:
REMARK  status: ('A' for Active; 'I' for Inactive)
REMARK    1  A    between atoms: C_1  and  C_31 
REMARK    2  A    between atoms: C_1  and  C_4 
REMARK    3  A    between atoms: C_1  and  N_25 
REMARK    4  A    between atoms: C_4  and  C_14 
REMARK    5  A    between atoms: C_6  and  C_11 
REMARK    6  A    between atoms: C_11  and  C_19 
REMARK    7  A    between atoms: C_11  and  N_20 
REMARK       I    between atoms: N_18  and  C_23 
REMARK    8  A    between atoms: C_19  and  C_29 
REMARK       I    between atoms: N_20  and  C_31 
REMARK    9  A    between atoms: C_23  and  C_29 
ROOT
HETATM    1  C           1     -21.651  -6.397  -5.451  0.00  0.00     0.278 C 
ENDROOT
BRANCH   1   2
HETATM    2  C           1     -20.747  -7.604  -5.482  0.00  0.00     0.249 C 
HETATM    3  O           1     -19.726  -7.578  -6.127  0.00  0.00    -0.271 OA
HETATM    4  N           1     -21.084  -8.729  -4.778  0.00  0.00    -0.345 N 
HETATM    5  H           1     -21.938  -8.751  -4.237  0.00  0.00     0.163 HD
BRANCH   4   6
HETATM    6  C           1     -20.214  -9.889  -4.808  0.00  0.00     0.186 C 
BRANCH   6   7
HETATM    7  C           1     -20.857 -10.977  -5.633  0.00  0.00     0.196 C 
HETATM    8  O           1     -20.371 -11.291  -6.741  0.00  0.00    -0.646 OA
HETATM    9  O           1     -21.875 -11.565  -5.207  0.00  0.00    -0.646 OA
ENDBRANCH   6   7
BRANCH   6  10
HETATM   10  C           1     -19.990 -10.394  -3.388  0.00  0.00     0.045 C 
BRANCH  10  11
HETATM   11  C           1     -19.361  -9.291  -2.549  0.00  0.00     0.105 C 
BRANCH  11  12
HETATM   12  C           1     -20.394  -8.722  -1.608  0.00  0.00     0.215 C 
HETATM   13  N           1     -20.836  -9.465  -0.547  0.00  0.00    -0.370 N 
HETATM   14  H           1     -20.470 -10.395  -0.393  0.00  0.00     0.159 HD
HETATM   15  H           1     -21.529  -9.083   0.085  0.00  0.00     0.159 HD
HETATM   16  O           1     -20.831  -7.611  -1.791  0.00  0.00    -0.274 OA
ENDBRANCH  11  12
ENDBRANCH  10  11
ENDBRANCH   6  10
ENDBRANCH   4   6
ENDBRANCH   1   2
BRANCH   1  17
HETATM   17  C           1     -20.983  -5.242  -6.186  0.00  0.00     0.083 C 
BRANCH  17  18
HETATM   18  C           1     -21.885  -4.753  -7.275  0.00  0.00    -0.028 A 
HETATM   19  C           1     -21.514  -4.511  -8.627  0.00  0.00    -0.002 A 
HETATM   20  C           1     -22.656  -4.067  -9.294  0.00  0.00     0.042 A 
HETATM   21  C           1     -20.311  -4.629  -9.348  0.00  0.00     0.014 A 
HETATM   22  N           1     -23.679  -4.044  -8.373  0.00  0.00    -0.365 N 
HETATM   23  C           1     -22.656  -3.732 -10.654  0.00  0.00     0.030 A 
HETATM   24  C           1     -23.224  -4.456  -7.149  0.00  0.00     0.096 A 
HETATM   25  H           1     -24.666  -3.750  -8.578  0.00  0.00     0.165 HD
HETATM   26  C           1     -21.448  -3.857 -11.349  0.00  0.00     0.002 A 
HETATM   27  C           1     -20.292  -4.298 -10.708  0.00  0.00     0.001 A 
ENDBRANCH  17  18
ENDBRANCH   1  17
BRANCH   1  28
HETATM   28  N           1     -21.908  -6.001  -4.027  0.00  0.00    -0.066 N 
HETATM   29  H           1     -22.931  -6.070  -3.824  0.00  0.00     0.275 HD
HETATM   30  H           1     -21.382  -6.639  -3.388  0.00  0.00     0.275 HD
HETATM   31  H           1     -21.589  -5.017  -3.877  0.00  0.00     0.275 HD
ENDBRANCH   1  28
TORSDOF 9
ENDMDL
MODEL 2
REMARK VINA RESULT:      -7.3      2.619      8.362
REMARK  9 active torsions:
REMARK  status: ('A' for Active; 'I' for Inactive)
REMARK    1  A    between atoms: C_1  and  C_31 
REMARK    2  A    between atoms: C_1  and  C_4 
REMARK    3  A    between atoms: C_1  and  N_25 
REMARK    4  A    between atoms: C_4  and  C_14 
REMARK    5  A    between atoms: C_6  and  C_11 
REMARK    6  A    between atoms: C_11  and  C_19 
REMARK    7  A    between atoms: C_11  and  N_20 
REMARK       I    between atoms: N_18  and  C_23 
REMARK    8  A    between atoms: C_19  and  C_29 
REMARK       I    between atoms: N_20  and  C_31 
REMARK    9  A    between atoms: C_23  and  C_29 
ROOT
HETATM    1  C           1     -20.986  -6.855  -4.471  0.00  0.00     0.278 C 
ENDROOT
BRANCH   1   2
HETATM    2  C           1     -21.171  -6.555  -5.938  0.00  0.00     0.249 C 
HETATM    3  O           1     -21.317  -7.458  -6.727  0.00  0.00    -0.271 OA
HETATM    4  N           1     -21.173  -5.257  -6.376  0.00  0.00    -0.345 N 
HETATM    5  H           1     -21.052  -4.500  -5.715  0.00  0.00     0.163 HD
BRANCH   4   6
HETATM    6  C           1     -21.351  -4.968  -7.785  0.00  0.00     0.186 C 
BRANCH   6   7
HETATM    7  C           1     -20.008  -4.689  -8.414  0.00  0.00     0.196 C 
HETATM    8  O           1     -19.041  -4.349  -7.698  0.00  0.00    -0.646 OA
HETATM    9  O           1     -19.862  -4.800  -9.650  0.00  0.00    -0.646 OA
ENDBRANCH   6   7
BRANCH   6  10
HETATM   10  C           1     -22.249  -3.748  -7.946  0.00  0.00     0.045 C 
BRANCH  10  11
HETATM   11  C           1     -23.513  -4.143  -8.697  0.00  0.00     0.105 C 
BRANCH  11  12
HETATM   12  C           1     -23.517  -3.487 -10.056  0.00  0.00     0.215 C 
HETATM   13  N           1     -22.349  -3.363 -10.759  0.00  0.00    -0.370 N 
HETATM   14  H           1     -21.483  -3.710 -10.369  0.00  0.00     0.159 HD
HETATM   15  H           1     -22.352  -2.922 -11.671  0.00  0.00     0.159 HD
HETATM   16  O           1     -24.550  -3.071 -10.523  0.00  0.00    -0.274 OA
ENDBRANCH  11  12
ENDBRANCH  10  11
ENDBRANCH   6  10
ENDBRANCH   4   6
ENDBRANCH   1   2
BRANCH   1  17
HETATM   17  C           1     -21.921  -7.986  -4.062  0.00  0.00     0.083 C 
BRANCH  17  18
HETATM   18  C           1     -21.314  -8.751  -2.929  0.00  0.00    -0.028 A 
HETATM   19  C           1     -21.556  -8.532  -1.544  0.00  0.00    -0.002 A 
HETATM   20  C           1     -20.790  -9.462  -0.841  0.00  0.00     0.042 A 
HETATM   21  C           1     -22.357  -7.629  -0.821  0.00  0.00     0.014 A 
HETATM   22  N           1     -20.111 -10.215  -1.773  0.00  0.00    -0.365 N 
HETATM   23  C           1     -20.785  -9.535   0.558  0.00  0.00     0.030 A 
HETATM   24  C           1     -20.420  -9.793  -3.039  0.00  0.00     0.096 A 
HETATM   25  H           1     -19.450 -10.999  -1.546  0.00  0.00     0.165 HD
HETATM   26  C           1     -21.589  -8.627   1.254  0.00  0.00     0.002 A 
HETATM   27  C           1     -22.364  -7.687   0.578  0.00  0.00     0.001 A 
ENDBRANCH  17  18
ENDBRANCH   1  17
BRANCH   1  28
HETATM   28  N           1     -21.303  -5.630  -3.666  0.00  0.00    -0.066 N 
HETATM   29  H           1     -21.988  -5.037  -4.187  0.00  0.00     0.275 HD
HETATM   30  H           1     -21.714  -5.913  -2.748  0.00  0.00     0.275 HD
HETATM   31  H           1     -20.426  -5.085  -3.502  0.00  0.00     0.275 HD
ENDBRANCH   1  28
TORSDOF 9
ENDMDL
MODEL 3
REMARK VINA RESULT:      -7.2      1.616      2.709
REMARK  9 active torsions:
REMARK  status: ('A' for Active; 'I' for Inactive)
REMARK    1  A    between atoms: C_1  and  C_31 
REMARK    2  A    between atoms: C_1  and  C_4 
REMARK    3  A    between atoms: C_1  and  N_25 
REMARK    4  A    between atoms: C_4  and  C_14 
REMARK    5  A    between atoms: C_6  and  C_11 
REMARK    6  A    between atoms: C_11  and  C_19 
REMARK    7  A    between atoms: C_11  and  N_20 
REMARK       I    between atoms: N_18  and  C_23 
REMARK    8  A    between atoms: C_19  and  C_29 
REMARK       I    between atoms: N_20  and  C_31 
REMARK    9  A    between atoms: C_23  and  C_29 
ROOT
HETATM    1  C           1     -21.776  -6.659  -5.291  0.00  0.00     0.278 C 
ENDROOT
BRANCH   1   2
HETATM    2  C           1     -21.107  -7.997  -5.097  0.00  0.00     0.249 C 
HETATM    3  O           1     -21.124  -8.817  -5.984  0.00  0.00    -0.271 OA
HETATM    4  N           1     -20.480  -8.284  -3.913  0.00  0.00    -0.345 N 
HETATM    5  H           1     -20.464  -7.597  -3.170  0.00  0.00     0.163 HD
BRANCH   4   6
HETATM    6  C           1     -19.837  -9.569  -3.727  0.00  0.00     0.186 C 
BRANCH   6   7
HETATM    7  C           1     -20.299 -10.177  -2.425  0.00  0.00     0.196 C 
HETATM    8  O           1     -19.464 -10.490  -1.550  0.00  0.00    -0.646 OA
HETATM    9  O           1     -21.518 -10.367  -2.222  0.00  0.00    -0.646 OA
ENDBRANCH   6   7
BRANCH   6  10
HETATM   10  C           1     -18.326  -9.383  -3.691  0.00  0.00     0.045 C 
BRANCH  10  11
HETATM   11  C           1     -17.667 -10.397  -4.615  0.00  0.00     0.105 C 
BRANCH  11  12
HETATM   12  C           1     -18.091 -10.132  -6.039  0.00  0.00     0.215 C 
HETATM   13  N           1     -18.800 -11.079  -6.729  0.00  0.00    -0.370 N 
HETATM   14  H           1     -19.039 -11.956  -6.285  0.00  0.00     0.159 HD
HETATM   15  H           1     -19.085 -10.901  -7.684  0.00  0.00     0.159 HD
HETATM   16  O           1     -17.807  -9.085  -6.569  0.00  0.00    -0.274 OA
ENDBRANCH  11  12
ENDBRANCH  10  11
ENDBRANCH   6  10
ENDBRANCH   4   6
ENDBRANCH   1   2
BRANCH   1  17
HETATM   17  C           1     -20.922  -5.792  -6.207  0.00  0.00     0.083 C 
BRANCH  17  18
HETATM   18  C           1     -21.802  -5.076  -7.182  0.00  0.00    -0.028 A 
HETATM   19  C           1     -21.452  -4.697  -8.508  0.00  0.00    -0.002 A 
HETATM   20  C           1     -22.562  -4.056  -9.059  0.00  0.00     0.042 A 
HETATM   21  C           1     -20.293  -4.839  -9.293  0.00  0.00     0.014 A 
HETATM   22  N           1     -23.546  -4.052  -8.096  0.00  0.00    -0.365 N 
HETATM   23  C           1     -22.571  -3.548 -10.364  0.00  0.00     0.030 A 
HETATM   24  C           1     -23.097  -4.665  -6.957  0.00  0.00     0.096 A 
HETATM   25  H           1     -24.503  -3.636  -8.217  0.00  0.00     0.165 HD
HETATM   26  C           1     -21.407  -3.701 -11.124  0.00  0.00     0.002 A 
HETATM   27  C           1     -20.284  -4.337 -10.600  0.00  0.00     0.001 A 
ENDBRANCH  17  18
ENDBRANCH   1  17
BRANCH   1  28
HETATM   28  N           1     -21.930  -5.980  -3.962  0.00  0.00    -0.066 N 
HETATM   29  H           1     -22.942  -5.945  -3.703  0.00  0.00     0.275 HD
HETATM   30  H           1     -21.402  -6.514  -3.235  0.00  0.00     0.275 HD
HETATM   31  H           1     -21.553  -5.007  -4.023  0.00  0.00     0.275 HD
ENDBRANCH   1  28
TORSDOF 9
ENDMDL
MODEL 4
REMARK VINA RESULT:      -7.2      1.707      2.483
REMARK  9 active torsions:
REMARK  status: ('A' for Active; 'I' for Inactive)
REMARK    1  A    between atoms: C_1  and  C_31 
REMARK    2  A    between atoms: C_1  and  C_4 
REMARK    3  A    between atoms: C_1  and  N_25 
REMARK    4  A    between atoms: C_4  and  C_14 
REMARK    5  A    between atoms: C_6  and  C_11 
REMARK    6  A    between atoms: C_11  and  C_19 
REMARK    7  A    between atoms: C_11  and  N_20 
REMARK       I    between atoms: N_18  and  C_23 
REMARK    8  A    between atoms: C_19  and  C_29 
REMARK       I    between atoms: N_20  and  C_31 
REMARK    9  A    between atoms: C_23  and  C_29 
ROOT
HETATM    1  C           1     -21.705  -6.359  -5.771  0.00  0.00     0.278 C 
ENDROOT
BRANCH   1   2
HETATM    2  C           1     -20.860  -7.300  -4.950  0.00  0.00     0.249 C 
HETATM    3  O           1     -19.749  -7.597  -5.322  0.00  0.00    -0.271 OA
HETATM    4  N           1     -21.351  -7.819  -3.781  0.00  0.00    -0.345 N 
HETATM    5  H           1     -22.281  -7.570  -3.469  0.00  0.00     0.163 HD
BRANCH   4   6
HETATM    6  C           1     -20.539  -8.723  -2.992  0.00  0.00     0.186 C 
BRANCH   6   7
HETATM    7  C           1     -21.164 -10.097  -3.000  0.00  0.00     0.196 C 
HETATM    8  O           1     -21.124 -10.808  -1.973  0.00  0.00    -0.646 OA
HETATM    9  O           1     -21.722 -10.523  -4.034  0.00  0.00    -0.646 OA
ENDBRANCH   6   7
BRANCH   6  10
HETATM   10  C           1     -20.454  -8.214  -1.559  0.00  0.00     0.045 C 
BRANCH  10  11
HETATM   11  C           1     -21.703  -7.408  -1.231  0.00  0.00     0.105 C 
BRANCH  11  12
HETATM   12  C           1     -22.432  -8.055  -0.079  0.00  0.00     0.215 C 
HETATM   13  N           1     -21.942  -9.203   0.482  0.00  0.00    -0.370 N 
HETATM   14  H           1     -21.091  -9.618   0.125  0.00  0.00     0.159 HD
HETATM   15  H           1     -22.431  -9.638   1.255  0.00  0.00     0.159 HD
HETATM   16  O           1     -23.448  -7.560   0.347  0.00  0.00    -0.274 OA
ENDBRANCH  11  12
ENDBRANCH  10  11
ENDBRANCH   6  10
ENDBRANCH   4   6
ENDBRANCH   1   2
BRANCH   1  17
HETATM   17  C           1     -20.949  -5.055  -5.989  0.00  0.00     0.083 C 
BRANCH  17  18
HETATM   18  C           1     -20.835  -4.782  -7.456  0.00  0.00    -0.028 A 
HETATM   19  C           1     -21.894  -4.387  -8.321  0.00  0.00    -0.002 A 
HETATM   20  C           1     -21.350  -4.243  -9.597  0.00  0.00     0.042 A 
HETATM   21  C           1     -23.267  -4.136  -8.137  0.00  0.00     0.014 A 
HETATM   22  N           1     -20.010  -4.542  -9.502  0.00  0.00    -0.365 N 
HETATM   23  C           1     -22.114  -3.859 -10.706  0.00  0.00     0.030 A 
HETATM   24  C           1     -19.688  -4.870  -8.212  0.00  0.00     0.096 A 
HETATM   25  H           1     -19.331  -4.523 -10.303  0.00  0.00     0.165 HD
HETATM   26  C           1     -23.476  -3.616 -10.498  0.00  0.00     0.002 A 
HETATM   27  C           1     -24.046  -3.752  -9.234  0.00  0.00     0.001 A 
ENDBRANCH  17  18
ENDBRANCH   1  17
BRANCH   1  28
HETATM   28  N           1     -22.988  -6.076  -5.045  0.00  0.00    -0.066 N 
HETATM   29  H           1     -22.817  -6.096  -4.014  0.00  0.00     0.275 HD
HETATM   30  H           1     -23.343  -5.133  -5.321  0.00  0.00     0.275 HD
HETATM   31  H           1     -23.696  -6.803  -5.295  0.00  0.00     0.275 HD
ENDBRANCH   1  28
TORSDOF 9
ENDMDL
MODEL 5
REMARK VINA RESULT:      -7.2      2.760      8.141
REMARK  9 active torsions:
REMARK  status: ('A' for Active; 'I' for Inactive)
REMARK    1  A    between atoms: C_1  and  C_31 
REMARK    2  A    between atoms: C_1  and  C_4 
REMARK    3  A    between atoms: C_1  and  N_25 
REMARK    4  A    between atoms: C_4  and  C_14 
REMARK    5  A    between atoms: C_6  and  C_11 
REMARK    6  A    between atoms: C_11  and  C_19 
REMARK    7  A    between atoms: C_11  and  N_20 
REMARK       I    between atoms: N_18  and  C_23 
REMARK    8  A    between atoms: C_19  and  C_29 
REMARK       I    between atoms: N_20  and  C_31 
REMARK    9  A    between atoms: C_23  and  C_29 
ROOT
HETATM    1  C           1     -21.157  -8.000  -5.422  0.00  0.00     0.278 C 
ENDROOT
BRANCH   1   2
HETATM    2  C           1     -20.555  -7.080  -6.455  0.00  0.00     0.249 C 
HETATM    3  O           1     -19.363  -7.088  -6.651  0.00  0.00    -0.271 OA
HETATM    4  N           1     -21.360  -6.234  -7.170  0.00  0.00    -0.345 N 
HETATM    5  H           1     -22.358  -6.227  -7.007  0.00  0.00     0.163 HD
BRANCH   4   6
HETATM    6  C           1     -20.782  -5.350  -8.163  0.00  0.00     0.186 C 
BRANCH   6   7
HETATM    7  C           1     -20.236  -4.119  -7.482  0.00  0.00     0.196 C 
HETATM    8  O           1     -21.007  -3.350  -6.869  0.00  0.00    -0.646 OA
HETATM    9  O           1     -19.012  -3.870  -7.530  0.00  0.00    -0.646 OA
ENDBRANCH   6   7
BRANCH   6  10
HETATM   10  C           1     -21.851  -4.942  -9.167  0.00  0.00     0.045 C 
BRANCH  10  11
HETATM   11  C           1     -21.224  -4.086 -10.259  0.00  0.00     0.105 C 
BRANCH  11  12
HETATM   12  C           1     -22.052  -4.186 -11.516  0.00  0.00     0.215 C 
HETATM   13  N           1     -21.521  -3.802 -12.718  0.00  0.00    -0.370 N 
HETATM   14  H           1     -20.573  -3.450 -12.764  0.00  0.00     0.159 HD
HETATM   15  H           1     -22.076  -3.868 -13.562  0.00  0.00     0.159 HD
HETATM   16  O           1     -23.183  -4.606 -11.463  0.00  0.00    -0.274 OA
ENDBRANCH  11  12
ENDBRANCH  10  11
ENDBRANCH   6  10
ENDBRANCH   4   6
ENDBRANCH   1   2
BRANCH   1  17
HETATM   17  C           1     -20.320  -7.954  -4.150  0.00  0.00     0.083 C 
BRANCH  17  18
HETATM   18  C           1     -21.120  -7.337  -3.047  0.00  0.00    -0.028 A 
HETATM   19  C           1     -21.489  -7.966  -1.825  0.00  0.00    -0.002 A 
HETATM   20  C           1     -22.226  -7.037  -1.091  0.00  0.00     0.042 A 
HETATM   21  C           1     -21.264  -9.241  -1.273  0.00  0.00     0.014 A 
HETATM   22  N           1     -22.297  -5.888  -1.847  0.00  0.00    -0.365 N 
HETATM   23  C           1     -22.753  -7.320   0.175  0.00  0.00     0.030 A 
HETATM   24  C           1     -21.631  -6.059  -3.032  0.00  0.00     0.096 A 
HETATM   25  H           1     -22.791  -5.008  -1.557  0.00  0.00     0.165 HD
HETATM   26  C           1     -22.517  -8.593   0.703  0.00  0.00     0.002 A 
HETATM   27  C           1     -21.784  -9.541  -0.009  0.00  0.00     0.001 A 
ENDBRANCH  17  18
ENDBRANCH   1  17
BRANCH   1  28
HETATM   28  N           1     -21.179  -9.402  -5.954  0.00  0.00    -0.066 N 
HETATM   29  H           1     -21.265  -9.379  -6.995  0.00  0.00     0.275 HD
HETATM   30  H           1     -20.294  -9.889  -5.689  0.00  0.00     0.275 HD
HETATM   31  H           1     -21.994  -9.915  -5.549  0.00  0.00     0.275 HD
ENDBRANCH   1  28
TORSDOF 9
ENDMDL
MODEL 6
REMARK VINA RESULT:      -7.1      2.013      2.260
REMARK  9 active torsions:
REMARK  status: ('A' for Active; 'I' for Inactive)
REMARK    1  A    between atoms: C_1  and  C_31 
REMARK    2  A    between atoms: C_1  and  C_4 
REMARK    3  A    between atoms: C_1  and  N_25 
REMARK    4  A    between atoms: C_4  and  C_14 
REMARK    5  A    between atoms: C_6  and  C_11 
REMARK    6  A    between atoms: C_11  and  C_19 
REMARK    7  A    between atoms: C_11  and  N_20 
REMARK       I    between atoms: N_18  and  C_23 
REMARK    8  A    between atoms: C_19  and  C_29 
REMARK       I    between atoms: N_20  and  C_31 
REMARK    9  A    between atoms: C_23  and  C_29 
ROOT
HETATM    1  C           1     -21.326  -6.245  -5.466  0.00  0.00     0.278 C 
ENDROOT
BRANCH   1   2
HETATM    2  C           1     -20.222  -7.271  -5.542  0.00  0.00     0.249 C 
HETATM    3  O           1     -19.498  -7.310  -6.508  0.00  0.00    -0.271 OA
HETATM    4  N           1     -20.041  -8.158  -4.515  0.00  0.00    -0.345 N 
HETATM    5  H           1     -20.646  -8.125  -3.705  0.00  0.00     0.163 HD
BRANCH   4   6
HETATM    6  C           1     -18.980  -9.143  -4.587  0.00  0.00     0.186 C 
BRANCH   6   7
HETATM    7  C           1     -19.532 -10.435  -5.140  0.00  0.00     0.196 C 
HETATM    8  O           1     -20.226 -11.179  -4.414  0.00  0.00    -0.646 OA
HETATM    9  O           1     -19.295 -10.760  -6.323  0.00  0.00    -0.646 OA
ENDBRANCH   6   7
BRANCH   6  10
HETATM   10  C           1     -18.415  -9.388  -3.194  0.00  0.00     0.045 C 
BRANCH  10  11
HETATM   11  C           1     -16.907  -9.573  -3.283  0.00  0.00     0.105 C 
BRANCH  11  12
HETATM   12  C           1     -16.546 -10.979  -2.871  0.00  0.00     0.215 C 
HETATM   13  N           1     -15.244 -11.398  -2.935  0.00  0.00    -0.370 N 
HETATM   14  H           1     -14.524 -10.765  -3.258  0.00  0.00     0.159 HD
HETATM   15  H           1     -15.002 -12.341  -2.659  0.00  0.00     0.159 HD
HETATM   16  O           1     -17.405 -11.735  -2.485  0.00  0.00    -0.274 OA
ENDBRANCH  11  12
ENDBRANCH  10  11
ENDBRANCH   6  10
ENDBRANCH   4   6
ENDBRANCH   1   2
BRANCH   1  17
HETATM   17  C           1     -20.874  -4.960  -6.147  0.00  0.00     0.083 C 
BRANCH  17  18
HETATM   18  C           1     -21.821  -4.622  -7.256  0.00  0.00    -0.028 A 
HETATM   19  C           1     -21.481  -4.450  -8.626  0.00  0.00    -0.002 A 
HETATM   20  C           1     -22.660  -4.144  -9.307  0.00  0.00     0.042 A 
HETATM   21  C           1     -20.279  -4.527  -9.354  0.00  0.00     0.014 A 
HETATM   22  N           1     -23.673  -4.133  -8.375  0.00  0.00    -0.365 N 
HETATM   23  C           1     -22.697  -3.909 -10.687  0.00  0.00     0.030 A 
HETATM   24  C           1     -23.177  -4.420  -7.131  0.00  0.00     0.096 A 
HETATM   25  H           1     -24.682  -3.932  -8.587  0.00  0.00     0.165 HD
HETATM   26  C           1     -21.490  -3.991 -11.388  0.00  0.00     0.002 A 
HETATM   27  C           1     -20.298  -4.295 -10.735  0.00  0.00     0.001 A 
ENDBRANCH  17  18
ENDBRANCH   1  17
BRANCH   1  28
HETATM   28  N           1     -21.646  -5.961  -4.028  0.00  0.00    -0.066 N 
HETATM   29  H           1     -22.596  -5.531  -3.960  0.00  0.00     0.275 HD
HETATM   30  H           1     -21.629  -6.854  -3.485  0.00  0.00     0.275 HD
HETATM   31  H           1     -20.937  -5.301  -3.637  0.00  0.00     0.275 HD
ENDBRANCH   1  28
TORSDOF 9
ENDMDL
MODEL 7
REMARK VINA RESULT:      -7.1     14.267     17.605
REMARK  9 active torsions:
REMARK  status: ('A' for Active; 'I' for Inactive)
REMARK    1  A    between atoms: C_1  and  C_31 
REMARK    2  A    between atoms: C_1  and  C_4 
REMARK    3  A    between atoms: C_1  and  N_25 
REMARK    4  A    between atoms: C_4  and  C_14 
REMARK    5  A    between atoms: C_6  and  C_11 
REMARK    6  A    between atoms: C_11  and  C_19 
REMARK    7  A    between atoms: C_11  and  N_20 
REMARK       I    between atoms: N_18  and  C_23 
REMARK    8  A    between atoms: C_19  and  C_29 
REMARK       I    between atoms: N_20  and  C_31 
REMARK    9  A    between atoms: C_23  and  C_29 
ROOT
HETATM    1  C           1     -34.875  -1.464 -11.257  0.00  0.00     0.278 C 
ENDROOT
BRANCH   1   2
HETATM    2  C           1     -35.250  -0.457 -12.316  0.00  0.00     0.249 C 
HETATM    3  O           1     -35.321   0.716 -12.036  0.00  0.00    -0.271 OA
HETATM    4  N           1     -35.511  -0.873 -13.594  0.00  0.00    -0.345 N 
HETATM    5  H           1     -35.450  -1.855 -13.829  0.00  0.00     0.163 HD
BRANCH   4   6
HETATM    6  C           1     -35.870   0.095 -14.612  0.00  0.00     0.186 C 
BRANCH   6   7
HETATM    7  C           1     -37.347  -0.008 -14.903  0.00  0.00     0.196 C 
HETATM    8  O           1     -37.857   0.689 -15.806  0.00  0.00    -0.646 OA
HETATM    9  O           1     -38.061  -0.793 -14.241  0.00  0.00    -0.646 OA
ENDBRANCH   6   7
BRANCH   6  10
HETATM   10  C           1     -35.082  -0.186 -15.884  0.00  0.00     0.045 C 
BRANCH  10  11
HETATM   11  C           1     -35.640  -1.428 -16.564  0.00  0.00     0.105 C 
BRANCH  11  12
HETATM   12  C           1     -34.650  -2.560 -16.436  0.00  0.00     0.215 C 
HETATM   13  N           1     -33.777  -2.823 -17.457  0.00  0.00    -0.370 N 
HETATM   14  H           1     -33.795  -2.260 -18.297  0.00  0.00     0.159 HD
HETATM   15  H           1     -33.112  -3.583 -17.372  0.00  0.00     0.159 HD
HETATM   16  O           1     -34.628  -3.233 -15.434  0.00  0.00    -0.274 OA
ENDBRANCH  11  12
ENDBRANCH  10  11
ENDBRANCH   6  10
ENDBRANCH   4   6
ENDBRANCH   1   2
BRANCH   1  17
HETATM   17  C           1     -35.483  -2.817 -11.604  0.00  0.00     0.083 C 
BRANCH  17  18
HETATM   18  C           1     -34.412  -3.861 -11.608  0.00  0.00    -0.028 A 
HETATM   19  C           1     -34.477  -5.133 -10.974  0.00  0.00    -0.002 A 
HETATM   20  C           1     -33.268  -5.782 -11.228  0.00  0.00     0.042 A 
HETATM   21  C           1     -35.453  -5.795 -10.206  0.00  0.00     0.014 A 
HETATM   22  N           1     -32.503  -4.927 -11.990  0.00  0.00    -0.365 N 
HETATM   23  C           1     -32.985  -7.067 -10.751  0.00  0.00     0.030 A 
HETATM   24  C           1     -33.185  -3.762 -12.225  0.00  0.00     0.096 A 
HETATM   25  H           1     -31.535  -5.137 -12.340  0.00  0.00     0.165 HD
HETATM   26  C           1     -33.970  -7.705  -9.991  0.00  0.00     0.002 A 
HETATM   27  C           1     -35.186  -7.081  -9.721  0.00  0.00     0.001 A 
ENDBRANCH  17  18
ENDBRANCH   1  17
BRANCH   1  28
HETATM   28  N           1     -35.398  -1.008  -9.926  0.00  0.00    -0.066 N 
HETATM   29  H           1     -35.721  -0.017  -9.999  0.00  0.00     0.275 HD
HETATM   30  H           1     -36.198  -1.616  -9.640  0.00  0.00     0.275 HD
HETATM   31  H           1     -34.637  -1.075  -9.213  0.00  0.00     0.275 HD
ENDBRANCH   1  28
TORSDOF 9
ENDMDL
MODEL 8
REMARK VINA RESULT:      -6.8     13.444     15.149
REMARK  9 active torsions:
REMARK  status: ('A' for Active; 'I' for Inactive)
REMARK    1  A    between atoms: C_1  and  C_31 
REMARK    2  A    between atoms: C_1  and  C_4 
REMARK    3  A    between atoms: C_1  and  N_25 
REMARK    4  A    between atoms: C_4  and  C_14 
REMARK    5  A    between atoms: C_6  and  C_11 
REMARK    6  A    between atoms: C_11  and  C_19 
REMARK    7  A    between atoms: C_11  and  N_20 
REMARK       I    between atoms: N_18  and  C_23 
REMARK    8  A    between atoms: C_19  and  C_29 
REMARK       I    between atoms: N_20  and  C_31 
REMARK    9  A    between atoms: C_23  and  C_29 
ROOT
HETATM    1  C           1     -33.298  -4.532 -16.463  0.00  0.00     0.278 C 
ENDROOT
BRANCH   1   2
HETATM    2  C           1     -34.088  -4.589 -15.179  0.00  0.00     0.249 C 
HETATM    3  O           1     -35.159  -5.146 -15.152  0.00  0.00    -0.271 OA
HETATM    4  N           1     -33.590  -4.008 -14.043  0.00  0.00    -0.345 N 
HETATM    5  H           1     -32.692  -3.542 -14.065  0.00  0.00     0.163 HD
BRANCH   4   6
HETATM    6  C           1     -34.349  -4.063 -12.809  0.00  0.00     0.186 C 
BRANCH   6   7
HETATM    7  C           1     -34.682  -2.660 -12.362  0.00  0.00     0.196 C 
HETATM    8  O           1     -35.729  -2.108 -12.763  0.00  0.00    -0.646 OA
HETATM    9  O           1     -33.911  -2.051 -11.589  0.00  0.00    -0.646 OA
ENDBRANCH   6   7
BRANCH   6  10
HETATM   10  C           1     -33.523  -4.755 -11.733  0.00  0.00     0.045 C 
BRANCH  10  11
HETATM   11  C           1     -34.415  -5.098 -10.548  0.00  0.00     0.105 C 
BRANCH  11  12
HETATM   12  C           1     -34.365  -6.584 -10.293  0.00  0.00     0.215 C 
HETATM   13  N           1     -33.309  -7.322 -10.755  0.00  0.00    -0.370 N 
HETATM   14  H           1     -32.562  -6.872 -11.268  0.00  0.00     0.159 HD
HETATM   15  H           1     -33.275  -8.320 -10.585  0.00  0.00     0.159 HD
HETATM   16  O           1     -35.256  -7.123  -9.682  0.00  0.00    -0.274 OA
ENDBRANCH  11  12
ENDBRANCH  10  11
ENDBRANCH   6  10
ENDBRANCH   4   6
ENDBRANCH   1   2
BRANCH   1  17
HETATM   17  C           1     -31.810  -4.497 -16.144  0.00  0.00     0.083 C 
BRANCH  17  18
HETATM   18  C           1     -31.096  -5.519 -16.971  0.00  0.00    -0.028 A 
HETATM   19  C           1     -29.700  -5.551 -17.246  0.00  0.00    -0.002 A 
HETATM   20  C           1     -29.465  -6.666 -18.050  0.00  0.00     0.042 A 
HETATM   21  C           1     -28.613  -4.734 -16.884  0.00  0.00     0.014 A 
HETATM   22  N           1     -30.680  -7.283 -18.252  0.00  0.00    -0.365 N 
HETATM   23  C           1     -28.189  -7.008 -18.515  0.00  0.00     0.030 A 
HETATM   24  C           1     -31.673  -6.597 -17.604  0.00  0.00     0.096 A 
HETATM   25  H           1     -30.824  -8.153 -18.821  0.00  0.00     0.165 HD
HETATM   26  C           1     -27.124  -6.181 -18.142  0.00  0.00     0.002 A 
HETATM   27  C           1     -27.330  -5.061 -17.340  0.00  0.00     0.001 A 
ENDBRANCH  17  18
ENDBRANCH   1  17
BRANCH   1  28
HETATM   28  N           1     -33.675  -3.296 -17.227  0.00  0.00    -0.066 N 
HETATM   29  H           1     -34.163  -3.567 -18.110  0.00  0.00     0.275 HD
HETATM   30  H           1     -34.310  -2.707 -16.643  0.00  0.00     0.275 HD
HETATM   31  H           1     -32.812  -2.754 -17.458  0.00  0.00     0.275 HD
ENDBRANCH   1  28
TORSDOF 9
ENDMDL
MODEL 9
REMARK VINA RESULT:      -6.8      2.674      7.630
REMARK  9 active torsions:
REMARK  status: ('A' for Active; 'I' for Inactive)
REMARK    1  A    between atoms: C_1  and  C_31 
REMARK    2  A    between atoms: C_1  and  C_4 
REMARK    3  A    between atoms: C_1  and  N_25 
REMARK    4  A    between atoms: C_4  and  C_14 
REMARK    5  A    between atoms: C_6  and  C_11 
REMARK    6  A    between atoms: C_11  and  C_19 
REMARK    7  A    between atoms: C_11  and  N_20 
REMARK       I    between atoms: N_18  and  C_23 
REMARK    8  A    between atoms: C_19  and  C_29 
REMARK       I    between atoms: N_20  and  C_31 
REMARK    9  A    between atoms: C_23  and  C_29 
ROOT
HETATM    1  C           1     -20.842  -6.876  -4.522  0.00  0.00     0.278 C 
ENDROOT
BRANCH   1   2
HETATM    2  C           1     -21.159  -6.610  -5.972  0.00  0.00     0.249 C 
HETATM    3  O           1     -21.411  -7.529  -6.715  0.00  0.00    -0.271 OA
HETATM    4  N           1     -21.161  -5.325  -6.448  0.00  0.00    -0.345 N 
HETATM    5  H           1     -20.951  -4.555  -5.826  0.00  0.00     0.163 HD
BRANCH   4   6
HETATM    6  C           1     -21.466  -5.070  -7.842  0.00  0.00     0.186 C 
BRANCH   6   7
HETATM    7  C           1     -20.240  -4.526  -8.532  0.00  0.00     0.196 C 
HETATM    8  O           1     -19.931  -4.936  -9.672  0.00  0.00    -0.646 OA
HETATM    9  O           1     -19.533  -3.665  -7.965  0.00  0.00    -0.646 OA
ENDBRANCH   6   7
BRANCH   6  10
HETATM   10  C           1     -22.595  -4.052  -7.938  0.00  0.00     0.045 C 
BRANCH  10  11
HETATM   11  C           1     -22.802  -3.658  -9.394  0.00  0.00     0.105 C 
BRANCH  11  12
HETATM   12  C           1     -24.033  -4.345  -9.932  0.00  0.00     0.215 C 
HETATM   13  N           1     -25.273  -3.822  -9.680  0.00  0.00    -0.370 N 
HETATM   14  H           1     -25.364  -2.976  -9.133  0.00  0.00     0.159 HD
HETATM   15  H           1     -26.100  -4.282 -10.040  0.00  0.00     0.159 HD
HETATM   16  O           1     -23.925  -5.355 -10.585  0.00  0.00    -0.274 OA
ENDBRANCH  11  12
ENDBRANCH  10  11
ENDBRANCH   6  10
ENDBRANCH   4   6
ENDBRANCH   1   2
BRANCH   1  17
HETATM   17  C           1     -20.969  -8.367  -4.239  0.00  0.00     0.083 C 
BRANCH  17  18
HETATM   18  C           1     -19.685  -8.879  -3.667  0.00  0.00    -0.028 A 
HETATM   19  C           1     -18.529  -9.258  -4.406  0.00  0.00    -0.002 A 
HETATM   20  C           1     -17.569  -9.674  -3.483  0.00  0.00     0.042 A 
HETATM   21  C           1     -18.209  -9.285  -5.776  0.00  0.00     0.014 A 
HETATM   22  N           1     -18.130  -9.549  -2.232  0.00  0.00    -0.365 N 
HETATM   23  C           1     -16.297 -10.119  -3.864  0.00  0.00     0.030 A 
HETATM   24  C           1     -19.409  -9.069  -2.332  0.00  0.00     0.096 A 
HETATM   25  H           1     -17.647  -9.788  -1.330  0.00  0.00     0.165 HD
HETATM   26  C           1     -16.002 -10.137  -5.231  0.00  0.00     0.002 A 
HETATM   27  C           1     -16.942  -9.727  -6.175  0.00  0.00     0.001 A 
ENDBRANCH  17  18
ENDBRANCH   1  17
BRANCH   1  28
HETATM   28  N           1     -21.803  -6.119  -3.653  0.00  0.00    -0.066 N 
HETATM   29  H           1     -21.591  -5.097  -3.706  0.00  0.00     0.275 HD
HETATM   30  H           1     -22.779  -6.290  -3.984  0.00  0.00     0.275 HD
HETATM   31  H           1     -21.708  -6.444  -2.664  0.00  0.00     0.275 HD
ENDBRANCH   1  28
TORSDOF 9
ENDMDL
