MODEL 1
REMARK VINA RESULT:      -4.9      0.000      0.000
REMARK  8 active torsions:
REMARK  status: ('A' for Active; 'I' for Inactive)
REMARK    1  A    between atoms: S_5  and  C_6 
REMARK    2  A    between atoms: C_6  and  C_7 
REMARK    3  A    between atoms: C_7  and  C_8 
REMARK    4  A    between atoms: C_7  and  N_11 
REMARK       I    between atoms: N_11  and  C_12 
REMARK    5  A    between atoms: C_12  and  C_13 
REMARK    6  A    between atoms: C_13  and  C_14 
REMARK    7  A    between atoms: C_13  and  N_16 
REMARK    8  A    between atoms: C_14  and  Se_15 
ROOT
HETATM    1  H           1     -27.354  -7.009 -18.613  0.00  0.00     0.163 HD
HETATM    2  N           1     -26.468  -6.668 -18.262  0.00  0.00    -0.344 N 
HETATM    3  C           1     -25.323  -6.869 -18.985  0.00  0.00     0.249 C 
HETATM    4  O           1     -24.265  -6.463 -18.566  0.00  0.00    -0.271 OA
ENDROOT
BRANCH   3   5
HETATM    5  C           1     -25.382  -7.598 -20.305  0.00  0.00     0.274 C 
BRANCH   5   6
HETATM    6  C           1     -24.759  -6.732 -21.392  0.00  0.00     0.045 C 
BRANCH   6   7
HETATM    7 Se           1     -23.757  -7.858 -22.627  0.00  0.00     0.000 Se
HETATM    8  H           1     -22.528  -7.052 -22.548  0.00  0.00     0.000 HD
ENDBRANCH   6   7
ENDBRANCH   5   6
BRANCH   5   9
HETATM    9  N           1     -26.812  -7.884 -20.654  0.00  0.00    -0.067 N 
HETATM   10  H           1     -26.856  -8.369 -21.578  0.00  0.00     0.275 HD
HETATM   11  H           1     -27.234  -8.497 -19.920  0.00  0.00     0.275 HD
HETATM   12  H           1     -27.344  -6.986 -20.707  0.00  0.00     0.275 HD
ENDBRANCH   5   9
ENDBRANCH   3   5
BRANCH   2  13
HETATM   13  C           1     -26.412  -5.968 -16.994  0.00  0.00     0.194 C 
BRANCH  13  14
HETATM   14  C           1     -27.645  -5.088 -16.845  0.00  0.00     0.106 C 
BRANCH  14  15
HETATM   15  S           1     -28.762  -5.368 -18.249  0.00  0.00    -0.180 SA
HETATM   16  H           1     -27.794  -5.593 -19.156  0.00  0.00     0.101 HD
ENDBRANCH  14  15
ENDBRANCH  13  14
BRANCH  13  17
HETATM   17  C           1     -26.371  -6.972 -15.868  0.00  0.00     0.197 C 
HETATM   18  O           1     -25.272  -7.374 -15.429  0.00  0.00    -0.646 OA
HETATM   19  O           1     -27.436  -7.401 -15.375  0.00  0.00    -0.646 OA
ENDBRANCH  13  17
ENDBRANCH   2  13
TORSDOF 8
ENDMDL
MODEL 2
REMARK VINA RESULT:      -4.9      2.472      2.952
REMARK  8 active torsions:
REMARK  status: ('A' for Active; 'I' for Inactive)
REMARK    1  A    between atoms: S_5  and  C_6 
REMARK    2  A    between atoms: C_6  and  C_7 
REMARK    3  A    between atoms: C_7  and  C_8 
REMARK    4  A    between atoms: C_7  and  N_11 
REMARK       I    between atoms: N_11  and  C_12 
REMARK    5  A    between atoms: C_12  and  C_13 
REMARK    6  A    between atoms: C_13  and  C_14 
REMARK    7  A    between atoms: C_13  and  N_16 
REMARK    8  A    between atoms: C_14  and  Se_15 
ROOT
HETATM    1  H           1     -27.789  -6.973 -20.040  0.00  0.00     0.163 HD
HETATM    2  N           1     -27.609  -6.674 -19.090  0.00  0.00    -0.344 N 
HETATM    3  C           1     -26.321  -6.527 -18.650  0.00  0.00     0.249 C 
HETATM    4  O           1     -26.108  -6.172 -17.515  0.00  0.00    -0.271 OA
ENDROOT
BRANCH   3   5
HETATM    5  C           1     -25.169  -6.810 -19.582  0.00  0.00     0.274 C 
BRANCH   5   6
HETATM    6  C           1     -25.662  -7.631 -20.766  0.00  0.00     0.045 C 
BRANCH   6   7
HETATM    7 Se           1     -24.210  -7.870 -22.043  0.00  0.00     0.000 Se
HETATM    8  H           1     -24.934  -7.243 -23.160  0.00  0.00     0.000 HD
ENDBRANCH   6   7
ENDBRANCH   5   6
BRANCH   5   9
HETATM    9  N           1     -24.110  -7.578 -18.848  0.00  0.00    -0.067 N 
HETATM   10  H           1     -24.355  -7.628 -17.833  0.00  0.00     0.275 HD
HETATM   11  H           1     -24.049  -8.546 -19.238  0.00  0.00     0.275 HD
HETATM   12  H           1     -23.189  -7.097 -18.960  0.00  0.00     0.275 HD
ENDBRANCH   5   9
ENDBRANCH   3   5
BRANCH   2  13
HETATM   13  C           1     -28.717  -6.403 -18.194  0.00  0.00     0.194 C 
BRANCH  13  14
HETATM   14  C           1     -29.290  -5.026 -18.499  0.00  0.00     0.106 C 
BRANCH  14  15
HETATM   15  S           1     -28.809  -3.866 -17.188  0.00  0.00    -0.180 SA
HETATM   16  H           1     -29.835  -3.015 -17.369  0.00  0.00     0.101 HD
ENDBRANCH  14  15
ENDBRANCH  13  14
BRANCH  13  17
HETATM   17  C           1     -29.788  -7.449 -18.390  0.00  0.00     0.197 C 
HETATM   18  O           1     -30.903  -7.311 -17.844  0.00  0.00    -0.646 OA
HETATM   19  O           1     -29.558  -8.453 -19.099  0.00  0.00    -0.646 OA
ENDBRANCH  13  17
ENDBRANCH   2  13
TORSDOF 8
ENDMDL
MODEL 3
REMARK VINA RESULT:      -4.6      2.102      2.489
REMARK  8 active torsions:
REMARK  status: ('A' for Active; 'I' for Inactive)
REMARK    1  A    between atoms: S_5  and  C_6 
REMARK    2  A    between atoms: C_6  and  C_7 
REMARK    3  A    between atoms: C_7  and  C_8 
REMARK    4  A    between atoms: C_7  and  N_11 
REMARK       I    between atoms: N_11  and  C_12 
REMARK    5  A    between atoms: C_12  and  C_13 
REMARK    6  A    between atoms: C_13  and  C_14 
REMARK    7  A    between atoms: C_13  and  N_16 
REMARK    8  A    between atoms: C_14  and  Se_15 
ROOT
HETATM    1  H           1     -26.179  -6.745 -17.605  0.00  0.00     0.163 HD
HETATM    2  N           1     -26.796  -6.394 -18.327  0.00  0.00    -0.344 N 
HETATM    3  C           1     -26.397  -6.412 -19.637  0.00  0.00     0.249 C 
HETATM    4  O           1     -27.133  -5.993 -20.498  0.00  0.00    -0.271 OA
ENDROOT
BRANCH   3   5
HETATM    5  C           1     -25.038  -6.955 -20.004  0.00  0.00     0.274 C 
BRANCH   5   6
HETATM    6  C           1     -25.194  -8.057 -21.043  0.00  0.00     0.045 C 
BRANCH   6   7
HETATM    7 Se           1     -23.855  -7.830 -22.441  0.00  0.00     0.000 Se
HETATM    8  H           1     -24.794  -7.232 -23.404  0.00  0.00     0.000 HD
ENDBRANCH   6   7
ENDBRANCH   5   6
BRANCH   5   9
HETATM    9  N           1     -24.376  -7.514 -18.779  0.00  0.00    -0.067 N 
HETATM   10  H           1     -23.586  -8.136 -19.063  0.00  0.00     0.275 HD
HETATM   11  H           1     -24.007  -6.730 -18.195  0.00  0.00     0.275 HD
HETATM   12  H           1     -25.072  -8.064 -18.228  0.00  0.00     0.275 HD
ENDBRANCH   5   9
ENDBRANCH   3   5
BRANCH   2  13
HETATM   13  C           1     -28.102  -5.873 -17.973  0.00  0.00     0.194 C 
BRANCH  13  14
HETATM   14  C           1     -28.992  -7.014 -17.499  0.00  0.00     0.106 C 
BRANCH  14  15
HETATM   15  S           1     -30.688  -6.407 -17.276  0.00  0.00    -0.180 SA
HETATM   16  H           1     -30.623  -6.298 -15.936  0.00  0.00     0.101 HD
ENDBRANCH  14  15
ENDBRANCH  13  14
BRANCH  13  17
HETATM   17  C           1     -27.954  -4.856 -16.869  0.00  0.00     0.197 C 
HETATM   18  O           1     -28.307  -3.672 -17.058  0.00  0.00    -0.646 OA
HETATM   19  O           1     -27.477  -5.198 -15.765  0.00  0.00    -0.646 OA
ENDBRANCH  13  17
ENDBRANCH   2  13
TORSDOF 8
ENDMDL
MODEL 4
REMARK VINA RESULT:      -4.1      9.962     11.789
REMARK  8 active torsions:
REMARK  status: ('A' for Active; 'I' for Inactive)
REMARK    1  A    between atoms: S_5  and  C_6 
REMARK    2  A    between atoms: C_6  and  C_7 
REMARK    3  A    between atoms: C_7  and  C_8 
REMARK    4  A    between atoms: C_7  and  N_11 
REMARK       I    between atoms: N_11  and  C_12 
REMARK    5  A    between atoms: C_12  and  C_13 
REMARK    6  A    between atoms: C_13  and  C_14 
REMARK    7  A    between atoms: C_13  and  N_16 
REMARK    8  A    between atoms: C_14  and  Se_15 
ROOT
HETATM    1  H           1     -22.833  -3.625  -8.637  0.00  0.00     0.163 HD
HETATM    2  N           1     -22.128  -4.243  -9.018  0.00  0.00    -0.344 N 
HETATM    3  C           1     -21.221  -4.842  -8.186  0.00  0.00     0.249 C 
HETATM    4  O           1     -20.378  -5.579  -8.641  0.00  0.00    -0.271 OA
ENDROOT
BRANCH   3   5
HETATM    5  C           1     -21.272  -4.580  -6.701  0.00  0.00     0.274 C 
BRANCH   5   6
HETATM    6  C           1     -20.248  -5.459  -5.994  0.00  0.00     0.045 C 
BRANCH   6   7
HETATM    7 Se           1     -21.129  -6.483  -4.589  0.00  0.00     0.000 Se
HETATM    8  H           1     -21.554  -5.296  -3.830  0.00  0.00     0.000 HD
ENDBRANCH   6   7
ENDBRANCH   5   6
BRANCH   5   9
HETATM    9  N           1     -22.644  -4.898  -6.185  0.00  0.00    -0.067 N 
HETATM   10  H           1     -23.105  -5.586  -6.821  0.00  0.00     0.275 HD
HETATM   11  H           1     -22.569  -5.307  -5.226  0.00  0.00     0.275 HD
HETATM   12  H           1     -23.213  -4.022  -6.148  0.00  0.00     0.275 HD
ENDBRANCH   5   9
ENDBRANCH   3   5
BRANCH   2  13
HETATM   13  C           1     -22.080  -4.495 -10.445  0.00  0.00     0.194 C 
BRANCH  13  14
HETATM   14  C           1     -23.497  -4.539 -11.000  0.00  0.00     0.106 C 
BRANCH  14  15
HETATM   15  S           1     -24.616  -3.658  -9.876  0.00  0.00    -0.180 SA
HETATM   16  H           1     -25.681  -4.453 -10.086  0.00  0.00     0.101 HD
ENDBRANCH  14  15
ENDBRANCH  13  14
BRANCH  13  17
HETATM   17  C           1     -21.307  -3.390 -11.123  0.00  0.00     0.197 C 
HETATM   18  O           1     -21.916  -2.449 -11.675  0.00  0.00    -0.646 OA
HETATM   19  O           1     -20.057  -3.417 -11.132  0.00  0.00    -0.646 OA
ENDBRANCH  13  17
ENDBRANCH   2  13
TORSDOF 8
ENDMDL
MODEL 5
REMARK VINA RESULT:      -4.0     12.988     14.575
REMARK  8 active torsions:
REMARK  status: ('A' for Active; 'I' for Inactive)
REMARK    1  A    between atoms: S_5  and  C_6 
REMARK    2  A    between atoms: C_6  and  C_7 
REMARK    3  A    between atoms: C_7  and  C_8 
REMARK    4  A    between atoms: C_7  and  N_11 
REMARK       I    between atoms: N_11  and  C_12 
REMARK    5  A    between atoms: C_12  and  C_13 
REMARK    6  A    between atoms: C_13  and  C_14 
REMARK    7  A    between atoms: C_13  and  N_16 
REMARK    8  A    between atoms: C_14  and  Se_15 
ROOT
HETATM    1  H           1     -19.842  -6.838  -4.754  0.00  0.00     0.163 HD
HETATM    2  N           1     -20.845  -6.703  -4.779  0.00  0.00    -0.344 N 
HETATM    3  C           1     -21.392  -5.796  -5.647  0.00  0.00     0.249 C 
HETATM    4  O           1     -22.589  -5.635  -5.676  0.00  0.00    -0.271 OA
ENDROOT
BRANCH   3   5
HETATM    5  C           1     -20.500  -4.999  -6.567  0.00  0.00     0.274 C 
BRANCH   5   6
HETATM    6  C           1     -21.283  -3.827  -7.143  0.00  0.00     0.045 C 
BRANCH   6   7
HETATM    7 Se           1     -21.770  -4.213  -8.990  0.00  0.00     0.000 Se
HETATM    8  H           1     -23.005  -4.931  -8.637  0.00  0.00     0.000 HD
ENDBRANCH   6   7
ENDBRANCH   5   6
BRANCH   5   9
HETATM    9  N           1     -20.023  -5.878  -7.685  0.00  0.00    -0.067 N 
HETATM   10  H           1     -20.846  -6.252  -8.209  0.00  0.00     0.275 HD
HETATM   11  H           1     -19.422  -5.321  -8.333  0.00  0.00     0.275 HD
HETATM   12  H           1     -19.470  -6.673  -7.291  0.00  0.00     0.275 HD
ENDBRANCH   5   9
ENDBRANCH   3   5
BRANCH   2  13
HETATM   13  C           1     -21.701  -7.469  -3.895  0.00  0.00     0.194 C 
BRANCH  13  14
HETATM   14  C           1     -21.235  -8.918  -3.868  0.00  0.00     0.106 C 
BRANCH  14  15
HETATM   15  S           1     -19.616  -9.049  -4.678  0.00  0.00    -0.180 SA
HETATM   16  H           1     -19.934 -10.097  -5.460  0.00  0.00     0.101 HD
ENDBRANCH  14  15
ENDBRANCH  13  14
BRANCH  13  17
HETATM   17  C           1     -21.631  -6.891  -2.503  0.00  0.00     0.197 C 
HETATM   18  O           1     -22.322  -5.893  -2.205  0.00  0.00    -0.646 OA
HETATM   19  O           1     -20.881  -7.410  -1.648  0.00  0.00    -0.646 OA
ENDBRANCH  13  17
ENDBRANCH   2  13
TORSDOF 8
ENDMDL
MODEL 6
REMARK VINA RESULT:      -3.9     12.134     13.618
REMARK  8 active torsions:
REMARK  status: ('A' for Active; 'I' for Inactive)
REMARK    1  A    between atoms: S_5  and  C_6 
REMARK    2  A    between atoms: C_6  and  C_7 
REMARK    3  A    between atoms: C_7  and  C_8 
REMARK    4  A    between atoms: C_7  and  N_11 
REMARK       I    between atoms: N_11  and  C_12 
REMARK    5  A    between atoms: C_12  and  C_13 
REMARK    6  A    between atoms: C_13  and  C_14 
REMARK    7  A    between atoms: C_13  and  N_16 
REMARK    8  A    between atoms: C_14  and  Se_15 
ROOT
HETATM    1  H           1     -21.431  -7.462  -6.933  0.00  0.00     0.163 HD
HETATM    2  N           1     -20.968  -6.841  -6.282  0.00  0.00    -0.344 N 
HETATM    3  C           1     -20.802  -5.519  -6.598  0.00  0.00     0.249 C 
HETATM    4  O           1     -20.248  -4.777  -5.821  0.00  0.00    -0.271 OA
ENDROOT
BRANCH   3   5
HETATM    5  C           1     -21.311  -4.988  -7.916  0.00  0.00     0.274 C 
BRANCH   5   6
HETATM    6  C           1     -20.141  -4.461  -8.737  0.00  0.00     0.045 C 
BRANCH   6   7
HETATM    7 Se           1     -20.720  -4.154 -10.572  0.00  0.00     0.000 Se
HETATM    8  H           1     -20.532  -2.695 -10.510  0.00  0.00     0.000 HD
ENDBRANCH   6   7
ENDBRANCH   5   6
BRANCH   5   9
HETATM    9  N           1     -22.285  -3.876  -7.664  0.00  0.00    -0.067 N 
HETATM   10  H           1     -22.648  -3.945  -6.686  0.00  0.00     0.275 HD
HETATM   11  H           1     -21.804  -2.957  -7.792  0.00  0.00     0.275 HD
HETATM   12  H           1     -23.081  -3.951  -8.336  0.00  0.00     0.275 HD
ENDBRANCH   5   9
ENDBRANCH   3   5
BRANCH   2  13
HETATM   13  C           1     -20.479  -7.351  -5.016  0.00  0.00     0.194 C 
BRANCH  13  14
HETATM   14  C           1     -21.653  -7.572  -4.072  0.00  0.00     0.106 C 
BRANCH  14  15
HETATM   15  S           1     -21.619  -6.319  -2.759  0.00  0.00    -0.180 SA
HETATM   16  H           1     -20.688  -5.537  -3.335  0.00  0.00     0.101 HD
ENDBRANCH  14  15
ENDBRANCH  13  14
BRANCH  13  17
HETATM   17  C           1     -19.763  -8.660  -5.245  0.00  0.00     0.197 C 
HETATM   18  O           1     -18.836  -8.727  -6.081  0.00  0.00    -0.646 OA
HETATM   19  O           1     -20.098  -9.676  -4.599  0.00  0.00    -0.646 OA
ENDBRANCH  13  17
ENDBRANCH   2  13
TORSDOF 8
ENDMDL
MODEL 7
REMARK VINA RESULT:      -3.7     15.038     16.593
REMARK  8 active torsions:
REMARK  status: ('A' for Active; 'I' for Inactive)
REMARK    1  A    between atoms: S_5  and  C_6 
REMARK    2  A    between atoms: C_6  and  C_7 
REMARK    3  A    between atoms: C_7  and  C_8 
REMARK    4  A    between atoms: C_7  and  N_11 
REMARK       I    between atoms: N_11  and  C_12 
REMARK    5  A    between atoms: C_12  and  C_13 
REMARK    6  A    between atoms: C_13  and  C_14 
REMARK    7  A    between atoms: C_13  and  N_16 
REMARK    8  A    between atoms: C_14  and  Se_15 
ROOT
HETATM    1  H           1     -20.311  -7.044  -2.352  0.00  0.00     0.163 HD
HETATM    2  N           1     -20.938  -7.815  -2.544  0.00  0.00    -0.344 N 
HETATM    3  C           1     -20.994  -8.356  -3.800  0.00  0.00     0.249 C 
HETATM    4  O           1     -21.742  -9.276  -4.029  0.00  0.00    -0.271 OA
ENDROOT
BRANCH   3   5
HETATM    5  C           1     -20.122  -7.801  -4.900  0.00  0.00     0.274 C 
BRANCH   5   6
HETATM    6  C           1     -20.967  -6.952  -5.840  0.00  0.00     0.045 C 
BRANCH   6   7
HETATM    7 Se           1     -20.448  -5.081  -5.673  0.00  0.00     0.000 Se
HETATM    8  H           1     -20.728  -5.011  -4.230  0.00  0.00     0.000 HD
ENDBRANCH   6   7
ENDBRANCH   5   6
BRANCH   5   9
HETATM    9  N           1     -19.506  -8.933  -5.667  0.00  0.00    -0.067 N 
HETATM   10  H           1     -19.663  -9.829  -5.154  0.00  0.00     0.275 HD
HETATM   11  H           1     -19.946  -8.993  -6.613  0.00  0.00     0.275 HD
HETATM   12  H           1     -18.479  -8.766  -5.770  0.00  0.00     0.275 HD
ENDBRANCH   5   9
ENDBRANCH   3   5
BRANCH   2  13
HETATM   13  C           1     -21.775  -8.348  -1.487  0.00  0.00     0.194 C 
BRANCH  13  14
HETATM   14  C           1     -20.906  -9.068  -0.465  0.00  0.00     0.106 C 
BRANCH  14  15
HETATM   15  S           1     -21.566 -10.734  -0.175  0.00  0.00    -0.180 SA
HETATM   16  H           1     -21.045 -10.879   1.057  0.00  0.00     0.101 HD
ENDBRANCH  14  15
ENDBRANCH  13  14
BRANCH  13  17
HETATM   17  C           1     -22.513  -7.216  -0.813  0.00  0.00     0.197 C 
HETATM   18  O           1     -22.392  -6.049  -1.241  0.00  0.00    -0.646 OA
HETATM   19  O           1     -23.246  -7.448   0.173  0.00  0.00    -0.646 OA
ENDBRANCH  13  17
ENDBRANCH   2  13
TORSDOF 8
ENDMDL
MODEL 8
REMARK VINA RESULT:      -3.6     15.926     17.584
REMARK  8 active torsions:
REMARK  status: ('A' for Active; 'I' for Inactive)
REMARK    1  A    between atoms: S_5  and  C_6 
REMARK    2  A    between atoms: C_6  and  C_7 
REMARK    3  A    between atoms: C_7  and  C_8 
REMARK    4  A    between atoms: C_7  and  N_11 
REMARK       I    between atoms: N_11  and  C_12 
REMARK    5  A    between atoms: C_12  and  C_13 
REMARK    6  A    between atoms: C_13  and  C_14 
REMARK    7  A    between atoms: C_13  and  N_16 
REMARK    8  A    between atoms: C_14  and  Se_15 
ROOT
HETATM    1  H           1     -21.550  -9.765  -2.046  0.00  0.00     0.163 HD
HETATM    2  N           1     -21.851  -8.961  -1.510  0.00  0.00    -0.344 N 
HETATM    3  C           1     -21.700  -7.701  -2.023  0.00  0.00     0.249 C 
HETATM    4  O           1     -22.058  -6.741  -1.383  0.00  0.00    -0.271 OA
ENDROOT
BRANCH   3   5
HETATM    5  C           1     -21.084  -7.511  -3.388  0.00  0.00     0.274 C 
BRANCH   5   6
HETATM    6  C           1     -21.394  -6.108  -3.893  0.00  0.00     0.045 C 
BRANCH   6   7
HETATM    7 Se           1     -21.057  -6.018  -5.811  0.00  0.00     0.000 Se
HETATM    8  H           1     -21.355  -4.581  -5.914  0.00  0.00     0.000 HD
ENDBRANCH   6   7
ENDBRANCH   5   6
BRANCH   5   9
HETATM    9  N           1     -21.655  -8.521  -4.338  0.00  0.00    -0.067 N 
HETATM   10  H           1     -22.693  -8.406  -4.387  0.00  0.00     0.275 HD
HETATM   11  H           1     -21.245  -8.376  -5.288  0.00  0.00     0.275 HD
HETATM   12  H           1     -21.427  -9.484  -4.001  0.00  0.00     0.275 HD
ENDBRANCH   5   9
ENDBRANCH   3   5
BRANCH   2  13
HETATM   13  C           1     -22.442  -9.145  -0.199  0.00  0.00     0.194 C 
BRANCH  13  14
HETATM   14  C           1     -23.406 -10.323  -0.238  0.00  0.00     0.106 C 
BRANCH  14  15
HETATM   15  S           1     -23.188 -11.233  -1.793  0.00  0.00    -0.180 SA
HETATM   16  H           1     -24.345 -10.835  -2.352  0.00  0.00     0.101 HD
ENDBRANCH  14  15
ENDBRANCH  13  14
BRANCH  13  17
HETATM   17  C           1     -21.352  -9.418   0.809  0.00  0.00     0.197 C 
HETATM   18  O           1     -20.979  -8.514   1.586  0.00  0.00    -0.646 OA
HETATM   19  O           1     -20.823 -10.549   0.866  0.00  0.00    -0.646 OA
ENDBRANCH  13  17
ENDBRANCH   2  13
TORSDOF 8
ENDMDL
MODEL 9
REMARK VINA RESULT:      -3.5     13.254     14.344
REMARK  8 active torsions:
REMARK  status: ('A' for Active; 'I' for Inactive)
REMARK    1  A    between atoms: S_5  and  C_6 
REMARK    2  A    between atoms: C_6  and  C_7 
REMARK    3  A    between atoms: C_7  and  C_8 
REMARK    4  A    between atoms: C_7  and  N_11 
REMARK       I    between atoms: N_11  and  C_12 
REMARK    5  A    between atoms: C_12  and  C_13 
REMARK    6  A    between atoms: C_13  and  C_14 
REMARK    7  A    between atoms: C_13  and  N_16 
REMARK    8  A    between atoms: C_14  and  Se_15 
ROOT
HETATM    1  H           1     -21.729  -8.615  -6.375  0.00  0.00     0.163 HD
HETATM    2  N           1     -21.038  -8.225  -5.747  0.00  0.00    -0.344 N 
HETATM    3  C           1     -20.212  -9.056  -5.039  0.00  0.00     0.249 C 
HETATM    4  O           1     -19.387  -8.590  -4.288  0.00  0.00    -0.271 OA
ENDROOT
BRANCH   3   5
HETATM    5  C           1     -20.331 -10.552  -5.195  0.00  0.00     0.274 C 
BRANCH   5   6
HETATM    6  C           1     -18.943 -11.159  -5.353  0.00  0.00     0.045 C 
BRANCH   6   7
HETATM    7 Se           1     -18.815 -12.050  -7.081  0.00  0.00     0.000 Se
HETATM    8  H           1     -17.493 -12.637  -6.811  0.00  0.00     0.000 HD
ENDBRANCH   6   7
ENDBRANCH   5   6
BRANCH   5   9
HETATM    9  N           1     -21.153 -10.862  -6.411  0.00  0.00    -0.067 N 
HETATM   10  H           1     -21.495  -9.972  -6.837  0.00  0.00     0.275 HD
HETATM   11  H           1     -20.566 -11.377  -7.105  0.00  0.00     0.275 HD
HETATM   12  H           1     -21.970 -11.453  -6.137  0.00  0.00     0.275 HD
ENDBRANCH   5   9
ENDBRANCH   3   5
BRANCH   2  13
HETATM   13  C           1     -20.924  -6.787  -5.598  0.00  0.00     0.194 C 
BRANCH  13  14
HETATM   14  C           1     -21.033  -6.125  -6.964  0.00  0.00     0.106 C 
BRANCH  14  15
HETATM   15  S           1     -20.353  -4.445  -6.879  0.00  0.00    -0.180 SA
HETATM   16  H           1     -19.181  -4.737  -7.470  0.00  0.00     0.101 HD
ENDBRANCH  14  15
ENDBRANCH  13  14
BRANCH  13  17
HETATM   17  C           1     -22.032  -6.286  -4.704  0.00  0.00     0.197 C 
HETATM   18  O           1     -21.801  -6.039  -3.501  0.00  0.00    -0.646 OA
HETATM   19  O           1     -23.181  -6.119  -5.168  0.00  0.00    -0.646 OA
ENDBRANCH  13  17
ENDBRANCH   2  13
TORSDOF 8
ENDMDL
