MODEL 1
REMARK VINA RESULT:      -6.2      0.000      0.000
REMARK  7 active torsions:
REMARK  status: ('A' for Active; 'I' for Inactive)
REMARK    1  A    between atoms: C_3  and  C_15 
REMARK       I    between atoms: C_6  and  N_22 
REMARK    2  A    between atoms: C_6  and  C_15 
REMARK       I    between atoms: C_11  and  N_12 
REMARK    3  A    between atoms: C_11  and  C_13 
REMARK    4  A    between atoms: C_13  and  C_14 
REMARK    5  A    between atoms: C_14  and  C_19 
REMARK    6  A    between atoms: C_14  and  N_22 
REMARK    7  A    between atoms: C_15  and  N_16 
ROOT
HETATM    1  C           1     -22.062  -4.170  -7.605  0.00  0.00     0.249 C 
HETATM    2  O           1     -21.430  -3.141  -7.642  0.00  0.00    -0.271 OA
HETATM    3  H           1     -23.374  -5.394  -8.637  0.00  0.00     0.163 HD
HETATM    4  N           1     -22.843  -4.533  -8.669  0.00  0.00    -0.344 N 
ENDROOT
BRANCH   4   5
HETATM    5  C           1     -22.909  -3.683  -9.842  0.00  0.00     0.194 C 
BRANCH   5   6
HETATM    6  C           1     -22.216  -4.375 -11.009  0.00  0.00     0.138 C 
BRANCH   6   7
HETATM    7  C           1     -20.742  -4.050 -10.982  0.00  0.00     0.217 C 
HETATM    8  O           1     -19.967  -4.805 -10.446  0.00  0.00    -0.274 OA
HETATM    9  N           1     -20.285  -2.899 -11.566  0.00  0.00    -0.370 N 
HETATM   10  H           1     -20.935  -2.266 -12.015  0.00  0.00     0.159 HD
HETATM   11  H           1     -19.297  -2.681 -11.549  0.00  0.00     0.159 HD
ENDBRANCH   6   7
ENDBRANCH   5   6
BRANCH   5  12
HETATM   12  C           1     -24.354  -3.425 -10.195  0.00  0.00     0.197 C 
HETATM   13  O           1     -24.794  -3.766 -11.314  0.00  0.00    -0.646 OA
HETATM   14  O           1     -25.109  -2.869  -9.369  0.00  0.00    -0.646 OA
ENDBRANCH   5  12
ENDBRANCH   4   5
BRANCH   1  15
HETATM   15  C           1     -21.993  -5.055  -6.384  0.00  0.00     0.278 C 
BRANCH  15  16
HETATM   16  C           1     -21.194  -6.309  -6.711  0.00  0.00     0.017 C 
HETATM   17  C           1     -19.730  -5.943  -6.907  0.00  0.00     0.012 C 
HETATM   18  C           1     -21.319  -7.303  -5.563  0.00  0.00     0.012 C 
ENDBRANCH  15  16
BRANCH  15  19
HETATM   19  N           1     -23.381  -5.441  -5.968  0.00  0.00    -0.066 N 
HETATM   20  H           1     -23.776  -6.119  -6.658  0.00  0.00     0.275 HD
HETATM   21  H           1     -23.984  -4.587  -5.932  0.00  0.00     0.275 HD
HETATM   22  H           1     -23.351  -5.884  -5.022  0.00  0.00     0.275 HD
ENDBRANCH  15  19
ENDBRANCH   1  15
TORSDOF 7
ENDMDL
MODEL 2
REMARK VINA RESULT:      -6.1     12.250     14.202
REMARK  7 active torsions:
REMARK  status: ('A' for Active; 'I' for Inactive)
REMARK    1  A    between atoms: C_3  and  C_15 
REMARK       I    between atoms: C_6  and  N_22 
REMARK    2  A    between atoms: C_6  and  C_15 
REMARK       I    between atoms: C_11  and  N_12 
REMARK    3  A    between atoms: C_11  and  C_13 
REMARK    4  A    between atoms: C_13  and  C_14 
REMARK    5  A    between atoms: C_14  and  C_19 
REMARK    6  A    between atoms: C_14  and  N_22 
REMARK    7  A    between atoms: C_15  and  N_16 
ROOT
HETATM    1  C           1     -34.364  -2.421 -12.445  0.00  0.00     0.249 C 
HETATM    2  O           1     -34.499  -3.085 -13.445  0.00  0.00    -0.271 OA
HETATM    3  H           1     -34.937  -0.688 -11.468  0.00  0.00     0.163 HD
HETATM    4  N           1     -35.051  -1.245 -12.306  0.00  0.00    -0.344 N 
ENDROOT
BRANCH   4   5
HETATM    5  C           1     -35.940  -0.797 -13.360  0.00  0.00     0.194 C 
BRANCH   5   6
HETATM    6  C           1     -37.114  -0.044 -12.745  0.00  0.00     0.138 C 
BRANCH   6   7
HETATM    7  C           1     -37.157  -0.307 -11.260  0.00  0.00     0.217 C 
HETATM    8  O           1     -37.640  -1.333 -10.841  0.00  0.00    -0.274 OA
HETATM    9  N           1     -36.649   0.617 -10.386  0.00  0.00    -0.370 N 
HETATM   10  H           1     -36.244   1.476 -10.737  0.00  0.00     0.159 HD
HETATM   11  H           1     -36.678   0.441  -9.390  0.00  0.00     0.159 HD
ENDBRANCH   6   7
ENDBRANCH   5   6
BRANCH   5  12
HETATM   12  C           1     -35.190   0.118 -14.296  0.00  0.00     0.197 C 
HETATM   13  O           1     -34.886   1.274 -13.931  0.00  0.00    -0.646 OA
HETATM   14  O           1     -34.872  -0.280 -15.438  0.00  0.00    -0.646 OA
ENDBRANCH   5  12
ENDBRANCH   4   5
BRANCH   1  15
HETATM   15  C           1     -33.438  -2.888 -11.348  0.00  0.00     0.278 C 
BRANCH  15  16
HETATM   16  C           1     -34.038  -4.108 -10.661  0.00  0.00     0.017 C 
HETATM   17  C           1     -35.548  -4.112 -10.860  0.00  0.00     0.012 C 
HETATM   18  C           1     -33.444  -5.373 -11.265  0.00  0.00     0.012 C 
ENDBRANCH  15  16
BRANCH  15  19
HETATM   19  N           1     -33.259  -1.788 -10.345  0.00  0.00    -0.066 N 
HETATM   20  H           1     -33.612  -0.890 -10.745  0.00  0.00     0.275 HD
HETATM   21  H           1     -32.244  -1.693 -10.112  0.00  0.00     0.275 HD
HETATM   22  H           1     -33.794  -2.016  -9.477  0.00  0.00     0.275 HD
ENDBRANCH  15  19
ENDBRANCH   1  15
TORSDOF 7
ENDMDL
MODEL 3
REMARK VINA RESULT:      -5.9     12.566     15.056
REMARK  7 active torsions:
REMARK  status: ('A' for Active; 'I' for Inactive)
REMARK    1  A    between atoms: C_3  and  C_15 
REMARK       I    between atoms: C_6  and  N_22 
REMARK    2  A    between atoms: C_6  and  C_15 
REMARK       I    between atoms: C_11  and  N_12 
REMARK    3  A    between atoms: C_11  and  C_13 
REMARK    4  A    between atoms: C_13  and  C_14 
REMARK    5  A    between atoms: C_14  and  C_19 
REMARK    6  A    between atoms: C_14  and  N_22 
REMARK    7  A    between atoms: C_15  and  N_16 
ROOT
HETATM    1  C           1     -36.030  -0.839 -13.262  0.00  0.00     0.249 C 
HETATM    2  O           1     -37.030  -1.106 -12.639  0.00  0.00    -0.271 OA
HETATM    3  H           1     -34.003  -1.209 -13.457  0.00  0.00     0.163 HD
HETATM    4  N           1     -34.841  -1.433 -12.936  0.00  0.00    -0.344 N 
ENDROOT
BRANCH   4   5
HETATM    5  C           1     -34.783  -2.385 -11.843  0.00  0.00     0.194 C 
BRANCH   5   6
HETATM    6  C           1     -33.758  -3.465 -12.166  0.00  0.00     0.138 C 
BRANCH   6   7
HETATM    7  C           1     -34.284  -4.339 -13.279  0.00  0.00     0.217 C 
HETATM    8  O           1     -34.268  -3.940 -14.420  0.00  0.00    -0.274 OA
HETATM    9  N           1     -34.778  -5.584 -12.996  0.00  0.00    -0.370 N 
HETATM   10  H           1     -34.792  -5.919 -12.041  0.00  0.00     0.159 HD
HETATM   11  H           1     -35.130  -6.170 -13.742  0.00  0.00     0.159 HD
ENDBRANCH   6   7
ENDBRANCH   5   6
BRANCH   5  12
HETATM   12  C           1     -34.379  -1.671 -10.576  0.00  0.00     0.197 C 
HETATM   13  O           1     -35.247  -1.117  -9.867  0.00  0.00    -0.646 OA
HETATM   14  O           1     -33.177  -1.633 -10.236  0.00  0.00    -0.646 OA
ENDBRANCH   5  12
ENDBRANCH   4   5
BRANCH   1  15
HETATM   15  C           1     -36.091   0.152 -14.399  0.00  0.00     0.278 C 
BRANCH  15  16
HETATM   16  C           1     -37.034  -0.369 -15.476  0.00  0.00     0.017 C 
HETATM   17  C           1     -38.017   0.727 -15.863  0.00  0.00     0.012 C 
HETATM   18  C           1     -36.227  -0.782 -16.699  0.00  0.00     0.012 C 
ENDBRANCH  15  16
BRANCH  15  19
HETATM   19  N           1     -34.719   0.329 -14.980  0.00  0.00    -0.066 N 
HETATM   20  H           1     -34.198   1.049 -14.430  0.00  0.00     0.275 HD
HETATM   21  H           1     -34.801   0.641 -15.975  0.00  0.00     0.275 HD
HETATM   22  H           1     -34.204  -0.579 -14.942  0.00  0.00     0.275 HD
ENDBRANCH  15  19
ENDBRANCH   1  15
TORSDOF 7
ENDMDL
MODEL 4
REMARK VINA RESULT:      -5.8      1.565      3.039
REMARK  7 active torsions:
REMARK  status: ('A' for Active; 'I' for Inactive)
REMARK    1  A    between atoms: C_3  and  C_15 
REMARK       I    between atoms: C_6  and  N_22 
REMARK    2  A    between atoms: C_6  and  C_15 
REMARK       I    between atoms: C_11  and  N_12 
REMARK    3  A    between atoms: C_11  and  C_13 
REMARK    4  A    between atoms: C_13  and  C_14 
REMARK    5  A    between atoms: C_14  and  C_19 
REMARK    6  A    between atoms: C_14  and  N_22 
REMARK    7  A    between atoms: C_15  and  N_16 
ROOT
HETATM    1  C           1     -21.558  -4.821  -8.269  0.00  0.00     0.249 C 
HETATM    2  O           1     -20.656  -5.564  -8.575  0.00  0.00    -0.271 OA
HETATM    3  H           1     -23.102  -3.642  -8.985  0.00  0.00     0.163 HD
HETATM    4  N           1     -22.347  -4.265  -9.241  0.00  0.00    -0.344 N 
ENDROOT
BRANCH   4   5
HETATM    5  C           1     -22.098  -4.570 -10.637  0.00  0.00     0.194 C 
BRANCH   5   6
HETATM    6  C           1     -23.425  -4.644 -11.382  0.00  0.00     0.138 C 
BRANCH   6   7
HETATM    7  C           1     -24.515  -4.043 -10.529  0.00  0.00     0.217 C 
HETATM    8  O           1     -24.799  -2.875 -10.646  0.00  0.00    -0.274 OA
HETATM    9  N           1     -25.182  -4.822  -9.621  0.00  0.00    -0.370 N 
HETATM   10  H           1     -24.944  -5.801  -9.523  0.00  0.00     0.159 HD
HETATM   11  H           1     -25.913  -4.419  -9.049  0.00  0.00     0.159 HD
ENDBRANCH   6   7
ENDBRANCH   5   6
BRANCH   5  12
HETATM   12  C           1     -21.239  -3.488 -11.243  0.00  0.00     0.197 C 
HETATM   13  O           1     -21.771  -2.460 -11.716  0.00  0.00    -0.646 OA
HETATM   14  O           1     -19.997  -3.619 -11.273  0.00  0.00    -0.646 OA
ENDBRANCH   5  12
ENDBRANCH   4   5
BRANCH   1  15
HETATM   15  C           1     -21.816  -4.504  -6.817  0.00  0.00     0.278 C 
BRANCH  15  16
HETATM   16  C           1     -21.076  -5.505  -5.939  0.00  0.00     0.017 C 
HETATM   17  C           1     -20.095  -4.766  -5.041  0.00  0.00     0.012 C 
HETATM   18  C           1     -22.079  -6.263  -5.079  0.00  0.00     0.012 C 
ENDBRANCH  15  16
BRANCH  15  19
HETATM   19  N           1     -23.288  -4.590  -6.540  0.00  0.00    -0.066 N 
HETATM   20  H           1     -23.740  -3.677  -6.774  0.00  0.00     0.275 HD
HETATM   21  H           1     -23.439  -4.806  -5.529  0.00  0.00     0.275 HD
HETATM   22  H           1     -23.709  -5.347  -7.125  0.00  0.00     0.275 HD
ENDBRANCH  15  19
ENDBRANCH   1  15
TORSDOF 7
ENDMDL
MODEL 5
REMARK VINA RESULT:      -5.7      2.943      4.903
REMARK  7 active torsions:
REMARK  status: ('A' for Active; 'I' for Inactive)
REMARK    1  A    between atoms: C_3  and  C_15 
REMARK       I    between atoms: C_6  and  N_22 
REMARK    2  A    between atoms: C_6  and  C_15 
REMARK       I    between atoms: C_11  and  N_12 
REMARK    3  A    between atoms: C_11  and  C_13 
REMARK    4  A    between atoms: C_13  and  C_14 
REMARK    5  A    between atoms: C_14  and  C_19 
REMARK    6  A    between atoms: C_14  and  N_22 
REMARK    7  A    between atoms: C_15  and  N_16 
ROOT
HETATM    1  C           1     -21.466  -6.472  -4.262  0.00  0.00     0.249 C 
HETATM    2  O           1     -22.039  -7.355  -4.855  0.00  0.00    -0.271 OA
HETATM    3  H           1     -20.469  -4.668  -4.455  0.00  0.00     0.163 HD
HETATM    4  N           1     -20.949  -5.408  -4.952  0.00  0.00    -0.344 N 
ENDROOT
BRANCH   4   5
HETATM    5  C           1     -21.090  -5.342  -6.394  0.00  0.00     0.194 C 
BRANCH   5   6
HETATM    6  C           1     -21.528  -3.939  -6.795  0.00  0.00     0.138 C 
BRANCH   6   7
HETATM    7  C           1     -22.443  -4.022  -7.993  0.00  0.00     0.217 C 
HETATM    8  O           1     -21.983  -3.969  -9.109  0.00  0.00    -0.274 OA
HETATM    9  N           1     -23.794  -4.157  -7.815  0.00  0.00    -0.370 N 
HETATM   10  H           1     -24.179  -4.201  -6.880  0.00  0.00     0.159 HD
HETATM   11  H           1     -24.407  -4.212  -8.618  0.00  0.00     0.159 HD
ENDBRANCH   6   7
ENDBRANCH   5   6
BRANCH   5  12
HETATM   12  C           1     -19.766  -5.661  -7.043  0.00  0.00     0.197 C 
HETATM   13  O           1     -19.371  -6.845  -7.107  0.00  0.00    -0.646 OA
HETATM   14  O           1     -19.064  -4.742  -7.516  0.00  0.00    -0.646 OA
ENDBRANCH   5  12
ENDBRANCH   4   5
BRANCH   1  15
HETATM   15  C           1     -21.320  -6.541  -2.762  0.00  0.00     0.278 C 
BRANCH  15  16
HETATM   16  C           1     -21.359  -7.996  -2.314  0.00  0.00     0.017 C 
HETATM   17  C           1     -19.941  -8.542  -2.236  0.00  0.00     0.012 C 
HETATM   18  C           1     -22.014  -8.087  -0.942  0.00  0.00     0.012 C 
ENDBRANCH  15  16
BRANCH  15  19
HETATM   19  N           1     -22.446  -5.789  -2.115  0.00  0.00    -0.066 N 
HETATM   20  H           1     -22.601  -4.890  -2.624  0.00  0.00     0.275 HD
HETATM   21  H           1     -22.203  -5.591  -1.118  0.00  0.00     0.275 HD
HETATM   22  H           1     -23.316  -6.365  -2.153  0.00  0.00     0.275 HD
ENDBRANCH  15  19
ENDBRANCH   1  15
TORSDOF 7
ENDMDL
MODEL 6
REMARK VINA RESULT:      -5.3      3.639      6.660
REMARK  7 active torsions:
REMARK  status: ('A' for Active; 'I' for Inactive)
REMARK    1  A    between atoms: C_3  and  C_15 
REMARK       I    between atoms: C_6  and  N_22 
REMARK    2  A    between atoms: C_6  and  C_15 
REMARK       I    between atoms: C_11  and  N_12 
REMARK    3  A    between atoms: C_11  and  C_13 
REMARK    4  A    between atoms: C_13  and  C_14 
REMARK    5  A    between atoms: C_14  and  C_19 
REMARK    6  A    between atoms: C_14  and  N_22 
REMARK    7  A    between atoms: C_15  and  N_16 
ROOT
HETATM    1  C           1     -20.995  -5.689  -6.290  0.00  0.00     0.249 C 
HETATM    2  O           1     -20.841  -4.971  -5.331  0.00  0.00    -0.271 OA
HETATM    3  H           1     -20.875  -7.634  -6.990  0.00  0.00     0.163 HD
HETATM    4  N           1     -20.747  -7.032  -6.186  0.00  0.00    -0.344 N 
ENDROOT
BRANCH   4   5
HETATM    5  C           1     -20.301  -7.590  -4.925  0.00  0.00     0.194 C 
BRANCH   5   6
HETATM    6  C           1     -21.512  -7.972  -4.083  0.00  0.00     0.138 C 
BRANCH   6   7
HETATM    7  C           1     -21.486  -7.202  -2.785  0.00  0.00     0.217 C 
HETATM    8  O           1     -20.810  -7.594  -1.864  0.00  0.00    -0.274 OA
HETATM    9  N           1     -22.228  -6.059  -2.653  0.00  0.00    -0.370 N 
HETATM   10  H           1     -22.794  -5.730  -3.425  0.00  0.00     0.159 HD
HETATM   11  H           1     -22.210  -5.543  -1.783  0.00  0.00     0.159 HD
ENDBRANCH   6   7
ENDBRANCH   5   6
BRANCH   5  12
HETATM   12  C           1     -19.462  -8.818  -5.187  0.00  0.00     0.197 C 
HETATM   13  O           1     -18.666  -8.837  -6.150  0.00  0.00    -0.646 OA
HETATM   14  O           1     -19.565  -9.816  -4.441  0.00  0.00    -0.646 OA
ENDBRANCH   5  12
ENDBRANCH   4   5
BRANCH   1  15
HETATM   15  C           1     -21.460  -5.107  -7.602  0.00  0.00     0.278 C 
BRANCH  15  16
HETATM   16  C           1     -20.282  -5.019  -8.564  0.00  0.00     0.017 C 
HETATM   17  C           1     -20.734  -4.363  -9.861  0.00  0.00     0.012 C 
HETATM   18  C           1     -19.174  -4.187  -7.933  0.00  0.00     0.012 C 
ENDBRANCH  15  16
BRANCH  15  19
HETATM   19  N           1     -22.019  -3.735  -7.370  0.00  0.00    -0.066 N 
HETATM   20  H           1     -21.379  -3.023  -7.788  0.00  0.00     0.275 HD
HETATM   21  H           1     -22.108  -3.565  -6.342  0.00  0.00     0.275 HD
HETATM   22  H           1     -22.961  -3.662  -7.817  0.00  0.00     0.275 HD
ENDBRANCH  15  19
ENDBRANCH   1  15
TORSDOF 7
ENDMDL
MODEL 7
REMARK VINA RESULT:      -5.2      4.954      8.074
REMARK  7 active torsions:
REMARK  status: ('A' for Active; 'I' for Inactive)
REMARK    1  A    between atoms: C_3  and  C_15 
REMARK       I    between atoms: C_6  and  N_22 
REMARK    2  A    between atoms: C_6  and  C_15 
REMARK       I    between atoms: C_11  and  N_12 
REMARK    3  A    between atoms: C_11  and  C_13 
REMARK    4  A    between atoms: C_13  and  C_14 
REMARK    5  A    between atoms: C_14  and  C_19 
REMARK    6  A    between atoms: C_14  and  N_22 
REMARK    7  A    between atoms: C_15  and  N_16 
ROOT
HETATM    1  C           1     -20.749  -7.681  -4.700  0.00  0.00     0.249 C 
HETATM    2  O           1     -19.660  -8.181  -4.855  0.00  0.00    -0.271 OA
HETATM    3  H           1     -22.340  -7.452  -3.396  0.00  0.00     0.163 HD
HETATM    4  N           1     -21.428  -7.870  -3.526  0.00  0.00    -0.344 N 
ENDROOT
BRANCH   4   5
HETATM    5  C           1     -20.838  -8.669  -2.469  0.00  0.00     0.194 C 
BRANCH   5   6
HETATM    6  C           1     -20.796  -7.855  -1.182  0.00  0.00     0.138 C 
BRANCH   6   7
HETATM    7  C           1     -22.161  -7.268  -0.913  0.00  0.00     0.217 C 
HETATM    8  O           1     -22.519  -6.276  -1.502  0.00  0.00    -0.274 OA
HETATM    9  N           1     -22.994  -7.862  -0.002  0.00  0.00    -0.370 N 
HETATM   10  H           1     -22.694  -8.693   0.491  0.00  0.00     0.159 HD
HETATM   11  H           1     -23.908  -7.469   0.178  0.00  0.00     0.159 HD
ENDBRANCH   6   7
ENDBRANCH   5   6
BRANCH   5  12
HETATM   12  C           1     -21.671  -9.910  -2.253  0.00  0.00     0.197 C 
HETATM   13  O           1     -22.407 -10.335  -3.169  0.00  0.00    -0.646 OA
HETATM   14  O           1     -21.625 -10.511  -1.158  0.00  0.00    -0.646 OA
ENDBRANCH   5  12
ENDBRANCH   4   5
BRANCH   1  15
HETATM   15  C           1     -21.361  -6.849  -5.799  0.00  0.00     0.278 C 
BRANCH  15  16
HETATM   16  C           1     -20.309  -5.909  -6.372  0.00  0.00     0.017 C 
HETATM   17  C           1     -20.729  -5.463  -7.765  0.00  0.00     0.012 C 
HETATM   18  C           1     -20.172  -4.691  -5.468  0.00  0.00     0.012 C 
ENDBRANCH  15  16
BRANCH  15  19
HETATM   19  N           1     -22.499  -6.045  -5.243  0.00  0.00    -0.066 N 
HETATM   20  H           1     -22.369  -5.039  -5.493  0.00  0.00     0.275 HD
HETATM   21  H           1     -22.520  -6.148  -4.203  0.00  0.00     0.275 HD
HETATM   22  H           1     -23.399  -6.391  -5.644  0.00  0.00     0.275 HD
ENDBRANCH  15  19
ENDBRANCH   1  15
TORSDOF 7
ENDMDL
MODEL 8
REMARK VINA RESULT:      -5.2     18.039     20.036
REMARK  7 active torsions:
REMARK  status: ('A' for Active; 'I' for Inactive)
REMARK    1  A    between atoms: C_3  and  C_15 
REMARK       I    between atoms: C_6  and  N_22 
REMARK    2  A    between atoms: C_6  and  C_15 
REMARK       I    between atoms: C_11  and  N_12 
REMARK    3  A    between atoms: C_11  and  C_13 
REMARK    4  A    between atoms: C_13  and  C_14 
REMARK    5  A    between atoms: C_14  and  C_19 
REMARK    6  A    between atoms: C_14  and  N_22 
REMARK    7  A    between atoms: C_15  and  N_16 
ROOT
HETATM    1  C           1     -12.640   6.496 -20.524  0.00  0.00     0.249 C 
HETATM    2  O           1     -13.335   6.548 -19.537  0.00  0.00    -0.271 OA
HETATM    3  H           1     -11.265   7.516 -21.688  0.00  0.00     0.163 HD
HETATM    4  N           1     -11.846   7.559 -20.861  0.00  0.00    -0.344 N 
ENDROOT
BRANCH   4   5
HETATM    5  C           1     -11.839   8.749 -20.030  0.00  0.00     0.194 C 
BRANCH   5   6
HETATM    6  C           1     -10.406   9.079 -19.633  0.00  0.00     0.138 C 
BRANCH   6   7
HETATM    7  C           1      -9.454   8.479 -20.638  0.00  0.00     0.217 C 
HETATM    8  O           1      -9.085   7.335 -20.513  0.00  0.00    -0.274 OA
HETATM    9  N           1      -9.008   9.230 -21.693  0.00  0.00    -0.370 N 
HETATM   10  H           1      -9.317  10.188 -21.798  0.00  0.00     0.159 HD
HETATM   11  H           1      -8.370   8.828 -22.367  0.00  0.00     0.159 HD
ENDBRANCH   6   7
ENDBRANCH   5   6
BRANCH   5  12
HETATM   12  C           1     -12.427   9.904 -20.802  0.00  0.00     0.197 C 
HETATM   13  O           1     -13.663   9.978 -20.972  0.00  0.00    -0.646 OA
HETATM   14  O           1     -11.678  10.787 -21.273  0.00  0.00    -0.646 OA
ENDBRANCH   5  12
ENDBRANCH   4   5
BRANCH   1  15
HETATM   15  C           1     -12.648   5.258 -21.388  0.00  0.00     0.278 C 
BRANCH  15  16
HETATM   16  C           1     -12.456   4.027 -20.512  0.00  0.00     0.017 C 
HETATM   17  C           1     -12.923   2.790 -21.266  0.00  0.00     0.012 C 
HETATM   18  C           1     -10.981   3.880 -20.161  0.00  0.00     0.012 C 
ENDBRANCH  15  16
BRANCH  15  19
HETATM   19  N           1     -11.532   5.339 -22.387  0.00  0.00    -0.066 N 
HETATM   20  H           1     -11.205   4.375 -22.623  0.00  0.00     0.275 HD
HETATM   21  H           1     -10.740   5.887 -21.979  0.00  0.00     0.275 HD
HETATM   22  H           1     -11.873   5.814 -23.253  0.00  0.00     0.275 HD
ENDBRANCH  15  19
ENDBRANCH   1  15
TORSDOF 7
ENDMDL
MODEL 9
REMARK VINA RESULT:      -5.2      3.887      6.505
REMARK  7 active torsions:
REMARK  status: ('A' for Active; 'I' for Inactive)
REMARK    1  A    between atoms: C_3  and  C_15 
REMARK       I    between atoms: C_6  and  N_22 
REMARK    2  A    between atoms: C_6  and  C_15 
REMARK       I    between atoms: C_11  and  N_12 
REMARK    3  A    between atoms: C_11  and  C_13 
REMARK    4  A    between atoms: C_13  and  C_14 
REMARK    5  A    between atoms: C_14  and  C_19 
REMARK    6  A    between atoms: C_14  and  N_22 
REMARK    7  A    between atoms: C_15  and  N_16 
ROOT
HETATM    1  C           1     -21.664  -5.722  -5.498  0.00  0.00     0.249 C 
HETATM    2  O           1     -22.856  -5.917  -5.526  0.00  0.00    -0.271 OA
HETATM    3  H           1     -19.873  -6.287  -4.628  0.00  0.00     0.163 HD
HETATM    4  N           1     -20.871  -6.450  -4.652  0.00  0.00    -0.344 N 
ENDROOT
BRANCH   4   5
HETATM    5  C           1     -21.463  -7.455  -3.790  0.00  0.00     0.194 C 
BRANCH   5   6
HETATM    6  C           1     -20.561  -8.683  -3.751  0.00  0.00     0.138 C 
BRANCH   6   7
HETATM    7  C           1     -20.261  -9.132  -5.160  0.00  0.00     0.217 C 
HETATM    8  O           1     -21.157  -9.240  -5.964  0.00  0.00    -0.274 OA
HETATM    9  N           1     -18.973  -9.416  -5.528  0.00  0.00    -0.370 N 
HETATM   10  H           1     -18.223  -9.325  -4.855  0.00  0.00     0.159 HD
HETATM   11  H           1     -18.772  -9.716  -6.473  0.00  0.00     0.159 HD
ENDBRANCH   6   7
ENDBRANCH   5   6
BRANCH   5  12
HETATM   12  C           1     -21.615  -6.896  -2.397  0.00  0.00     0.197 C 
HETATM   13  O           1     -20.994  -7.415  -1.444  0.00  0.00    -0.646 OA
HETATM   14  O           1     -22.363  -5.916  -2.195  0.00  0.00    -0.646 OA
ENDBRANCH   5  12
ENDBRANCH   4   5
BRANCH   1  15
HETATM   15  C           1     -21.048  -4.677  -6.395  0.00  0.00     0.278 C 
BRANCH  15  16
HETATM   16  C           1     -21.391  -4.986  -7.846  0.00  0.00     0.017 C 
HETATM   17  C           1     -22.416  -3.981  -8.352  0.00  0.00     0.012 C 
HETATM   18  C           1     -20.130  -4.896  -8.695  0.00  0.00     0.012 C 
ENDBRANCH  15  16
BRANCH  15  19
HETATM   19  N           1     -19.559  -4.684  -6.221  0.00  0.00    -0.066 N 
HETATM   20  H           1     -19.138  -3.915  -6.790  0.00  0.00     0.275 HD
HETATM   21  H           1     -19.176  -5.604  -6.539  0.00  0.00     0.275 HD
HETATM   22  H           1     -19.324  -4.540  -5.213  0.00  0.00     0.275 HD
ENDBRANCH  15  19
ENDBRANCH   1  15
TORSDOF 7
ENDMDL
