MODEL 1
REMARK VINA RESULT:      -5.5      0.000      0.000
REMARK  8 active torsions:
REMARK  status: ('A' for Active; 'I' for Inactive)
REMARK    1  A    between atoms: N_1  and  C_6 
REMARK    2  A    between atoms: C_5  and  C_6 
REMARK    3  A    between atoms: C_5  and  O_12 
REMARK    4  A    between atoms: C_6  and  C_8 
REMARK    5  A    between atoms: O_7  and  C_14 
REMARK       I    between atoms: C_8  and  N_11 
REMARK    6  A    between atoms: N_11  and  C_17 
REMARK    7  A    between atoms: C_14  and  C_17 
REMARK    8  A    between atoms: C_17  and  C_18 
ROOT
HETATM    1  C           1     -35.436  -1.119 -12.892  0.00  0.00     0.251 C 
HETATM    2  N           1     -34.997  -0.512 -14.038  0.00  0.00    -0.343 N 
HETATM    3  H           1     -34.005  -0.402 -14.204  0.00  0.00     0.163 HD
HETATM    4  O           1     -36.620  -1.252 -12.694  0.00  0.00    -0.271 OA
ENDROOT
BRANCH   1   5
HETATM    5  C           1     -34.440  -1.623 -11.876  0.00  0.00     0.297 C 
BRANCH   5   6
HETATM    6  N           1     -35.055  -1.579 -10.509  0.00  0.00    -0.064 N 
HETATM    7  H           1     -36.054  -1.282 -10.587  0.00  0.00     0.275 HD
HETATM    8  H           1     -35.007  -2.529 -10.075  0.00  0.00     0.275 HD
HETATM    9  H           1     -34.534  -0.896  -9.914  0.00  0.00     0.275 HD
ENDBRANCH   5   6
BRANCH   5  10
HETATM   10  C           1     -34.054  -3.057 -12.213  0.00  0.00     0.206 C 
BRANCH  10  11
HETATM   11  O           1     -34.396  -3.334 -13.544  0.00  0.00    -0.398 OA
HETATM   12  H           1     -33.636  -3.142 -14.068  0.00  0.00     0.209 HD
ENDBRANCH  10  11
ENDBRANCH   5  10
ENDBRANCH   1   5
BRANCH   2  13
HETATM   13  C           1     -35.953  -0.027 -15.014  0.00  0.00     0.209 C 
BRANCH  13  14
HETATM   14  C           1     -35.570   1.383 -15.443  0.00  0.00     0.200 C 
BRANCH  14  15
HETATM   15  O           1     -36.642   1.971 -16.129  0.00  0.00    -0.398 OA
HETATM   16  H           1     -36.984   2.649 -15.573  0.00  0.00     0.209 HD
ENDBRANCH  14  15
ENDBRANCH  13  14
BRANCH  13  17
HETATM   17  C           1     -35.948  -0.939 -16.217  0.00  0.00     0.198 C 
HETATM   18  O           1     -36.736  -0.727 -17.164  0.00  0.00    -0.646 OA
HETATM   19  O           1     -35.157  -1.905 -16.266  0.00  0.00    -0.646 OA
ENDBRANCH  13  17
ENDBRANCH   2  13
TORSDOF 8
ENDMDL
MODEL 2
REMARK VINA RESULT:      -5.2     12.600     14.440
REMARK  8 active torsions:
REMARK  status: ('A' for Active; 'I' for Inactive)
REMARK    1  A    between atoms: N_1  and  C_6 
REMARK    2  A    between atoms: C_5  and  C_6 
REMARK    3  A    between atoms: C_5  and  O_12 
REMARK    4  A    between atoms: C_6  and  C_8 
REMARK    5  A    between atoms: O_7  and  C_14 
REMARK       I    between atoms: C_8  and  N_11 
REMARK    6  A    between atoms: N_11  and  C_17 
REMARK    7  A    between atoms: C_14  and  C_17 
REMARK    8  A    between atoms: C_17  and  C_18 
ROOT
HETATM    1  C           1     -21.748  -4.361  -7.898  0.00  0.00     0.251 C 
HETATM    2  N           1     -22.291  -4.818  -9.069  0.00  0.00    -0.343 N 
HETATM    3  H           1     -22.388  -5.812  -9.229  0.00  0.00     0.163 HD
HETATM    4  O           1     -21.634  -3.174  -7.708  0.00  0.00    -0.271 OA
ENDROOT
BRANCH   1   5
HETATM    5  C           1     -21.294  -5.342  -6.845  0.00  0.00     0.297 C 
BRANCH   5   6
HETATM    6  N           1     -20.220  -4.713  -6.008  0.00  0.00    -0.064 N 
HETATM    7  H           1     -19.694  -5.459  -5.498  0.00  0.00     0.275 HD
HETATM    8  H           1     -19.563  -4.184  -6.624  0.00  0.00     0.275 HD
HETATM    9  H           1     -20.654  -4.060  -5.317  0.00  0.00     0.275 HD
ENDBRANCH   5   6
BRANCH   5  10
HETATM   10  C           1     -22.474  -5.716  -5.958  0.00  0.00     0.206 C 
BRANCH  10  11
HETATM   11  O           1     -23.605  -4.987  -6.351  0.00  0.00    -0.398 OA
HETATM   12  H           1     -24.354  -5.426  -5.985  0.00  0.00     0.209 HD
ENDBRANCH  10  11
ENDBRANCH   5  10
ENDBRANCH   1   5
BRANCH   2  13
HETATM   13  C           1     -22.727  -3.876 -10.082  0.00  0.00     0.209 C 
BRANCH  13  14
HETATM   14  C           1     -22.039  -4.195 -11.403  0.00  0.00     0.200 C 
BRANCH  14  15
HETATM   15  O           1     -22.982  -4.693 -12.314  0.00  0.00    -0.398 OA
HETATM   16  H           1     -23.721  -4.111 -12.286  0.00  0.00     0.209 HD
ENDBRANCH  14  15
ENDBRANCH  13  14
BRANCH  13  17
HETATM   17  C           1     -24.223  -3.982 -10.254  0.00  0.00     0.198 C 
HETATM   18  O           1     -24.847  -3.084 -10.860  0.00  0.00    -0.646 OA
HETATM   19  O           1     -24.837  -4.967  -9.792  0.00  0.00    -0.646 OA
ENDBRANCH  13  17
ENDBRANCH   2  13
TORSDOF 8
ENDMDL
MODEL 3
REMARK VINA RESULT:      -5.1      9.412     10.963
REMARK  8 active torsions:
REMARK  status: ('A' for Active; 'I' for Inactive)
REMARK    1  A    between atoms: N_1  and  C_6 
REMARK    2  A    between atoms: C_5  and  C_6 
REMARK    3  A    between atoms: C_5  and  O_12 
REMARK    4  A    between atoms: C_6  and  C_8 
REMARK    5  A    between atoms: O_7  and  C_14 
REMARK       I    between atoms: C_8  and  N_11 
REMARK    6  A    between atoms: N_11  and  C_17 
REMARK    7  A    between atoms: C_14  and  C_17 
REMARK    8  A    between atoms: C_17  and  C_18 
ROOT
HETATM    1  C           1     -28.646  -6.095 -17.952  0.00  0.00     0.251 C 
HETATM    2  N           1     -27.608  -6.834 -17.450  0.00  0.00    -0.343 N 
HETATM    3  H           1     -27.728  -7.825 -17.283  0.00  0.00     0.163 HD
HETATM    4  O           1     -28.502  -4.912 -18.152  0.00  0.00    -0.271 OA
ENDROOT
BRANCH   1   5
HETATM    5  C           1     -29.967  -6.757 -18.254  0.00  0.00     0.297 C 
BRANCH   5   6
HETATM    6  N           1     -29.778  -8.244 -18.314  0.00  0.00    -0.064 N 
HETATM    7  H           1     -29.117  -8.480 -19.088  0.00  0.00     0.275 HD
HETATM    8  H           1     -29.387  -8.582 -17.406  0.00  0.00     0.275 HD
HETATM    9  H           1     -30.700  -8.705 -18.491  0.00  0.00     0.275 HD
ENDBRANCH   5   6
BRANCH   5  10
HETATM   10  C           1     -30.968  -6.417 -17.158  0.00  0.00     0.206 C 
BRANCH  10  11
HETATM   11  O           1     -30.297  -5.822 -16.080  0.00  0.00    -0.398 OA
HETATM   12  H           1     -30.419  -6.387 -15.336  0.00  0.00     0.209 HD
ENDBRANCH  10  11
ENDBRANCH   5  10
ENDBRANCH   1   5
BRANCH   2  13
HETATM   13  C           1     -26.338  -6.199 -17.159  0.00  0.00     0.209 C 
BRANCH  13  14
HETATM   14  C           1     -25.882  -6.591 -15.760  0.00  0.00     0.200 C 
BRANCH  14  15
HETATM   15  O           1     -24.815  -5.771 -15.368  0.00  0.00    -0.398 OA
HETATM   16  H           1     -24.546  -5.289 -16.131  0.00  0.00     0.209 HD
ENDBRANCH  14  15
ENDBRANCH  13  14
BRANCH  13  17
HETATM   17  C           1     -25.310  -6.647 -18.169  0.00  0.00     0.198 C 
HETATM   18  O           1     -25.602  -6.681 -19.384  0.00  0.00    -0.646 OA
HETATM   19  O           1     -24.168  -6.984 -17.791  0.00  0.00    -0.646 OA
ENDBRANCH  13  17
ENDBRANCH   2  13
TORSDOF 8
ENDMDL
MODEL 4
REMARK VINA RESULT:      -5.0      7.755      9.534
REMARK  8 active torsions:
REMARK  status: ('A' for Active; 'I' for Inactive)
REMARK    1  A    between atoms: N_1  and  C_6 
REMARK    2  A    between atoms: C_5  and  C_6 
REMARK    3  A    between atoms: C_5  and  O_12 
REMARK    4  A    between atoms: C_6  and  C_8 
REMARK    5  A    between atoms: O_7  and  C_14 
REMARK       I    between atoms: C_8  and  N_11 
REMARK    6  A    between atoms: N_11  and  C_17 
REMARK    7  A    between atoms: C_14  and  C_17 
REMARK    8  A    between atoms: C_17  and  C_18 
ROOT
HETATM    1  C           1     -30.119  -5.315 -17.120  0.00  0.00     0.251 C 
HETATM    2  N           1     -28.755  -5.199 -17.153  0.00  0.00    -0.343 N 
HETATM    3  H           1     -28.322  -4.291 -17.043  0.00  0.00     0.163 HD
HETATM    4  O           1     -30.636  -6.400 -17.249  0.00  0.00    -0.271 OA
ENDROOT
BRANCH   1   5
HETATM    5  C           1     -30.976  -4.089 -16.921  0.00  0.00     0.297 C 
BRANCH   5   6
HETATM    6  N           1     -30.777  -3.149 -18.072  0.00  0.00    -0.064 N 
HETATM    7  H           1     -31.703  -2.777 -18.383  0.00  0.00     0.275 HD
HETATM    8  H           1     -30.166  -2.356 -17.772  0.00  0.00     0.275 HD
HETATM    9  H           1     -30.323  -3.659 -18.864  0.00  0.00     0.275 HD
ENDBRANCH   5   6
BRANCH   5  10
HETATM   10  C           1     -32.441  -4.501 -16.850  0.00  0.00     0.206 C 
BRANCH  10  11
HETATM   11  O           1     -33.244  -3.458 -17.334  0.00  0.00    -0.398 OA
HETATM   12  H           1     -33.822  -3.210 -16.633  0.00  0.00     0.209 HD
ENDBRANCH  10  11
ENDBRANCH   5  10
ENDBRANCH   1   5
BRANCH   2  13
HETATM   13  C           1     -27.931  -6.376 -17.344  0.00  0.00     0.209 C 
BRANCH  13  14
HETATM   14  C           1     -27.310  -6.342 -18.733  0.00  0.00     0.200 C 
BRANCH  14  15
HETATM   15  O           1     -25.977  -6.772 -18.662  0.00  0.00    -0.398 OA
HETATM   16  H           1     -25.680  -6.595 -17.787  0.00  0.00     0.209 HD
ENDBRANCH  14  15
ENDBRANCH  13  14
BRANCH  13  17
HETATM   17  C           1     -26.838  -6.397 -16.303  0.00  0.00     0.198 C 
HETATM   18  O           1     -26.732  -7.373 -15.528  0.00  0.00    -0.646 OA
HETATM   19  O           1     -26.039  -5.441 -16.216  0.00  0.00    -0.646 OA
ENDBRANCH  13  17
ENDBRANCH   2  13
TORSDOF 8
ENDMDL
MODEL 5
REMARK VINA RESULT:      -5.0      1.674      4.723
REMARK  8 active torsions:
REMARK  status: ('A' for Active; 'I' for Inactive)
REMARK    1  A    between atoms: N_1  and  C_6 
REMARK    2  A    between atoms: C_5  and  C_6 
REMARK    3  A    between atoms: C_5  and  O_12 
REMARK    4  A    between atoms: C_6  and  C_8 
REMARK    5  A    between atoms: O_7  and  C_14 
REMARK       I    between atoms: C_8  and  N_11 
REMARK    6  A    between atoms: N_11  and  C_17 
REMARK    7  A    between atoms: C_14  and  C_17 
REMARK    8  A    between atoms: C_17  and  C_18 
ROOT
HETATM    1  C           1     -35.827  -0.823 -13.224  0.00  0.00     0.251 C 
HETATM    2  N           1     -34.691  -1.570 -13.062  0.00  0.00    -0.343 N 
HETATM    3  H           1     -33.817  -1.256 -13.464  0.00  0.00     0.163 HD
HETATM    4  O           1     -36.870  -1.197 -12.743  0.00  0.00    -0.271 OA
ENDROOT
BRANCH   1   5
HETATM    5  C           1     -35.776   0.469 -14.003  0.00  0.00     0.297 C 
BRANCH   5   6
HETATM    6  N           1     -34.508   1.199 -13.674  0.00  0.00    -0.064 N 
HETATM    7  H           1     -33.687   0.604 -13.927  0.00  0.00     0.275 HD
HETATM    8  H           1     -34.470   2.092 -14.216  0.00  0.00     0.275 HD
HETATM    9  H           1     -34.483   1.410 -12.651  0.00  0.00     0.275 HD
ENDBRANCH   5   6
BRANCH   5  10
HETATM   10  C           1     -35.813   0.163 -15.494  0.00  0.00     0.206 C 
BRANCH  10  11
HETATM   11  O           1     -35.888  -1.223 -15.687  0.00  0.00    -0.398 OA
HETATM   12  H           1     -35.043  -1.577 -15.468  0.00  0.00     0.209 HD
ENDBRANCH  10  11
ENDBRANCH   5  10
ENDBRANCH   1   5
BRANCH   2  13
HETATM   13  C           1     -34.740  -2.811 -12.314  0.00  0.00     0.209 C 
BRANCH  13  14
HETATM   14  C           1     -34.180  -3.941 -13.167  0.00  0.00     0.200 C 
BRANCH  14  15
HETATM   15  O           1     -34.337  -3.626 -14.524  0.00  0.00    -0.398 OA
HETATM   16  H           1     -33.486  -3.692 -14.920  0.00  0.00     0.209 HD
ENDBRANCH  14  15
ENDBRANCH  13  14
BRANCH  13  17
HETATM   17  C           1     -33.916  -2.672 -11.057  0.00  0.00     0.198 C 
HETATM   18  O           1     -33.634  -3.684 -10.380  0.00  0.00    -0.646 OA
HETATM   19  O           1     -33.516  -1.546 -10.693  0.00  0.00    -0.646 OA
ENDBRANCH  13  17
ENDBRANCH   2  13
TORSDOF 8
ENDMDL
MODEL 6
REMARK VINA RESULT:      -4.9      8.542     10.213
REMARK  8 active torsions:
REMARK  status: ('A' for Active; 'I' for Inactive)
REMARK    1  A    between atoms: N_1  and  C_6 
REMARK    2  A    between atoms: C_5  and  C_6 
REMARK    3  A    between atoms: C_5  and  O_12 
REMARK    4  A    between atoms: C_6  and  C_8 
REMARK    5  A    between atoms: O_7  and  C_14 
REMARK       I    between atoms: C_8  and  N_11 
REMARK    6  A    between atoms: N_11  and  C_17 
REMARK    7  A    between atoms: C_14  and  C_17 
REMARK    8  A    between atoms: C_17  and  C_18 
ROOT
HETATM    1  C           1     -29.150  -6.394 -18.228  0.00  0.00     0.251 C 
HETATM    2  N           1     -28.327  -6.713 -17.182  0.00  0.00    -0.343 N 
HETATM    3  H           1     -28.351  -7.643 -16.784  0.00  0.00     0.163 HD
HETATM    4  O           1     -29.120  -5.284 -18.703  0.00  0.00    -0.271 OA
ENDROOT
BRANCH   1   5
HETATM    5  C           1     -30.095  -7.429 -18.787  0.00  0.00     0.297 C 
BRANCH   5   6
HETATM    6  N           1     -29.420  -8.768 -18.796  0.00  0.00    -0.064 N 
HETATM    7  H           1     -29.778  -9.333 -19.599  0.00  0.00     0.275 HD
HETATM    8  H           1     -28.388  -8.637 -18.895  0.00  0.00     0.275 HD
HETATM    9  H           1     -29.625  -9.267 -17.901  0.00  0.00     0.275 HD
ENDBRANCH   5   6
BRANCH   5  10
HETATM   10  C           1     -31.344  -7.497 -17.918  0.00  0.00     0.206 C 
BRANCH  10  11
HETATM   11  O           1     -31.296  -6.487 -16.947  0.00  0.00    -0.398 OA
HETATM   12  H           1     -30.600  -6.711 -16.353  0.00  0.00     0.209 HD
ENDBRANCH  10  11
ENDBRANCH   5  10
ENDBRANCH   1   5
BRANCH   2  13
HETATM   13  C           1     -27.418  -5.719 -16.644  0.00  0.00     0.209 C 
BRANCH  13  14
HETATM   14  C           1     -28.146  -4.874 -15.608  0.00  0.00     0.200 C 
BRANCH  14  15
HETATM   15  O           1     -29.092  -5.663 -14.939  0.00  0.00    -0.398 OA
HETATM   16  H           1     -29.454  -5.132 -14.251  0.00  0.00     0.209 HD
ENDBRANCH  14  15
ENDBRANCH  13  14
BRANCH  13  17
HETATM   17  C           1     -26.244  -6.411 -15.995  0.00  0.00     0.198 C 
HETATM   18  O           1     -26.420  -7.471 -15.355  0.00  0.00    -0.646 OA
HETATM   19  O           1     -25.098  -5.926 -16.096  0.00  0.00    -0.646 OA
ENDBRANCH  13  17
ENDBRANCH   2  13
TORSDOF 8
ENDMDL
MODEL 7
REMARK VINA RESULT:      -4.9     10.349     11.635
REMARK  8 active torsions:
REMARK  status: ('A' for Active; 'I' for Inactive)
REMARK    1  A    between atoms: N_1  and  C_6 
REMARK    2  A    between atoms: C_5  and  C_6 
REMARK    3  A    between atoms: C_5  and  O_12 
REMARK    4  A    between atoms: C_6  and  C_8 
REMARK    5  A    between atoms: O_7  and  C_14 
REMARK       I    between atoms: C_8  and  N_11 
REMARK    6  A    between atoms: N_11  and  C_17 
REMARK    7  A    between atoms: C_14  and  C_17 
REMARK    8  A    between atoms: C_17  and  C_18 
ROOT
HETATM    1  C           1     -26.392  -6.369 -19.941  0.00  0.00     0.251 C 
HETATM    2  N           1     -27.023  -6.543 -18.738  0.00  0.00    -0.343 N 
HETATM    3  H           1     -26.581  -7.088 -18.009  0.00  0.00     0.163 HD
HETATM    4  O           1     -26.920  -5.718 -20.811  0.00  0.00    -0.271 OA
ENDROOT
BRANCH   1   5
HETATM    5  C           1     -25.038  -6.991 -20.179  0.00  0.00     0.297 C 
BRANCH   5   6
HETATM    6  N           1     -24.485  -7.497 -18.880  0.00  0.00    -0.064 N 
HETATM    7  H           1     -24.328  -6.692 -18.232  0.00  0.00     0.275 HD
HETATM    8  H           1     -25.165  -8.163 -18.448  0.00  0.00     0.275 HD
HETATM    9  H           1     -23.578  -7.986 -19.054  0.00  0.00     0.275 HD
ENDBRANCH   5   6
BRANCH   5  10
HETATM   10  C           1     -25.176  -8.149 -21.157  0.00  0.00     0.206 C 
BRANCH  10  11
HETATM   11  O           1     -26.515  -8.562 -21.207  0.00  0.00    -0.398 OA
HETATM   12  H           1     -26.886  -8.395 -20.357  0.00  0.00     0.209 HD
ENDBRANCH  10  11
ENDBRANCH   5  10
ENDBRANCH   1   5
BRANCH   2  13
HETATM   13  C           1     -28.324  -5.947 -18.508  0.00  0.00     0.209 C 
BRANCH  13  14
HETATM   14  C           1     -29.283  -7.006 -17.982  0.00  0.00     0.200 C 
BRANCH  14  15
HETATM   15  O           1     -29.681  -6.673 -16.680  0.00  0.00    -0.398 OA
HETATM   16  H           1     -30.494  -6.204 -16.754  0.00  0.00     0.209 HD
ENDBRANCH  14  15
ENDBRANCH  13  14
BRANCH  13  17
HETATM   17  C           1     -28.195  -4.836 -17.495  0.00  0.00     0.198 C 
HETATM   18  O           1     -28.979  -3.863 -17.532  0.00  0.00    -0.646 OA
HETATM   19  O           1     -27.305  -4.888 -16.620  0.00  0.00    -0.646 OA
ENDBRANCH  13  17
ENDBRANCH   2  13
TORSDOF 8
ENDMDL
MODEL 8
REMARK VINA RESULT:      -4.7     12.872     14.632
REMARK  8 active torsions:
REMARK  status: ('A' for Active; 'I' for Inactive)
REMARK    1  A    between atoms: N_1  and  C_6 
REMARK    2  A    between atoms: C_5  and  C_6 
REMARK    3  A    between atoms: C_5  and  O_12 
REMARK    4  A    between atoms: C_6  and  C_8 
REMARK    5  A    between atoms: O_7  and  C_14 
REMARK       I    between atoms: C_8  and  N_11 
REMARK    6  A    between atoms: N_11  and  C_17 
REMARK    7  A    between atoms: C_14  and  C_17 
REMARK    8  A    between atoms: C_17  and  C_18 
ROOT
HETATM    1  C           1     -21.790  -4.507  -7.954  0.00  0.00     0.251 C 
HETATM    2  N           1     -22.533  -3.644  -8.714  0.00  0.00    -0.343 N 
HETATM    3  H           1     -22.376  -2.647  -8.647  0.00  0.00     0.163 HD
HETATM    4  O           1     -21.977  -5.698  -8.035  0.00  0.00    -0.271 OA
ENDROOT
BRANCH   1   5
HETATM    5  C           1     -20.737  -3.971  -7.016  0.00  0.00     0.297 C 
BRANCH   5   6
HETATM    6  N           1     -20.735  -4.779  -5.752  0.00  0.00    -0.064 N 
HETATM    7  H           1     -20.695  -5.796  -5.990  0.00  0.00     0.275 HD
HETATM    8  H           1     -19.902  -4.523  -5.176  0.00  0.00     0.275 HD
HETATM    9  H           1     -21.608  -4.582  -5.212  0.00  0.00     0.275 HD
ENDBRANCH   5   6
BRANCH   5  10
HETATM   10  C           1     -19.370  -4.065  -7.680  0.00  0.00     0.206 C 
BRANCH  10  11
HETATM   11  O           1     -19.528  -4.401  -9.032  0.00  0.00    -0.398 OA
HETATM   12  H           1     -19.538  -5.342  -9.081  0.00  0.00     0.209 HD
ENDBRANCH  10  11
ENDBRANCH   5  10
ENDBRANCH   1   5
BRANCH   2  13
HETATM   13  C           1     -23.545  -4.159  -9.616  0.00  0.00     0.209 C 
BRANCH  13  14
HETATM   14  C           1     -24.795  -3.295  -9.522  0.00  0.00     0.200 C 
BRANCH  14  15
HETATM   15  O           1     -25.307  -3.070 -10.808  0.00  0.00    -0.398 OA
HETATM   16  H           1     -26.153  -3.480 -10.841  0.00  0.00     0.209 HD
ENDBRANCH  14  15
ENDBRANCH  13  14
BRANCH  13  17
HETATM   17  C           1     -23.018  -4.131 -11.030  0.00  0.00     0.198 C 
HETATM   18  O           1     -23.476  -4.922 -11.883  0.00  0.00    -0.646 OA
HETATM   19  O           1     -22.124  -3.318 -11.348  0.00  0.00    -0.646 OA
ENDBRANCH  13  17
ENDBRANCH   2  13
TORSDOF 8
ENDMDL
MODEL 9
REMARK VINA RESULT:      -4.7      1.448      2.117
REMARK  8 active torsions:
REMARK  status: ('A' for Active; 'I' for Inactive)
REMARK    1  A    between atoms: N_1  and  C_6 
REMARK    2  A    between atoms: C_5  and  C_6 
REMARK    3  A    between atoms: C_5  and  O_12 
REMARK    4  A    between atoms: C_6  and  C_8 
REMARK    5  A    between atoms: O_7  and  C_14 
REMARK       I    between atoms: C_8  and  N_11 
REMARK    6  A    between atoms: N_11  and  C_17 
REMARK    7  A    between atoms: C_14  and  C_17 
REMARK    8  A    between atoms: C_17  and  C_18 
ROOT
HETATM    1  C           1     -36.410  -0.847 -12.689  0.00  0.00     0.251 C 
HETATM    2  N           1     -35.626  -0.615 -13.787  0.00  0.00    -0.343 N 
HETATM    3  H           1     -34.651  -0.886 -13.779  0.00  0.00     0.163 HD
HETATM    4  O           1     -37.575  -0.524 -12.700  0.00  0.00    -0.271 OA
ENDROOT
BRANCH   1   5
HETATM    5  C           1     -35.821  -1.508 -11.467  0.00  0.00     0.297 C 
BRANCH   5   6
HETATM    6  N           1     -34.392  -1.081 -11.310  0.00  0.00    -0.064 N 
HETATM    7  H           1     -34.207  -0.844 -10.309  0.00  0.00     0.275 HD
HETATM    8  H           1     -33.761  -1.861 -11.604  0.00  0.00     0.275 HD
HETATM    9  H           1     -34.211  -0.242 -11.906  0.00  0.00     0.275 HD
ENDBRANCH   5   6
BRANCH   5  10
HETATM   10  C           1     -36.613  -1.092 -10.235  0.00  0.00     0.206 C 
BRANCH  10  11
HETATM   11  O           1     -35.751  -0.497  -9.303  0.00  0.00    -0.398 OA
HETATM   12  H           1     -36.261   0.131  -8.820  0.00  0.00     0.209 HD
ENDBRANCH  10  11
ENDBRANCH   5  10
ENDBRANCH   1   5
BRANCH   2  13
HETATM   13  C           1     -36.192   0.020 -14.962  0.00  0.00     0.209 C 
BRANCH  13  14
HETATM   14  C           1     -35.479   1.341 -15.218  0.00  0.00     0.200 C 
BRANCH  14  15
HETATM   15  O           1     -36.217   2.100 -16.138  0.00  0.00    -0.398 OA
HETATM   16  H           1     -35.665   2.813 -16.408  0.00  0.00     0.209 HD
ENDBRANCH  14  15
ENDBRANCH  13  14
BRANCH  13  17
HETATM   17  C           1     -36.016  -0.887 -16.156  0.00  0.00     0.198 C 
HETATM   18  O           1     -35.175  -1.811 -16.119  0.00  0.00    -0.646 OA
HETATM   19  O           1     -36.711  -0.715 -17.179  0.00  0.00    -0.646 OA
ENDBRANCH  13  17
ENDBRANCH   2  13
TORSDOF 8
ENDMDL
