MODEL 1
REMARK VINA RESULT:      -6.1      0.000      0.000
REMARK  8 active torsions:
REMARK  status: ('A' for Active; 'I' for Inactive)
REMARK    1  A    between atoms: N_1  and  C_8 
REMARK       I    between atoms: N_1  and  C_2 
REMARK    2  A    between atoms: C_2  and  C_3 
REMARK    3  A    between atoms: C_3  and  C_4 
REMARK    4  A    between atoms: C_3  and  N_7 
REMARK    5  A    between atoms: C_4  and  O_5 
REMARK    6  A    between atoms: C_8  and  C_10 
REMARK    7  A    between atoms: C_8  and  C_11 
REMARK    8  A    between atoms: C_10  and  C_21 
ROOT
HETATM    1  N           1     -34.900  -1.829 -12.678  0.00  0.00    -0.344 N 
HETATM    2  C           1     -34.034  -2.663 -12.023  0.00  0.00     0.251 C 
HETATM    3  O           1     -33.398  -2.253 -11.081  0.00  0.00    -0.271 OA
HETATM    4  H           1     -35.432  -2.172 -13.468  0.00  0.00     0.163 HD
ENDROOT
BRANCH   2   5
HETATM    5  C           1     -33.873  -4.092 -12.478  0.00  0.00     0.302 C 
BRANCH   5   6
HETATM    6  C           1     -34.867  -4.976 -11.737  0.00  0.00     0.153 C 
HETATM    7  C           1     -34.124  -5.837 -10.723  0.00  0.00     0.042 C 
BRANCH   6   8
HETATM    8  O           1     -35.802  -4.172 -11.070  0.00  0.00    -0.393 OA
HETATM    9  H           1     -35.707  -3.300 -11.413  0.00  0.00     0.210 HD
ENDBRANCH   6   8
ENDBRANCH   5   6
BRANCH   5  10
HETATM   10  N           1     -32.477  -4.556 -12.184  0.00  0.00    -0.064 N 
HETATM   11  H           1     -32.244  -5.371 -12.796  0.00  0.00     0.275 HD
HETATM   12  H           1     -31.806  -3.778 -12.370  0.00  0.00     0.275 HD
HETATM   13  H           1     -32.409  -4.843 -11.182  0.00  0.00     0.275 HD
ENDBRANCH   5  10
ENDBRANCH   2   5
BRANCH   1  14
HETATM   14  C           1     -35.055  -0.456 -12.241  0.00  0.00     0.195 C 
BRANCH  14  15
HETATM   15  C           1     -35.291   0.438 -13.451  0.00  0.00     0.149 C 
BRANCH  15  16
HETATM   16  C           1     -35.751  -0.403 -14.617  0.00  0.00     0.175 C 
HETATM   17  O           1     -36.950  -0.749 -14.704  0.00  0.00    -0.648 OA
HETATM   18  O           1     -34.934  -0.754 -15.495  0.00  0.00    -0.648 OA
ENDBRANCH  15  16
ENDBRANCH  14  15
BRANCH  14  19
HETATM   19  C           1     -36.233  -0.357 -11.304  0.00  0.00     0.197 C 
HETATM   20  O           1     -36.329   0.614 -10.521  0.00  0.00    -0.646 OA
HETATM   21  O           1     -37.113  -1.245 -11.310  0.00  0.00    -0.646 OA
ENDBRANCH  14  19
ENDBRANCH   1  14
TORSDOF 8
ENDMDL
MODEL 2
REMARK VINA RESULT:      -5.9      1.398      2.930
REMARK  8 active torsions:
REMARK  status: ('A' for Active; 'I' for Inactive)
REMARK    1  A    between atoms: N_1  and  C_8 
REMARK       I    between atoms: N_1  and  C_2 
REMARK    2  A    between atoms: C_2  and  C_3 
REMARK    3  A    between atoms: C_3  and  C_4 
REMARK    4  A    between atoms: C_3  and  N_7 
REMARK    5  A    between atoms: C_4  and  O_5 
REMARK    6  A    between atoms: C_8  and  C_10 
REMARK    7  A    between atoms: C_8  and  C_11 
REMARK    8  A    between atoms: C_10  and  C_21 
ROOT
HETATM    1  N           1     -35.182  -1.534 -12.659  0.00  0.00    -0.344 N 
HETATM    2  C           1     -34.610  -2.699 -13.092  0.00  0.00     0.251 C 
HETATM    3  O           1     -34.671  -3.004 -14.259  0.00  0.00    -0.271 OA
HETATM    4  H           1     -35.132  -1.278 -11.681  0.00  0.00     0.163 HD
ENDROOT
BRANCH   2   5
HETATM    5  C           1     -33.904  -3.603 -12.111  0.00  0.00     0.302 C 
BRANCH   5   6
HETATM    6  C           1     -34.914  -4.546 -11.472  0.00  0.00     0.153 C 
HETATM    7  C           1     -34.216  -5.399 -10.420  0.00  0.00     0.042 C 
BRANCH   6   8
HETATM    8  O           1     -35.934  -3.799 -10.865  0.00  0.00    -0.393 OA
HETATM    9  H           1     -36.215  -3.158 -11.495  0.00  0.00     0.210 HD
ENDBRANCH   6   8
ENDBRANCH   5   6
BRANCH   5  10
HETATM   10  N           1     -33.253  -2.772 -11.046  0.00  0.00    -0.064 N 
HETATM   11  H           1     -32.641  -3.379 -10.456  0.00  0.00     0.275 HD
HETATM   12  H           1     -32.675  -2.024 -11.492  0.00  0.00     0.275 HD
HETATM   13  H           1     -33.989  -2.334 -10.447  0.00  0.00     0.275 HD
ENDBRANCH   5  10
ENDBRANCH   2   5
BRANCH   1  14
HETATM   14  C           1     -35.861  -0.665 -13.600  0.00  0.00     0.195 C 
BRANCH  14  15
HETATM   15  C           1     -37.043   0.004 -12.912  0.00  0.00     0.149 C 
BRANCH  15  16
HETATM   16  C           1     -37.020  -0.322 -11.439  0.00  0.00     0.175 C 
HETATM   17  O           1     -36.347   0.380 -10.653  0.00  0.00    -0.648 OA
HETATM   18  O           1     -37.673  -1.295 -11.005  0.00  0.00    -0.648 OA
ENDBRANCH  15  16
ENDBRANCH  14  15
BRANCH  14  19
HETATM   19  C           1     -34.901   0.391 -14.092  0.00  0.00     0.197 C 
HETATM   20  O           1     -34.392   0.292 -15.230  0.00  0.00    -0.646 OA
HETATM   21  O           1     -34.614   1.363 -13.361  0.00  0.00    -0.646 OA
ENDBRANCH  14  19
ENDBRANCH   1  14
TORSDOF 8
ENDMDL
MODEL 3
REMARK VINA RESULT:      -5.8     10.509     12.315
REMARK  8 active torsions:
REMARK  status: ('A' for Active; 'I' for Inactive)
REMARK    1  A    between atoms: N_1  and  C_8 
REMARK       I    between atoms: N_1  and  C_2 
REMARK    2  A    between atoms: C_2  and  C_3 
REMARK    3  A    between atoms: C_3  and  C_4 
REMARK    4  A    between atoms: C_3  and  N_7 
REMARK    5  A    between atoms: C_4  and  O_5 
REMARK    6  A    between atoms: C_8  and  C_10 
REMARK    7  A    between atoms: C_8  and  C_11 
REMARK    8  A    between atoms: C_10  and  C_21 
ROOT
HETATM    1  N           1     -26.306  -6.350 -18.201  0.00  0.00    -0.344 N 
HETATM    2  C           1     -26.336  -6.723 -19.518  0.00  0.00     0.251 C 
HETATM    3  O           1     -27.389  -6.995 -20.044  0.00  0.00    -0.271 OA
HETATM    4  H           1     -25.424  -6.123 -17.760  0.00  0.00     0.163 HD
ENDROOT
BRANCH   2   5
HETATM    5  C           1     -25.055  -6.794 -20.311  0.00  0.00     0.302 C 
BRANCH   5   6
HETATM    6  C           1     -25.325  -7.460 -21.654  0.00  0.00     0.153 C 
HETATM    7  C           1     -24.020  -7.589 -22.428  0.00  0.00     0.042 C 
BRANCH   6   8
HETATM    8  O           1     -25.871  -8.734 -21.444  0.00  0.00    -0.393 OA
HETATM    9  H           1     -25.628  -9.262 -22.185  0.00  0.00     0.210 HD
ENDBRANCH   6   8
ENDBRANCH   5   6
BRANCH   5  10
HETATM   10  N           1     -24.041  -7.597 -19.552  0.00  0.00    -0.064 N 
HETATM   11  H           1     -23.373  -8.040 -20.222  0.00  0.00     0.275 HD
HETATM   12  H           1     -23.517  -6.970 -18.901  0.00  0.00     0.275 HD
HETATM   13  H           1     -24.527  -8.342 -19.002  0.00  0.00     0.275 HD
ENDBRANCH   5  10
ENDBRANCH   2   5
BRANCH   1  14
HETATM   14  C           1     -27.537  -6.281 -17.438  0.00  0.00     0.195 C 
BRANCH  14  15
HETATM   15  C           1     -27.253  -6.632 -15.984  0.00  0.00     0.149 C 
BRANCH  15  16
HETATM   16  C           1     -25.762  -6.743 -15.774  0.00  0.00     0.175 C 
HETATM   17  O           1     -25.221  -7.869 -15.718  0.00  0.00    -0.648 OA
HETATM   18  O           1     -25.069  -5.710 -15.657  0.00  0.00    -0.648 OA
ENDBRANCH  15  16
ENDBRANCH  14  15
BRANCH  14  19
HETATM   19  C           1     -28.100  -4.884 -17.519  0.00  0.00     0.197 C 
HETATM   20  O           1     -28.946  -4.600 -18.395  0.00  0.00    -0.646 OA
HETATM   21  O           1     -27.721  -4.009 -16.710  0.00  0.00    -0.646 OA
ENDBRANCH  14  19
ENDBRANCH   1  14
TORSDOF 8
ENDMDL
MODEL 4
REMARK VINA RESULT:      -5.7      9.748     11.239
REMARK  8 active torsions:
REMARK  status: ('A' for Active; 'I' for Inactive)
REMARK    1  A    between atoms: N_1  and  C_8 
REMARK       I    between atoms: N_1  and  C_2 
REMARK    2  A    between atoms: C_2  and  C_3 
REMARK    3  A    between atoms: C_3  and  C_4 
REMARK    4  A    between atoms: C_3  and  N_7 
REMARK    5  A    between atoms: C_4  and  O_5 
REMARK    6  A    between atoms: C_8  and  C_10 
REMARK    7  A    between atoms: C_8  and  C_11 
REMARK    8  A    between atoms: C_10  and  C_21 
ROOT
HETATM    1  N           1     -27.539  -6.359 -18.996  0.00  0.00    -0.344 N 
HETATM    2  C           1     -26.238  -6.455 -18.580  0.00  0.00     0.251 C 
HETATM    3  O           1     -25.969  -6.344 -17.408  0.00  0.00    -0.271 OA
HETATM    4  H           1     -27.764  -6.451 -19.978  0.00  0.00     0.163 HD
ENDROOT
BRANCH   2   5
HETATM    5  C           1     -25.141  -6.699 -19.587  0.00  0.00     0.302 C 
BRANCH   5   6
HETATM    6  C           1     -25.745  -7.243 -20.875  0.00  0.00     0.153 C 
HETATM    7  C           1     -24.629  -7.709 -21.801  0.00  0.00     0.042 C 
BRANCH   6   8
HETATM    8  O           1     -26.586  -8.324 -20.577  0.00  0.00    -0.393 OA
HETATM    9  H           1     -26.793  -8.266 -19.660  0.00  0.00     0.210 HD
ENDBRANCH   6   8
ENDBRANCH   5   6
BRANCH   5  10
HETATM   10  N           1     -24.167  -7.697 -19.032  0.00  0.00    -0.064 N 
HETATM   11  H           1     -23.682  -7.286 -18.203  0.00  0.00     0.275 HD
HETATM   12  H           1     -24.680  -8.559 -18.743  0.00  0.00     0.275 HD
HETATM   13  H           1     -23.462  -7.939 -19.764  0.00  0.00     0.275 HD
ENDBRANCH   5  10
ENDBRANCH   2   5
BRANCH   1  14
HETATM   14  C           1     -28.593  -6.124 -18.029  0.00  0.00     0.195 C 
BRANCH  14  15
HETATM   15  C           1     -29.255  -4.783 -18.315  0.00  0.00     0.149 C 
BRANCH  15  16
HETATM   16  C           1     -28.771  -3.759 -17.317  0.00  0.00     0.175 C 
HETATM   17  O           1     -29.243  -2.601 -17.330  0.00  0.00    -0.648 OA
HETATM   18  O           1     -27.898  -4.069 -16.478  0.00  0.00    -0.648 OA
ENDBRANCH  15  16
ENDBRANCH  14  15
BRANCH  14  19
HETATM   19  C           1     -29.622  -7.224 -18.130  0.00  0.00     0.197 C 
HETATM   20  O           1     -30.659  -7.176 -17.434  0.00  0.00    -0.646 OA
HETATM   21  O           1     -29.436  -8.183 -18.911  0.00  0.00    -0.646 OA
ENDBRANCH  14  19
ENDBRANCH   1  14
TORSDOF 8
ENDMDL
MODEL 5
REMARK VINA RESULT:      -5.6     10.114     11.714
REMARK  8 active torsions:
REMARK  status: ('A' for Active; 'I' for Inactive)
REMARK    1  A    between atoms: N_1  and  C_8 
REMARK       I    between atoms: N_1  and  C_2 
REMARK    2  A    between atoms: C_2  and  C_3 
REMARK    3  A    between atoms: C_3  and  C_4 
REMARK    4  A    between atoms: C_3  and  N_7 
REMARK    5  A    between atoms: C_4  and  O_5 
REMARK    6  A    between atoms: C_8  and  C_10 
REMARK    7  A    between atoms: C_8  and  C_11 
REMARK    8  A    between atoms: C_10  and  C_21 
ROOT
HETATM    1  N           1     -26.881  -6.421 -18.439  0.00  0.00    -0.344 N 
HETATM    2  C           1     -26.360  -6.399 -19.704  0.00  0.00     0.251 C 
HETATM    3  O           1     -27.052  -6.068 -20.637  0.00  0.00    -0.271 OA
HETATM    4  H           1     -26.302  -6.700 -17.657  0.00  0.00     0.163 HD
ENDROOT
BRANCH   2   5
HETATM    5  C           1     -24.920  -6.790 -19.933  0.00  0.00     0.302 C 
BRANCH   5   6
HETATM    6  C           1     -24.820  -7.649 -21.187  0.00  0.00     0.153 C 
HETATM    7  C           1     -23.469  -8.352 -21.214  0.00  0.00     0.042 C 
BRANCH   6   8
HETATM    8  O           1     -25.844  -8.607 -21.180  0.00  0.00    -0.393 OA
HETATM    9  H           1     -26.311  -8.503 -20.369  0.00  0.00     0.210 HD
ENDBRANCH   6   8
ENDBRANCH   5   6
BRANCH   5  10
HETATM   10  N           1     -24.420  -7.569 -18.753  0.00  0.00    -0.064 N 
HETATM   11  H           1     -25.201  -7.712 -18.074  0.00  0.00     0.275 HD
HETATM   12  H           1     -24.063  -8.497 -19.074  0.00  0.00     0.275 HD
HETATM   13  H           1     -23.648  -7.040 -18.288  0.00  0.00     0.275 HD
ENDBRANCH   5  10
ENDBRANCH   2   5
BRANCH   1  14
HETATM   14  C           1     -28.264  -6.046 -18.218  0.00  0.00     0.195 C 
BRANCH  14  15
HETATM   15  C           1     -28.968  -7.143 -17.431  0.00  0.00     0.149 C 
BRANCH  15  16
HETATM   16  C           1     -30.115  -7.691 -18.244  0.00  0.00     0.175 C 
HETATM   17  O           1     -29.902  -8.555 -19.122  0.00  0.00    -0.648 OA
HETATM   18  O           1     -31.278  -7.281 -18.039  0.00  0.00    -0.648 OA
ENDBRANCH  15  16
ENDBRANCH  14  15
BRANCH  14  19
HETATM   19  C           1     -28.316  -4.754 -17.440  0.00  0.00     0.197 C 
HETATM   20  O           1     -29.216  -3.919 -17.675  0.00  0.00    -0.646 OA
HETATM   21  O           1     -27.460  -4.520 -16.560  0.00  0.00    -0.646 OA
ENDBRANCH  14  19
ENDBRANCH   1  14
TORSDOF 8
ENDMDL
MODEL 6
REMARK VINA RESULT:      -5.5      1.984      4.575
REMARK  8 active torsions:
REMARK  status: ('A' for Active; 'I' for Inactive)
REMARK    1  A    between atoms: N_1  and  C_8 
REMARK       I    between atoms: N_1  and  C_2 
REMARK    2  A    between atoms: C_2  and  C_3 
REMARK    3  A    between atoms: C_3  and  C_4 
REMARK    4  A    between atoms: C_3  and  N_7 
REMARK    5  A    between atoms: C_4  and  O_5 
REMARK    6  A    between atoms: C_8  and  C_10 
REMARK    7  A    between atoms: C_8  and  C_11 
REMARK    8  A    between atoms: C_10  and  C_21 
ROOT
HETATM    1  N           1     -34.841  -1.349 -13.089  0.00  0.00    -0.344 N 
HETATM    2  C           1     -35.972  -0.711 -13.521  0.00  0.00     0.251 C 
HETATM    3  O           1     -37.039  -0.965 -13.016  0.00  0.00    -0.271 OA
HETATM    4  H           1     -33.947  -1.138 -13.512  0.00  0.00     0.163 HD
ENDROOT
BRANCH   2   5
HETATM    5  C           1     -35.884   0.309 -14.630  0.00  0.00     0.302 C 
BRANCH   5   6
HETATM    6  C           1     -36.473  -0.276 -15.907  0.00  0.00     0.153 C 
HETATM    7  C           1     -35.492  -1.276 -16.506  0.00  0.00     0.042 C 
BRANCH   6   8
HETATM    8  O           1     -37.679  -0.926 -15.611  0.00  0.00    -0.393 OA
HETATM    9  H           1     -37.931  -0.656 -14.745  0.00  0.00     0.210 HD
ENDBRANCH   6   8
ENDBRANCH   5   6
BRANCH   5  10
HETATM   10  N           1     -34.448   0.672 -14.863  0.00  0.00    -0.064 N 
HETATM   11  H           1     -34.396   1.516 -15.477  0.00  0.00     0.275 HD
HETATM   12  H           1     -33.989   0.880 -13.947  0.00  0.00     0.275 HD
HETATM   13  H           1     -33.958  -0.126 -15.326  0.00  0.00     0.275 HD
ENDBRANCH   5  10
ENDBRANCH   2   5
BRANCH   1  14
HETATM   14  C           1     -34.925  -2.330 -12.024  0.00  0.00     0.195 C 
BRANCH  14  15
HETATM   15  C           1     -33.936  -3.457 -12.293  0.00  0.00     0.149 C 
BRANCH  15  16
HETATM   16  C           1     -34.420  -4.284 -13.459  0.00  0.00     0.175 C 
HETATM   17  O           1     -34.167  -3.924 -14.629  0.00  0.00    -0.648 OA
HETATM   18  O           1     -35.073  -5.330 -13.254  0.00  0.00    -0.648 OA
ENDBRANCH  15  16
ENDBRANCH  14  15
BRANCH  14  19
HETATM   19  C           1     -34.592  -1.672 -10.707  0.00  0.00     0.197 C 
HETATM   20  O           1     -33.416  -1.688 -10.280  0.00  0.00    -0.646 OA
HETATM   21  O           1     -35.490  -1.110 -10.045  0.00  0.00    -0.646 OA
ENDBRANCH  14  19
ENDBRANCH   1  14
TORSDOF 8
ENDMDL
MODEL 7
REMARK VINA RESULT:      -5.4     12.327     14.087
REMARK  8 active torsions:
REMARK  status: ('A' for Active; 'I' for Inactive)
REMARK    1  A    between atoms: N_1  and  C_8 
REMARK       I    between atoms: N_1  and  C_2 
REMARK    2  A    between atoms: C_2  and  C_3 
REMARK    3  A    between atoms: C_3  and  C_4 
REMARK    4  A    between atoms: C_3  and  N_7 
REMARK    5  A    between atoms: C_4  and  O_5 
REMARK    6  A    between atoms: C_8  and  C_10 
REMARK    7  A    between atoms: C_8  and  C_11 
REMARK    8  A    between atoms: C_10  and  C_21 
ROOT
HETATM    1  N           1     -22.633  -4.580  -8.001  0.00  0.00    -0.344 N 
HETATM    2  C           1     -21.543  -4.304  -7.221  0.00  0.00     0.251 C 
HETATM    3  O           1     -20.759  -3.450  -7.560  0.00  0.00    -0.271 OA
HETATM    4  H           1     -23.290  -5.296  -7.718  0.00  0.00     0.163 HD
ENDROOT
BRANCH   2   5
HETATM    5  C           1     -21.321  -5.066  -5.938  0.00  0.00     0.302 C 
BRANCH   5   6
HETATM    6  C           1     -20.217  -6.095  -6.142  0.00  0.00     0.153 C 
HETATM    7  C           1     -20.621  -7.410  -5.487  0.00  0.00     0.042 C 
BRANCH   6   8
HETATM    8  O           1     -20.016  -6.299  -7.514  0.00  0.00    -0.393 OA
HETATM    9  H           1     -20.458  -5.599  -7.963  0.00  0.00     0.210 HD
ENDBRANCH   6   8
ENDBRANCH   5   6
BRANCH   5  10
HETATM   10  N           1     -22.589  -5.766  -5.547  0.00  0.00    -0.064 N 
HETATM   11  H           1     -22.368  -6.544  -4.885  0.00  0.00     0.275 HD
HETATM   12  H           1     -23.233  -5.087  -5.083  0.00  0.00     0.275 HD
HETATM   13  H           1     -23.049  -6.155  -6.401  0.00  0.00     0.275 HD
ENDBRANCH   5  10
ENDBRANCH   2   5
BRANCH   1  14
HETATM   14  C           1     -22.847  -3.848  -9.234  0.00  0.00     0.195 C 
BRANCH  14  15
HETATM   15  C           1     -22.111  -4.544 -10.371  0.00  0.00     0.149 C 
BRANCH  15  16
HETATM   16  C           1     -21.280  -3.537 -11.126  0.00  0.00     0.175 C 
HETATM   17  O           1     -21.824  -2.536 -11.641  0.00  0.00    -0.648 OA
HETATM   18  O           1     -20.046  -3.702 -11.237  0.00  0.00    -0.648 OA
ENDBRANCH  15  16
ENDBRANCH  14  15
BRANCH  14  19
HETATM   19  C           1     -24.323  -3.803  -9.542  0.00  0.00     0.197 C 
HETATM   20  O           1     -24.926  -4.849  -9.869  0.00  0.00    -0.646 OA
HETATM   21  O           1     -24.944  -2.720  -9.471  0.00  0.00    -0.646 OA
ENDBRANCH  14  19
ENDBRANCH   1  14
TORSDOF 8
ENDMDL
MODEL 8
REMARK VINA RESULT:      -5.2     25.148     26.430
REMARK  8 active torsions:
REMARK  status: ('A' for Active; 'I' for Inactive)
REMARK    1  A    between atoms: N_1  and  C_8 
REMARK       I    between atoms: N_1  and  C_2 
REMARK    2  A    between atoms: C_2  and  C_3 
REMARK    3  A    between atoms: C_3  and  C_4 
REMARK    4  A    between atoms: C_3  and  N_7 
REMARK    5  A    between atoms: C_4  and  O_5 
REMARK    6  A    between atoms: C_8  and  C_10 
REMARK    7  A    between atoms: C_8  and  C_11 
REMARK    8  A    between atoms: C_10  and  C_21 
ROOT
HETATM    1  N           1     -11.843   5.462 -20.787  0.00  0.00    -0.344 N 
HETATM    2  C           1     -11.205   6.220 -19.843  0.00  0.00     0.251 C 
HETATM    3  O           1     -10.957   5.750 -18.758  0.00  0.00    -0.271 OA
HETATM    4  H           1     -12.051   5.856 -21.696  0.00  0.00     0.163 HD
ENDROOT
BRANCH   2   5
HETATM    5  C           1     -10.813   7.643 -20.157  0.00  0.00     0.302 C 
BRANCH   5   6
HETATM    6  C           1      -9.635   7.644 -21.122  0.00  0.00     0.153 C 
HETATM    7  C           1      -8.973   9.017 -21.114  0.00  0.00     0.042 C 
BRANCH   6   8
HETATM    8  O           1      -8.703   6.675 -20.724  0.00  0.00    -0.393 OA
HETATM    9  H           1      -9.189   5.893 -20.525  0.00  0.00     0.210 HD
ENDBRANCH   6   8
ENDBRANCH   5   6
BRANCH   5  10
HETATM   10  N           1     -10.421   8.344 -18.890  0.00  0.00    -0.064 N 
HETATM   11  H           1     -11.094   9.120 -18.698  0.00  0.00     0.275 HD
HETATM   12  H           1     -10.438   7.665 -18.097  0.00  0.00     0.275 HD
HETATM   13  H           1      -9.458   8.736 -18.992  0.00  0.00     0.275 HD
ENDBRANCH   5  10
ENDBRANCH   2   5
BRANCH   1  14
HETATM   14  C           1     -12.220   4.095 -20.486  0.00  0.00     0.195 C 
BRANCH  14  15
HETATM   15  C           1     -13.634   3.836 -20.990  0.00  0.00     0.149 C 
BRANCH  15  16
HETATM   16  C           1     -14.471   5.078 -20.802  0.00  0.00     0.175 C 
HETATM   17  O           1     -14.798   5.443 -19.652  0.00  0.00    -0.648 OA
HETATM   18  O           1     -14.838   5.740 -21.796  0.00  0.00    -0.648 OA
ENDBRANCH  15  16
ENDBRANCH  14  15
BRANCH  14  19
HETATM   19  C           1     -11.262   3.148 -21.166  0.00  0.00     0.197 C 
HETATM   20  O           1     -10.681   3.496 -22.217  0.00  0.00    -0.646 OA
HETATM   21  O           1     -11.049   2.017 -20.678  0.00  0.00    -0.646 OA
ENDBRANCH  14  19
ENDBRANCH   1  14
TORSDOF 8
ENDMDL
MODEL 9
REMARK VINA RESULT:      -5.0      9.307     11.429
REMARK  8 active torsions:
REMARK  status: ('A' for Active; 'I' for Inactive)
REMARK    1  A    between atoms: N_1  and  C_8 
REMARK       I    between atoms: N_1  and  C_2 
REMARK    2  A    between atoms: C_2  and  C_3 
REMARK    3  A    between atoms: C_3  and  C_4 
REMARK    4  A    between atoms: C_3  and  N_7 
REMARK    5  A    between atoms: C_4  and  O_5 
REMARK    6  A    between atoms: C_8  and  C_10 
REMARK    7  A    between atoms: C_8  and  C_11 
REMARK    8  A    between atoms: C_10  and  C_21 
ROOT
HETATM    1  N           1     -27.354  -6.895 -18.322  0.00  0.00    -0.344 N 
HETATM    2  C           1     -28.504  -6.153 -18.325  0.00  0.00     0.251 C 
HETATM    3  O           1     -28.508  -5.047 -18.811  0.00  0.00    -0.271 OA
HETATM    4  H           1     -27.351  -7.821 -17.914  0.00  0.00     0.163 HD
ENDROOT
BRANCH   2   5
HETATM    5  C           1     -29.767  -6.717 -17.721  0.00  0.00     0.302 C 
BRANCH   5   6
HETATM    6  C           1     -30.186  -5.863 -16.531  0.00  0.00     0.153 C 
HETATM    7  C           1     -29.066  -5.849 -15.498  0.00  0.00     0.042 C 
BRANCH   6   8
HETATM    8  O           1     -30.441  -4.553 -16.961  0.00  0.00    -0.393 OA
HETATM    9  H           1     -31.320  -4.542 -17.298  0.00  0.00     0.210 HD
ENDBRANCH   6   8
ENDBRANCH   5   6
BRANCH   5  10
HETATM   10  N           1     -29.518  -8.123 -17.263  0.00  0.00    -0.064 N 
HETATM   11  H           1     -29.690  -8.783 -18.055  0.00  0.00     0.275 HD
HETATM   12  H           1     -28.527  -8.214 -16.944  0.00  0.00     0.275 HD
HETATM   13  H           1     -30.162  -8.352 -16.473  0.00  0.00     0.275 HD
ENDBRANCH   5  10
ENDBRANCH   2   5
BRANCH   1  14
HETATM   14  C           1     -26.141  -6.354 -18.902  0.00  0.00     0.195 C 
BRANCH  14  15
HETATM   15  C           1     -24.939  -6.827 -18.095  0.00  0.00     0.149 C 
BRANCH  15  16
HETATM   16  C           1     -25.261  -6.758 -16.623  0.00  0.00     0.175 C 
HETATM   17  O           1     -25.565  -5.664 -16.099  0.00  0.00    -0.648 OA
HETATM   18  O           1     -25.224  -7.795 -15.926  0.00  0.00    -0.648 OA
ENDBRANCH  15  16
ENDBRANCH  14  15
BRANCH  14  19
HETATM   19  C           1     -26.010  -6.831 -20.328  0.00  0.00     0.197 C 
HETATM   20  O           1     -25.157  -6.316 -21.083  0.00  0.00    -0.646 OA
HETATM   21  O           1     -26.754  -7.741 -20.753  0.00  0.00    -0.646 OA
ENDBRANCH  14  19
ENDBRANCH   1  14
TORSDOF 8
ENDMDL
