MODEL 1
REMARK VINA RESULT:      -7.1      0.000      0.000
REMARK  8 active torsions:
REMARK  status: ('A' for Active; 'I' for Inactive)
REMARK       I    between atoms: C_1  and  N_2 
REMARK       I    between atoms: C_1  and  N_3 
REMARK    1  A    between atoms: N_4  and  C_21 
REMARK    2  A    between atoms: N_5  and  C_6 
REMARK       I    between atoms: N_5  and  C_20 
REMARK    3  A    between atoms: C_6  and  C_12 
REMARK    4  A    between atoms: N_7  and  C_15 
REMARK    5  A    between atoms: C_15  and  C_19 
REMARK    6  A    between atoms: C_19  and  C_22 
REMARK    7  A    between atoms: C_20  and  C_21 
REMARK    8  A    between atoms: C_21  and  C_22 
ROOT
HETATM    1  C           1     -34.346  -3.554 -12.701  0.00  0.00     0.274 C 
ENDROOT
BRANCH   1   2
HETATM    2  N           1     -33.731  -3.963 -14.006  0.00  0.00    -0.067 N 
HETATM    3  H           1     -33.996  -4.951 -14.221  0.00  0.00     0.275 HD
HETATM    4  H           1     -34.079  -3.336 -14.766  0.00  0.00     0.275 HD
HETATM    5  H           1     -32.691  -3.888 -13.939  0.00  0.00     0.275 HD
ENDBRANCH   1   2
BRANCH   1   6
HETATM    6  C           1     -34.932  -2.169 -12.834  0.00  0.00     0.248 C 
HETATM    7  N           1     -35.328  -1.483 -11.719  0.00  0.00    -0.349 N 
HETATM    8  H           1     -35.229  -1.904 -10.804  0.00  0.00     0.163 HD
HETATM    9  O           1     -35.050  -1.667 -13.927  0.00  0.00    -0.271 OA
BRANCH   7  10
HETATM   10  C           1     -35.891  -0.152 -11.847  0.00  0.00     0.235 C 
BRANCH  10  11
HETATM   11  C           1     -37.241  -0.110 -11.177  0.00  0.00     0.191 C 
HETATM   12  O           1     -37.528   0.832 -10.406  0.00  0.00    -0.647 OA
HETATM   13  O           1     -38.075  -1.017 -11.392  0.00  0.00    -0.647 OA
ENDBRANCH  10  11
ENDBRANCH   7  10
ENDBRANCH   1   6
BRANCH   1  14
HETATM   14  C           1     -33.278  -3.552 -11.615  0.00  0.00     0.044 C 
BRANCH  14  15
HETATM   15  C           1     -33.755  -4.381 -10.431  0.00  0.00     0.023 C 
BRANCH  15  16
HETATM   16  C           1     -34.638  -5.518 -10.930  0.00  0.00     0.138 C 
BRANCH  16  17
HETATM   17  N           1     -33.861  -6.765 -10.965  0.00  0.00    -0.227 N 
HETATM   18  C           1     -34.203  -7.745 -10.241  0.00  0.00     0.665 C 
HETATM   19  N           1     -33.533  -8.819 -10.272  0.00  0.00    -0.235 N 
HETATM   20  N           1     -35.241  -7.649  -9.466  0.00  0.00    -0.235 N 
HETATM   21  H           1     -33.817  -9.632  -9.671  0.00  0.00     0.174 HD
HETATM   22  H           1     -32.694  -8.897 -10.899  0.00  0.00     0.174 HD
HETATM   23  H           1     -35.524  -8.458  -8.869  0.00  0.00     0.174 HD
HETATM   24  H           1     -35.794  -6.763  -9.441  0.00  0.00     0.174 HD
HETATM   25  H           1     -33.021  -6.843 -11.592  0.00  0.00     0.177 HD
ENDBRANCH  16  17
ENDBRANCH  15  16
ENDBRANCH  14  15
ENDBRANCH   1  14
TORSDOF 8
ENDMDL
MODEL 2
REMARK VINA RESULT:      -6.5      9.127     11.666
REMARK  8 active torsions:
REMARK  status: ('A' for Active; 'I' for Inactive)
REMARK       I    between atoms: C_1  and  N_2 
REMARK       I    between atoms: C_1  and  N_3 
REMARK    1  A    between atoms: N_4  and  C_21 
REMARK    2  A    between atoms: N_5  and  C_6 
REMARK       I    between atoms: N_5  and  C_20 
REMARK    3  A    between atoms: C_6  and  C_12 
REMARK    4  A    between atoms: N_7  and  C_15 
REMARK    5  A    between atoms: C_15  and  C_19 
REMARK    6  A    between atoms: C_19  and  C_22 
REMARK    7  A    between atoms: C_20  and  C_21 
REMARK    8  A    between atoms: C_21  and  C_22 
ROOT
HETATM    1  C           1     -28.012  -6.223 -17.208  0.00  0.00     0.274 C 
ENDROOT
BRANCH   1   2
HETATM    2  N           1     -28.148  -7.393 -16.281  0.00  0.00    -0.067 N 
HETATM    3  H           1     -27.232  -7.576 -15.813  0.00  0.00     0.275 HD
HETATM    4  H           1     -28.872  -7.181 -15.557  0.00  0.00     0.275 HD
HETATM    5  H           1     -28.436  -8.237 -16.825  0.00  0.00     0.275 HD
ENDBRANCH   1   2
BRANCH   1   6
HETATM    6  C           1     -26.695  -6.311 -17.939  0.00  0.00     0.248 C 
HETATM    7  N           1     -26.669  -6.649 -19.265  0.00  0.00    -0.349 N 
HETATM    8  H           1     -27.533  -6.839 -19.755  0.00  0.00     0.163 HD
HETATM    9  O           1     -25.663  -6.084 -17.352  0.00  0.00    -0.271 OA
BRANCH   7  10
HETATM   10  C           1     -25.402  -6.734 -19.967  0.00  0.00     0.235 C 
BRANCH  10  11
HETATM   11  C           1     -25.466  -7.842 -20.988  0.00  0.00     0.191 C 
HETATM   12  O           1     -26.556  -8.404 -21.234  0.00  0.00    -0.647 OA
HETATM   13  O           1     -24.430  -8.199 -21.588  0.00  0.00    -0.647 OA
ENDBRANCH  10  11
ENDBRANCH   7  10
ENDBRANCH   1   6
BRANCH   1  14
HETATM   14  C           1     -28.061  -4.930 -16.403  0.00  0.00     0.044 C 
BRANCH  14  15
HETATM   15  C           1     -28.659  -3.821 -17.259  0.00  0.00     0.023 C 
BRANCH  15  16
HETATM   16  C           1     -29.820  -4.378 -18.073  0.00  0.00     0.138 C 
BRANCH  16  17
HETATM   17  N           1     -30.972  -3.470 -17.971  0.00  0.00    -0.227 N 
HETATM   18  C           1     -32.028  -3.849 -17.387  0.00  0.00     0.665 C 
HETATM   19  N           1     -33.019  -3.066 -17.299  0.00  0.00    -0.235 N 
HETATM   20  N           1     -32.096  -5.043 -16.877  0.00  0.00    -0.235 N 
HETATM   21  H           1     -33.896  -3.381 -16.815  0.00  0.00     0.174 HD
HETATM   22  H           1     -32.965  -2.101 -17.711  0.00  0.00     0.174 HD
HETATM   23  H           1     -32.968  -5.356 -16.395  0.00  0.00     0.174 HD
HETATM   24  H           1     -31.278  -5.689 -16.949  0.00  0.00     0.174 HD
HETATM   25  H           1     -30.916  -2.504 -18.383  0.00  0.00     0.177 HD
ENDBRANCH  16  17
ENDBRANCH  15  16
ENDBRANCH  14  15
ENDBRANCH   1  14
TORSDOF 8
ENDMDL
MODEL 3
REMARK VINA RESULT:      -6.2     13.087     14.303
REMARK  8 active torsions:
REMARK  status: ('A' for Active; 'I' for Inactive)
REMARK       I    between atoms: C_1  and  N_2 
REMARK       I    between atoms: C_1  and  N_3 
REMARK    1  A    between atoms: N_4  and  C_21 
REMARK    2  A    between atoms: N_5  and  C_6 
REMARK       I    between atoms: N_5  and  C_20 
REMARK    3  A    between atoms: C_6  and  C_12 
REMARK    4  A    between atoms: N_7  and  C_15 
REMARK    5  A    between atoms: C_15  and  C_19 
REMARK    6  A    between atoms: C_19  and  C_22 
REMARK    7  A    between atoms: C_20  and  C_21 
REMARK    8  A    between atoms: C_21  and  C_22 
ROOT
HETATM    1  C           1     -20.615  -5.151  -7.403  0.00  0.00     0.274 C 
ENDROOT
BRANCH   1   2
HETATM    2  N           1     -19.658  -4.117  -7.915  0.00  0.00    -0.067 N 
HETATM    3  H           1     -19.942  -3.825  -8.877  0.00  0.00     0.275 HD
HETATM    4  H           1     -19.672  -3.286  -7.281  0.00  0.00     0.275 HD
HETATM    5  H           1     -18.693  -4.518  -7.943  0.00  0.00     0.275 HD
ENDBRANCH   1   2
BRANCH   1   6
HETATM    6  C           1     -22.031  -4.660  -7.586  0.00  0.00     0.248 C 
HETATM    7  N           1     -22.453  -4.231  -8.815  0.00  0.00    -0.349 N 
HETATM    8  H           1     -21.815  -4.242  -9.601  0.00  0.00     0.163 HD
HETATM    9  O           1     -22.791  -4.647  -6.646  0.00  0.00    -0.271 OA
BRANCH   7  10
HETATM   10  C           1     -23.813  -3.759  -8.990  0.00  0.00     0.235 C 
BRANCH  10  11
HETATM   11  C           1     -24.139  -3.698 -10.461  0.00  0.00     0.191 C 
HETATM   12  O           1     -23.337  -4.165 -11.299  0.00  0.00    -0.647 OA
HETATM   13  O           1     -25.211  -3.181 -10.843  0.00  0.00    -0.647 OA
ENDBRANCH  10  11
ENDBRANCH   7  10
ENDBRANCH   1   6
BRANCH   1  14
HETATM   14  C           1     -20.350  -5.399  -5.924  0.00  0.00     0.044 C 
BRANCH  14  15
HETATM   15  C           1     -20.255  -6.897  -5.668  0.00  0.00     0.023 C 
BRANCH  15  16
HETATM   16  C           1     -21.514  -7.372  -4.954  0.00  0.00     0.138 C 
BRANCH  16  17
HETATM   17  N           1     -21.963  -6.338  -4.010  0.00  0.00    -0.227 N 
HETATM   18  C           1     -21.870  -6.535  -2.764  0.00  0.00     0.665 C 
HETATM   19  N           1     -22.255  -5.644  -1.951  0.00  0.00    -0.235 N 
HETATM   20  N           1     -21.378  -7.652  -2.317  0.00  0.00    -0.235 N 
HETATM   21  H           1     -22.178  -5.808  -0.917  0.00  0.00     0.174 HD
HETATM   22  H           1     -22.653  -4.741  -2.311  0.00  0.00     0.174 HD
HETATM   23  H           1     -21.300  -7.815  -1.289  0.00  0.00     0.174 HD
HETATM   24  H           1     -21.058  -8.387  -2.988  0.00  0.00     0.174 HD
HETATM   25  H           1     -22.360  -5.434  -4.371  0.00  0.00     0.177 HD
ENDBRANCH  16  17
ENDBRANCH  15  16
ENDBRANCH  14  15
ENDBRANCH   1  14
TORSDOF 8
ENDMDL
MODEL 4
REMARK VINA RESULT:      -6.0     14.580     16.011
REMARK  8 active torsions:
REMARK  status: ('A' for Active; 'I' for Inactive)
REMARK       I    between atoms: C_1  and  N_2 
REMARK       I    between atoms: C_1  and  N_3 
REMARK    1  A    between atoms: N_4  and  C_21 
REMARK    2  A    between atoms: N_5  and  C_6 
REMARK       I    between atoms: N_5  and  C_20 
REMARK    3  A    between atoms: C_6  and  C_12 
REMARK    4  A    between atoms: N_7  and  C_15 
REMARK    5  A    between atoms: C_15  and  C_19 
REMARK    6  A    between atoms: C_19  and  C_22 
REMARK    7  A    between atoms: C_20  and  C_21 
REMARK    8  A    between atoms: C_21  and  C_22 
ROOT
HETATM    1  C           1     -20.464  -6.320  -5.337  0.00  0.00     0.274 C 
ENDROOT
BRANCH   1   2
HETATM    2  N           1     -20.947  -7.131  -6.502  0.00  0.00    -0.067 N 
HETATM    3  H           1     -20.506  -6.777  -7.380  0.00  0.00     0.275 HD
HETATM    4  H           1     -20.686  -8.133  -6.361  0.00  0.00     0.275 HD
HETATM    5  H           1     -21.987  -7.049  -6.576  0.00  0.00     0.275 HD
ENDBRANCH   1   2
BRANCH   1   6
HETATM    6  C           1     -21.550  -6.249  -4.290  0.00  0.00     0.248 C 
HETATM    7  N           1     -21.221  -6.258  -2.962  0.00  0.00    -0.349 N 
HETATM    8  H           1     -20.251  -6.313  -2.681  0.00  0.00     0.163 HD
HETATM    9  O           1     -22.709  -6.183  -4.626  0.00  0.00    -0.271 OA
BRANCH   7  10
HETATM   10  C           1     -22.265  -6.189  -1.956  0.00  0.00     0.235 C 
BRANCH  10  11
HETATM   11  C           1     -22.054  -7.280  -0.937  0.00  0.00     0.191 C 
HETATM   12  O           1     -20.977  -7.916  -0.914  0.00  0.00    -0.647 OA
HETATM   13  O           1     -22.956  -7.549  -0.114  0.00  0.00    -0.647 OA
ENDBRANCH  10  11
ENDBRANCH   7  10
ENDBRANCH   1   6
BRANCH   1  14
HETATM   14  C           1     -20.118  -4.913  -5.807  0.00  0.00     0.044 C 
BRANCH  14  15
HETATM   15  C           1     -19.622  -4.966  -7.246  0.00  0.00     0.023 C 
BRANCH  15  16
HETATM   16  C           1     -20.342  -3.906  -8.070  0.00  0.00     0.138 C 
BRANCH  16  17
HETATM   17  N           1     -21.738  -3.801  -7.624  0.00  0.00    -0.227 N 
HETATM   18  C           1     -22.677  -4.149  -8.398  0.00  0.00     0.665 C 
HETATM   19  N           1     -23.880  -4.060  -8.014  0.00  0.00    -0.235 N 
HETATM   20  N           1     -22.407  -4.598  -9.588  0.00  0.00    -0.235 N 
HETATM   21  H           1     -24.659  -4.348  -8.656  0.00  0.00     0.174 HD
HETATM   22  H           1     -24.099  -3.697  -7.053  0.00  0.00     0.174 HD
HETATM   23  H           1     -23.182  -4.885 -10.226  0.00  0.00     0.174 HD
HETATM   24  H           1     -21.414  -4.672  -9.904  0.00  0.00     0.174 HD
HETATM   25  H           1     -21.957  -3.439  -6.663  0.00  0.00     0.177 HD
ENDBRANCH  16  17
ENDBRANCH  15  16
ENDBRANCH  14  15
ENDBRANCH   1  14
TORSDOF 8
ENDMDL
MODEL 5
REMARK VINA RESULT:      -6.0      9.403     11.662
REMARK  8 active torsions:
REMARK  status: ('A' for Active; 'I' for Inactive)
REMARK       I    between atoms: C_1  and  N_2 
REMARK       I    between atoms: C_1  and  N_3 
REMARK    1  A    between atoms: N_4  and  C_21 
REMARK    2  A    between atoms: N_5  and  C_6 
REMARK       I    between atoms: N_5  and  C_20 
REMARK    3  A    between atoms: C_6  and  C_12 
REMARK    4  A    between atoms: N_7  and  C_15 
REMARK    5  A    between atoms: C_15  and  C_19 
REMARK    6  A    between atoms: C_19  and  C_22 
REMARK    7  A    between atoms: C_20  and  C_21 
REMARK    8  A    between atoms: C_21  and  C_22 
ROOT
HETATM    1  C           1     -29.309  -6.399 -16.413  0.00  0.00     0.274 C 
ENDROOT
BRANCH   1   2
HETATM    2  N           1     -30.213  -5.506 -15.617  0.00  0.00    -0.067 N 
HETATM    3  H           1     -30.623  -6.045 -14.821  0.00  0.00     0.275 HD
HETATM    4  H           1     -29.665  -4.698 -15.245  0.00  0.00     0.275 HD
HETATM    5  H           1     -30.982  -5.152 -16.231  0.00  0.00     0.275 HD
ENDBRANCH   1   2
BRANCH   1   6
HETATM    6  C           1     -27.873  -6.004 -16.170  0.00  0.00     0.248 C 
HETATM    7  N           1     -26.934  -6.965 -15.906  0.00  0.00    -0.349 N 
HETATM    8  H           1     -27.203  -7.940 -15.874  0.00  0.00     0.163 HD
HETATM    9  O           1     -27.552  -4.840 -16.209  0.00  0.00    -0.271 OA
BRANCH   7  10
HETATM   10  C           1     -25.554  -6.585 -15.673  0.00  0.00     0.235 C 
BRANCH  10  11
HETATM   11  C           1     -24.661  -7.303 -16.654  0.00  0.00     0.191 C 
HETATM   12  O           1     -24.105  -8.373 -16.325  0.00  0.00    -0.647 OA
HETATM   13  O           1     -24.478  -6.829 -17.796  0.00  0.00    -0.647 OA
ENDBRANCH  10  11
ENDBRANCH   7  10
ENDBRANCH   1   6
BRANCH   1  14
HETATM   14  C           1     -29.632  -6.257 -17.895  0.00  0.00     0.044 C 
BRANCH  14  15
HETATM   15  C           1     -30.129  -7.591 -18.437  0.00  0.00     0.023 C 
BRANCH  15  16
HETATM   16  C           1     -29.078  -8.183 -19.368  0.00  0.00     0.138 C 
BRANCH  16  17
HETATM   17  N           1     -27.940  -7.259 -19.475  0.00  0.00    -0.227 N 
HETATM   18  C           1     -27.025  -7.477 -20.322  0.00  0.00     0.665 C 
HETATM   19  N           1     -26.045  -6.681 -20.414  0.00  0.00    -0.235 N 
HETATM   20  N           1     -27.091  -8.518 -21.097  0.00  0.00    -0.235 N 
HETATM   21  H           1     -25.286  -6.862 -21.116  0.00  0.00     0.174 HD
HETATM   22  H           1     -25.991  -5.840 -19.787  0.00  0.00     0.174 HD
HETATM   23  H           1     -26.337  -8.698 -21.797  0.00  0.00     0.174 HD
HETATM   24  H           1     -27.901  -9.175 -21.021  0.00  0.00     0.174 HD
HETATM   25  H           1     -27.886  -6.418 -18.849  0.00  0.00     0.177 HD
ENDBRANCH  16  17
ENDBRANCH  15  16
ENDBRANCH  14  15
ENDBRANCH   1  14
TORSDOF 8
ENDMDL
MODEL 6
REMARK VINA RESULT:      -5.8     13.693     15.059
REMARK  8 active torsions:
REMARK  status: ('A' for Active; 'I' for Inactive)
REMARK       I    between atoms: C_1  and  N_2 
REMARK       I    between atoms: C_1  and  N_3 
REMARK    1  A    between atoms: N_4  and  C_21 
REMARK    2  A    between atoms: N_5  and  C_6 
REMARK       I    between atoms: N_5  and  C_20 
REMARK    3  A    between atoms: C_6  and  C_12 
REMARK    4  A    between atoms: N_7  and  C_15 
REMARK    5  A    between atoms: C_15  and  C_19 
REMARK    6  A    between atoms: C_19  and  C_22 
REMARK    7  A    between atoms: C_20  and  C_21 
REMARK    8  A    between atoms: C_21  and  C_22 
ROOT
HETATM    1  C           1     -21.285  -4.000  -6.720  0.00  0.00     0.274 C 
ENDROOT
BRANCH   1   2
HETATM    2  N           1     -22.680  -4.546  -6.797  0.00  0.00    -0.067 N 
HETATM    3  H           1     -22.902  -5.062  -5.916  0.00  0.00     0.275 HD
HETATM    4  H           1     -23.356  -3.758  -6.919  0.00  0.00     0.275 HD
HETATM    5  H           1     -22.754  -5.198  -7.611  0.00  0.00     0.275 HD
ENDBRANCH   1   2
BRANCH   1   6
HETATM    6  C           1     -20.656  -4.034  -8.092  0.00  0.00     0.248 C 
HETATM    7  N           1     -21.398  -4.420  -9.175  0.00  0.00    -0.349 N 
HETATM    8  H           1     -22.368  -4.683  -9.057  0.00  0.00     0.163 HD
HETATM    9  O           1     -19.498  -3.721  -8.232  0.00  0.00    -0.271 OA
BRANCH   7  10
HETATM   10  C           1     -20.793  -4.453 -10.493  0.00  0.00     0.235 C 
BRANCH  10  11
HETATM   11  C           1     -21.705  -3.773 -11.483  0.00  0.00     0.191 C 
HETATM   12  O           1     -22.574  -4.436 -12.091  0.00  0.00    -0.647 OA
HETATM   13  O           1     -21.594  -2.546 -11.696  0.00  0.00    -0.647 OA
ENDBRANCH  10  11
ENDBRANCH   7  10
ENDBRANCH   1   6
BRANCH   1  14
HETATM   14  C           1     -20.461  -4.849  -5.761  0.00  0.00     0.044 C 
BRANCH  14  15
HETATM   15  C           1     -20.646  -6.323  -6.099  0.00  0.00     0.023 C 
BRANCH  15  16
HETATM   16  C           1     -20.949  -7.101  -4.825  0.00  0.00     0.138 C 
BRANCH  16  17
HETATM   17  N           1     -21.695  -6.245  -3.892  0.00  0.00    -0.227 N 
HETATM   18  C           1     -21.673  -6.492  -2.651  0.00  0.00     0.665 C 
HETATM   19  N           1     -22.315  -5.754  -1.847  0.00  0.00    -0.235 N 
HETATM   20  N           1     -20.990  -7.502  -2.201  0.00  0.00    -0.235 N 
HETATM   21  H           1     -22.297  -5.959  -0.817  0.00  0.00     0.174 HD
HETATM   22  H           1     -22.866  -4.937  -2.210  0.00  0.00     0.174 HD
HETATM   23  H           1     -20.971  -7.706  -1.176  0.00  0.00     0.174 HD
HETATM   24  H           1     -20.460  -8.111  -2.864  0.00  0.00     0.174 HD
HETATM   25  H           1     -22.246  -5.428  -4.255  0.00  0.00     0.177 HD
ENDBRANCH  16  17
ENDBRANCH  15  16
ENDBRANCH  14  15
ENDBRANCH   1  14
TORSDOF 8
ENDMDL
MODEL 7
REMARK VINA RESULT:      -5.8     13.738     15.321
REMARK  8 active torsions:
REMARK  status: ('A' for Active; 'I' for Inactive)
REMARK       I    between atoms: C_1  and  N_2 
REMARK       I    between atoms: C_1  and  N_3 
REMARK    1  A    between atoms: N_4  and  C_21 
REMARK    2  A    between atoms: N_5  and  C_6 
REMARK       I    between atoms: N_5  and  C_20 
REMARK    3  A    between atoms: C_6  and  C_12 
REMARK    4  A    between atoms: N_7  and  C_15 
REMARK    5  A    between atoms: C_15  and  C_19 
REMARK    6  A    between atoms: C_19  and  C_22 
REMARK    7  A    between atoms: C_20  and  C_21 
REMARK    8  A    between atoms: C_21  and  C_22 
ROOT
HETATM    1  C           1     -21.009  -5.489  -6.077  0.00  0.00     0.274 C 
ENDROOT
BRANCH   1   2
HETATM    2  N           1     -20.213  -6.349  -7.012  0.00  0.00    -0.067 N 
HETATM    3  H           1     -20.035  -5.828  -7.900  0.00  0.00     0.275 HD
HETATM    4  H           1     -19.301  -6.597  -6.565  0.00  0.00     0.275 HD
HETATM    5  H           1     -20.748  -7.223  -7.222  0.00  0.00     0.275 HD
ENDBRANCH   1   2
BRANCH   1   6
HETATM    6  C           1     -21.686  -6.360  -5.047  0.00  0.00     0.248 C 
HETATM    7  N           1     -20.942  -7.201  -4.265  0.00  0.00    -0.349 N 
HETATM    8  H           1     -19.937  -7.239  -4.378  0.00  0.00     0.163 HD
HETATM    9  O           1     -22.886  -6.313  -4.913  0.00  0.00    -0.271 OA
BRANCH   7  10
HETATM   10  C           1     -21.593  -8.038  -3.276  0.00  0.00     0.235 C 
BRANCH  10  11
HETATM   11  C           1     -21.433  -7.420  -1.910  0.00  0.00     0.191 C 
HETATM   12  O           1     -20.555  -7.847  -1.129  0.00  0.00    -0.647 OA
HETATM   13  O           1     -22.178  -6.480  -1.558  0.00  0.00    -0.647 OA
ENDBRANCH  10  11
ENDBRANCH   7  10
ENDBRANCH   1   6
BRANCH   1  14
HETATM   14  C           1     -22.062  -4.722  -6.866  0.00  0.00     0.044 C 
BRANCH  14  15
HETATM   15  C           1     -21.376  -3.778  -7.845  0.00  0.00     0.023 C 
BRANCH  15  16
HETATM   16  C           1     -22.107  -3.813  -9.181  0.00  0.00     0.138 C 
BRANCH  16  17
HETATM   17  N           1     -23.527  -3.494  -8.972  0.00  0.00    -0.227 N 
HETATM   18  C           1     -24.386  -3.834  -9.837  0.00  0.00     0.665 C 
HETATM   19  N           1     -25.609  -3.561  -9.657  0.00  0.00    -0.235 N 
HETATM   20  N           1     -24.013  -4.465 -10.911  0.00  0.00    -0.235 N 
HETATM   21  H           1     -26.321  -3.842 -10.375  0.00  0.00     0.174 HD
HETATM   22  H           1     -25.911  -3.051  -8.790  0.00  0.00     0.174 HD
HETATM   23  H           1     -24.722  -4.747 -11.624  0.00  0.00     0.174 HD
HETATM   24  H           1     -23.004  -4.692 -11.059  0.00  0.00     0.174 HD
HETATM   25  H           1     -23.829  -2.985  -8.104  0.00  0.00     0.177 HD
ENDBRANCH  16  17
ENDBRANCH  15  16
ENDBRANCH  14  15
ENDBRANCH   1  14
TORSDOF 8
ENDMDL
MODEL 8
REMARK VINA RESULT:      -5.7     14.747     16.256
REMARK  8 active torsions:
REMARK  status: ('A' for Active; 'I' for Inactive)
REMARK       I    between atoms: C_1  and  N_2 
REMARK       I    between atoms: C_1  and  N_3 
REMARK    1  A    between atoms: N_4  and  C_21 
REMARK    2  A    between atoms: N_5  and  C_6 
REMARK       I    between atoms: N_5  and  C_20 
REMARK    3  A    between atoms: C_6  and  C_12 
REMARK    4  A    between atoms: N_7  and  C_15 
REMARK    5  A    between atoms: C_15  and  C_19 
REMARK    6  A    between atoms: C_19  and  C_22 
REMARK    7  A    between atoms: C_20  and  C_21 
REMARK    8  A    between atoms: C_21  and  C_22 
ROOT
HETATM    1  C           1     -21.377  -6.946  -5.592  0.00  0.00     0.274 C 
ENDROOT
BRANCH   1   2
HETATM    2  N           1     -22.536  -6.061  -5.242  0.00  0.00    -0.067 N 
HETATM    3  H           1     -22.215  -5.068  -5.198  0.00  0.00     0.275 HD
HETATM    4  H           1     -23.278  -6.154  -5.972  0.00  0.00     0.275 HD
HETATM    5  H           1     -22.923  -6.344  -4.313  0.00  0.00     0.275 HD
ENDBRANCH   1   2
BRANCH   1   6
HETATM    6  C           1     -20.818  -7.562  -4.332  0.00  0.00     0.248 C 
HETATM    7  N           1     -21.499  -7.444  -3.151  0.00  0.00    -0.349 N 
HETATM    8  H           1     -22.379  -6.944  -3.123  0.00  0.00     0.163 HD
HETATM    9  O           1     -19.768  -8.159  -4.368  0.00  0.00    -0.271 OA
BRANCH   7  10
HETATM   10  C           1     -20.962  -8.036  -1.941  0.00  0.00     0.235 C 
BRANCH  10  11
HETATM   11  C           1     -21.824  -7.650  -0.766  0.00  0.00     0.191 C 
HETATM   12  O           1     -21.702  -8.252   0.323  0.00  0.00    -0.647 OA
HETATM   13  O           1     -22.661  -6.729  -0.881  0.00  0.00    -0.647 OA
ENDBRANCH  10  11
ENDBRANCH   7  10
ENDBRANCH   1   6
BRANCH   1  14
HETATM   14  C           1     -20.297  -6.120  -6.278  0.00  0.00     0.044 C 
BRANCH  14  15
HETATM   15  C           1     -20.553  -4.640  -6.028  0.00  0.00     0.023 C 
BRANCH  15  16
HETATM   16  C           1     -20.728  -3.924  -7.361  0.00  0.00     0.138 C 
BRANCH  16  17
HETATM   17  N           1     -22.131  -3.515  -7.519  0.00  0.00    -0.227 N 
HETATM   18  C           1     -22.823  -3.979  -8.472  0.00  0.00     0.665 C 
HETATM   19  N           1     -24.032  -3.628  -8.606  0.00  0.00    -0.235 N 
HETATM   20  N           1     -22.293  -4.818  -9.311  0.00  0.00    -0.235 N 
HETATM   21  H           1     -24.605  -4.013  -9.397  0.00  0.00     0.174 HD
HETATM   22  H           1     -24.461  -2.950  -7.928  0.00  0.00     0.174 HD
HETATM   23  H           1     -22.864  -5.202 -10.097  0.00  0.00     0.174 HD
HETATM   24  H           1     -21.296  -5.109  -9.199  0.00  0.00     0.174 HD
HETATM   25  H           1     -22.560  -2.838  -6.840  0.00  0.00     0.177 HD
ENDBRANCH  16  17
ENDBRANCH  15  16
ENDBRANCH  14  15
ENDBRANCH   1  14
TORSDOF 8
ENDMDL
MODEL 9
REMARK VINA RESULT:      -5.5      8.604     11.131
REMARK  8 active torsions:
REMARK  status: ('A' for Active; 'I' for Inactive)
REMARK       I    between atoms: C_1  and  N_2 
REMARK       I    between atoms: C_1  and  N_3 
REMARK    1  A    between atoms: N_4  and  C_21 
REMARK    2  A    between atoms: N_5  and  C_6 
REMARK       I    between atoms: N_5  and  C_20 
REMARK    3  A    between atoms: C_6  and  C_12 
REMARK    4  A    between atoms: N_7  and  C_15 
REMARK    5  A    between atoms: C_15  and  C_19 
REMARK    6  A    between atoms: C_19  and  C_22 
REMARK    7  A    between atoms: C_20  and  C_21 
REMARK    8  A    between atoms: C_21  and  C_22 
ROOT
HETATM    1  C           1     -28.131  -6.574 -16.171  0.00  0.00     0.274 C 
ENDROOT
BRANCH   1   2
HETATM    2  N           1     -28.682  -5.509 -15.271  0.00  0.00    -0.067 N 
HETATM    3  H           1     -29.723  -5.486 -15.354  0.00  0.00     0.275 HD
HETATM    4  H           1     -28.417  -5.718 -14.281  0.00  0.00     0.275 HD
HETATM    5  H           1     -28.289  -4.581 -15.548  0.00  0.00     0.275 HD
ENDBRANCH   1   2
BRANCH   1   6
HETATM    6  C           1     -26.663  -6.319 -16.410  0.00  0.00     0.248 C 
HETATM    7  N           1     -25.821  -7.366 -16.675  0.00  0.00    -0.349 N 
HETATM    8  H           1     -26.183  -8.310 -16.710  0.00  0.00     0.163 HD
HETATM    9  O           1     -26.231  -5.192 -16.366  0.00  0.00    -0.271 OA
BRANCH   7  10
HETATM   10  C           1     -24.410  -7.121 -16.904  0.00  0.00     0.235 C 
BRANCH  10  11
HETATM   11  C           1     -24.146  -7.049 -18.387  0.00  0.00     0.191 C 
HETATM   12  O           1     -22.976  -7.138 -18.819  0.00  0.00    -0.647 OA
HETATM   13  O           1     -25.097  -6.899 -19.184  0.00  0.00    -0.647 OA
ENDBRANCH  10  11
ENDBRANCH   7  10
ENDBRANCH   1   6
BRANCH   1  14
HETATM   14  C           1     -28.874  -6.549 -17.500  0.00  0.00     0.044 C 
BRANCH  14  15
HETATM   15  C           1     -30.094  -7.456 -17.418  0.00  0.00     0.023 C 
BRANCH  15  16
HETATM   16  C           1     -31.354  -6.605 -17.322  0.00  0.00     0.138 C 
BRANCH  16  17
HETATM   17  N           1     -31.043  -5.221 -17.708  0.00  0.00    -0.227 N 
HETATM   18  C           1     -31.612  -4.256 -17.119  0.00  0.00     0.665 C 
HETATM   19  N           1     -31.343  -3.065 -17.452  0.00  0.00    -0.235 N 
HETATM   20  N           1     -32.471  -4.488 -16.172  0.00  0.00    -0.235 N 
HETATM   21  H           1     -31.815  -2.264 -16.963  0.00  0.00     0.174 HD
HETATM   22  H           1     -30.649  -2.877 -18.217  0.00  0.00     0.174 HD
HETATM   23  H           1     -32.939  -3.692 -15.685  0.00  0.00     0.174 HD
HETATM   24  H           1     -32.692  -5.472 -15.897  0.00  0.00     0.174 HD
HETATM   25  H           1     -30.348  -5.034 -18.473  0.00  0.00     0.177 HD
ENDBRANCH  16  17
ENDBRANCH  15  16
ENDBRANCH  14  15
ENDBRANCH   1  14
TORSDOF 8
ENDMDL
