MODEL 1
REMARK VINA RESULT:      -7.3      0.000      0.000
REMARK  11 active torsions:
REMARK  status: ('A' for Active; 'I' for Inactive)
REMARK       I    between atoms: C_1  and  N_15 
REMARK    1  A    between atoms: C_1  and  C_13 
REMARK    2  A    between atoms: C_3  and  C_4 
REMARK    3  A    between atoms: C_4  and  C_5 
REMARK    4  A    between atoms: C_5  and  C_7 
REMARK    5  A    between atoms: C_5  and  N_15 
REMARK    6  A    between atoms: C_13  and  C_23 
REMARK    7  A    between atoms: C_13  and  N_30 
REMARK    8  A    between atoms: O_14  and  P_20 
REMARK    9  A    between atoms: C_18  and  O_19 
REMARK   10  A    between atoms: O_19  and  P_20 
REMARK   11  A    between atoms: C_23  and  C_25 
ROOT
HETATM    1  C           1     -20.681  -5.042  -6.154  0.00  0.00     0.189 C 
ENDROOT
BRANCH   1   2
HETATM    2  C           1     -21.532  -6.286  -5.933  0.00  0.00     0.074 C 
BRANCH   2   3
HETATM    3  C           1     -21.326  -6.790  -4.538  0.00  0.00    -0.056 A 
HETATM    4  C           1     -21.949  -6.153  -3.466  0.00  0.00     0.010 A 
HETATM    5  C           1     -21.757  -6.623  -2.168  0.00  0.00     0.038 A 
HETATM    6  C           1     -20.939  -7.730  -1.940  0.00  0.00     0.081 A 
HETATM    7  C           1     -20.315  -8.368  -3.013  0.00  0.00     0.038 A 
HETATM    8  C           1     -20.508  -7.897  -4.312  0.00  0.00     0.010 A 
BRANCH   6   9
HETATM    9  O           1     -20.752  -8.187  -0.679  0.00  0.00    -0.247 OA
BRANCH   9  10
HETATM   10  P           1     -21.919  -9.086  -0.017  0.00  0.00     0.411 P 
HETATM   11  O           1     -21.320 -10.053   0.931  0.00  0.00    -0.624 OA
HETATM   12  O           1     -22.642  -9.820  -1.080  0.00  0.00    -0.624 OA
BRANCH  10  13
HETATM   13  O           1     -22.951  -8.128   0.775  0.00  0.00    -0.300 OA
HETATM   14  H           1     -22.856  -7.281   0.372  0.00  0.00     0.223 HD
ENDBRANCH  10  13
ENDBRANCH   9  10
ENDBRANCH   6   9
ENDBRANCH   2   3
ENDBRANCH   1   2
BRANCH   1  15
HETATM   15  C           1     -19.492  -5.392  -7.014  0.00  0.00     0.197 C 
HETATM   16  O           1     -18.684  -4.501  -7.356  0.00  0.00    -0.646 OA
HETATM   17  O           1     -19.314  -6.572  -7.384  0.00  0.00    -0.646 OA
ENDBRANCH   1  15
BRANCH   1  18
HETATM   18  N           1     -21.475  -4.026  -6.817  0.00  0.00    -0.344 N 
HETATM   19  C           1     -22.607  -4.379  -7.501  0.00  0.00     0.249 C 
HETATM   20  O           1     -23.671  -4.410  -6.932  0.00  0.00    -0.271 OA
HETATM   21  H           1     -21.192  -3.055  -6.774  0.00  0.00     0.163 HD
BRANCH  19  22
HETATM   22  C           1     -22.523  -4.732  -8.966  0.00  0.00     0.284 C 
BRANCH  22  23
HETATM   23  C           1     -21.394  -3.942  -9.615  0.00  0.00     0.155 C 
BRANCH  23  24
HETATM   24  C           1     -21.722  -3.696 -11.068  0.00  0.00     0.175 C 
HETATM   25  O           1     -21.823  -4.660 -11.857  0.00  0.00    -0.648 OA
HETATM   26  O           1     -21.893  -2.529 -11.482  0.00  0.00    -0.648 OA
ENDBRANCH  23  24
ENDBRANCH  22  23
BRANCH  22  27
HETATM   27  N           1     -23.821  -4.391  -9.637  0.00  0.00    -0.066 N 
HETATM   28  H           1     -24.570  -4.285  -8.917  0.00  0.00     0.275 HD
HETATM   29  H           1     -23.714  -3.495 -10.163  0.00  0.00     0.275 HD
HETATM   30  H           1     -24.081  -5.155 -10.300  0.00  0.00     0.275 HD
ENDBRANCH  22  27
ENDBRANCH  19  22
ENDBRANCH   1  18
TORSDOF 11
ENDMDL
MODEL 2
REMARK VINA RESULT:      -7.3     13.842     16.324
REMARK  11 active torsions:
REMARK  status: ('A' for Active; 'I' for Inactive)
REMARK       I    between atoms: C_1  and  N_15 
REMARK    1  A    between atoms: C_1  and  C_13 
REMARK    2  A    between atoms: C_3  and  C_4 
REMARK    3  A    between atoms: C_4  and  C_5 
REMARK    4  A    between atoms: C_5  and  C_7 
REMARK    5  A    between atoms: C_5  and  N_15 
REMARK    6  A    between atoms: C_13  and  C_23 
REMARK    7  A    between atoms: C_13  and  N_30 
REMARK    8  A    between atoms: O_14  and  P_20 
REMARK    9  A    between atoms: C_18  and  O_19 
REMARK   10  A    between atoms: O_19  and  P_20 
REMARK   11  A    between atoms: C_23  and  C_25 
ROOT
HETATM    1  C           1     -36.704  -0.606 -10.898  0.00  0.00     0.189 C 
ENDROOT
BRANCH   1   2
HETATM    2  C           1     -35.224  -0.693 -10.547  0.00  0.00     0.074 C 
BRANCH   2   3
HETATM    3  C           1     -34.745  -2.097 -10.747  0.00  0.00    -0.056 A 
HETATM    4  C           1     -33.384  -2.356 -10.895  0.00  0.00     0.010 A 
HETATM    5  C           1     -32.938  -3.664 -11.081  0.00  0.00     0.038 A 
HETATM    6  C           1     -33.855  -4.714 -11.119  0.00  0.00     0.081 A 
HETATM    7  C           1     -35.218  -4.456 -10.971  0.00  0.00     0.038 A 
HETATM    8  C           1     -35.663  -3.147 -10.785  0.00  0.00     0.010 A 
BRANCH   6   9
HETATM    9  O           1     -33.423  -5.985 -11.299  0.00  0.00    -0.247 OA
BRANCH   9  10
HETATM   10  P           1     -34.252  -7.177 -10.593  0.00  0.00     0.411 P 
HETATM   11  O           1     -35.375  -7.583 -11.468  0.00  0.00    -0.624 OA
HETATM   12  O           1     -34.783  -6.707  -9.294  0.00  0.00    -0.624 OA
BRANCH  10  13
HETATM   13  O           1     -33.276  -8.441 -10.352  0.00  0.00    -0.300 OA
HETATM   14  H           1     -33.570  -9.096 -10.963  0.00  0.00     0.223 HD
ENDBRANCH  10  13
ENDBRANCH   9  10
ENDBRANCH   6   9
ENDBRANCH   2   3
ENDBRANCH   1   2
BRANCH   1  15
HETATM   15  C           1     -37.461  -0.004  -9.740  0.00  0.00     0.197 C 
HETATM   16  O           1     -37.476  -0.586  -8.633  0.00  0.00    -0.646 OA
HETATM   17  O           1     -38.074   1.075  -9.887  0.00  0.00    -0.646 OA
ENDBRANCH   1  15
BRANCH   1  18
HETATM   18  N           1     -36.873   0.228 -12.072  0.00  0.00    -0.344 N 
HETATM   19  C           1     -36.789  -0.324 -13.322  0.00  0.00     0.249 C 
HETATM   20  O           1     -37.779  -0.757 -13.859  0.00  0.00    -0.271 OA
HETATM   21  H           1     -37.055   1.218 -11.967  0.00  0.00     0.163 HD
BRANCH  19  22
HETATM   22  C           1     -35.456  -0.390 -14.027  0.00  0.00     0.284 C 
BRANCH  22  23
HETATM   23  C           1     -35.570   0.275 -15.393  0.00  0.00     0.155 C 
BRANCH  23  24
HETATM   24  C           1     -35.780  -0.781 -16.451  0.00  0.00     0.175 C 
HETATM   25  O           1     -34.830  -1.517 -16.796  0.00  0.00    -0.648 OA
HETATM   26  O           1     -36.903  -0.920 -16.982  0.00  0.00    -0.648 OA
ENDBRANCH  23  24
ENDBRANCH  22  23
BRANCH  22  27
HETATM   27  N           1     -35.054  -1.824 -14.203  0.00  0.00    -0.066 N 
HETATM   28  H           1     -35.796  -2.332 -14.736  0.00  0.00     0.275 HD
HETATM   29  H           1     -34.154  -1.870 -14.730  0.00  0.00     0.275 HD
HETATM   30  H           1     -34.933  -2.269 -13.265  0.00  0.00     0.275 HD
ENDBRANCH  22  27
ENDBRANCH  19  22
ENDBRANCH   1  18
TORSDOF 11
ENDMDL
MODEL 3
REMARK VINA RESULT:      -7.3      3.320      8.330
REMARK  11 active torsions:
REMARK  status: ('A' for Active; 'I' for Inactive)
REMARK       I    between atoms: C_1  and  N_15 
REMARK    1  A    between atoms: C_1  and  C_13 
REMARK    2  A    between atoms: C_3  and  C_4 
REMARK    3  A    between atoms: C_4  and  C_5 
REMARK    4  A    between atoms: C_5  and  C_7 
REMARK    5  A    between atoms: C_5  and  N_15 
REMARK    6  A    between atoms: C_13  and  C_23 
REMARK    7  A    between atoms: C_13  and  N_30 
REMARK    8  A    between atoms: O_14  and  P_20 
REMARK    9  A    between atoms: C_18  and  O_19 
REMARK   10  A    between atoms: O_19  and  P_20 
REMARK   11  A    between atoms: C_23  and  C_25 
ROOT
HETATM    1  C           1     -20.669  -7.569  -5.588  0.00  0.00     0.189 C 
ENDROOT
BRANCH   1   2
HETATM    2  C           1     -20.360  -6.079  -5.523  0.00  0.00     0.074 C 
BRANCH   2   3
HETATM    3  C           1     -20.890  -5.405  -6.750  0.00  0.00    -0.056 A 
HETATM    4  C           1     -20.149  -5.421  -7.930  0.00  0.00     0.010 A 
HETATM    5  C           1     -20.643  -4.793  -9.073  0.00  0.00     0.038 A 
HETATM    6  C           1     -21.879  -4.147  -9.035  0.00  0.00     0.081 A 
HETATM    7  C           1     -22.621  -4.130  -7.853  0.00  0.00     0.038 A 
HETATM    8  C           1     -22.126  -4.759  -6.711  0.00  0.00     0.010 A 
BRANCH   6   9
HETATM    9  O           1     -22.359  -3.536 -10.144  0.00  0.00    -0.247 OA
BRANCH   9  10
HETATM   10  P           1     -23.583  -4.240 -10.928  0.00  0.00     0.411 P 
HETATM   11  O           1     -24.750  -3.330 -10.940  0.00  0.00    -0.624 OA
HETATM   12  O           1     -23.948  -5.501 -10.245  0.00  0.00    -0.624 OA
BRANCH  10  13
HETATM   13  O           1     -23.136  -4.559 -12.447  0.00  0.00    -0.300 OA
HETATM   14  H           1     -23.595  -5.349 -12.676  0.00  0.00     0.223 HD
ENDBRANCH  10  13
ENDBRANCH   9  10
ENDBRANCH   6   9
ENDBRANCH   2   3
ENDBRANCH   1   2
BRANCH   1  15
HETATM   15  C           1     -19.407  -8.357  -5.338  0.00  0.00     0.197 C 
HETATM   16  O           1     -19.120  -8.726  -4.178  0.00  0.00    -0.646 OA
HETATM   17  O           1     -18.648  -8.641  -6.290  0.00  0.00    -0.646 OA
ENDBRANCH   1  15
BRANCH   1  18
HETATM   18  N           1     -21.655  -7.902  -4.579  0.00  0.00    -0.344 N 
HETATM   19  C           1     -22.061  -6.954  -3.679  0.00  0.00     0.249 C 
HETATM   20  O           1     -23.004  -6.245  -3.933  0.00  0.00    -0.271 OA
HETATM   21  H           1     -22.044  -8.836  -4.540  0.00  0.00     0.163 HD
BRANCH  19  22
HETATM   22  C           1     -21.328  -6.796  -2.369  0.00  0.00     0.284 C 
BRANCH  22  23
HETATM   23  C           1     -21.119  -8.165  -1.735  0.00  0.00     0.155 C 
BRANCH  23  24
HETATM   24  C           1     -21.784  -8.199  -0.380  0.00  0.00     0.175 C 
HETATM   25  O           1     -21.106  -8.019   0.654  0.00  0.00    -0.648 OA
HETATM   26  O           1     -23.014  -8.409  -0.292  0.00  0.00    -0.648 OA
ENDBRANCH  23  24
ENDBRANCH  22  23
BRANCH  22  27
HETATM   27  N           1     -22.138  -5.936  -1.444  0.00  0.00    -0.066 N 
HETATM   28  H           1     -22.997  -5.604  -1.937  0.00  0.00     0.275 HD
HETATM   29  H           1     -22.412  -6.493  -0.604  0.00  0.00     0.275 HD
HETATM   30  H           1     -21.568  -5.113  -1.146  0.00  0.00     0.275 HD
ENDBRANCH  22  27
ENDBRANCH  19  22
ENDBRANCH   1  18
TORSDOF 11
ENDMDL
MODEL 4
REMARK VINA RESULT:      -7.2      3.460      8.495
REMARK  11 active torsions:
REMARK  status: ('A' for Active; 'I' for Inactive)
REMARK       I    between atoms: C_1  and  N_15 
REMARK    1  A    between atoms: C_1  and  C_13 
REMARK    2  A    between atoms: C_3  and  C_4 
REMARK    3  A    between atoms: C_4  and  C_5 
REMARK    4  A    between atoms: C_5  and  C_7 
REMARK    5  A    between atoms: C_5  and  N_15 
REMARK    6  A    between atoms: C_13  and  C_23 
REMARK    7  A    between atoms: C_13  and  N_30 
REMARK    8  A    between atoms: O_14  and  P_20 
REMARK    9  A    between atoms: C_18  and  O_19 
REMARK   10  A    between atoms: O_19  and  P_20 
REMARK   11  A    between atoms: C_23  and  C_25 
ROOT
HETATM    1  C           1     -20.643  -7.427  -5.190  0.00  0.00     0.189 C 
ENDROOT
BRANCH   1   2
HETATM    2  C           1     -19.791  -6.508  -6.056  0.00  0.00     0.074 C 
BRANCH   2   3
HETATM    3  C           1     -20.682  -5.663  -6.913  0.00  0.00    -0.056 A 
HETATM    4  C           1     -20.248  -5.244  -8.170  0.00  0.00     0.010 A 
HETATM    5  C           1     -21.078  -4.457  -8.968  0.00  0.00     0.038 A 
HETATM    6  C           1     -22.342  -4.088  -8.508  0.00  0.00     0.081 A 
HETATM    7  C           1     -22.777  -4.508  -7.250  0.00  0.00     0.038 A 
HETATM    8  C           1     -21.946  -5.295  -6.453  0.00  0.00     0.010 A 
BRANCH   6   9
HETATM    9  O           1     -23.149  -3.324  -9.283  0.00  0.00    -0.247 OA
BRANCH   9  10
HETATM   10  P           1     -24.180  -4.072 -10.275  0.00  0.00     0.411 P 
HETATM   11  O           1     -23.423  -4.893 -11.247  0.00  0.00    -0.624 OA
HETATM   12  O           1     -24.986  -3.066 -11.001  0.00  0.00    -0.624 OA
BRANCH  10  13
HETATM   13  O           1     -25.157  -5.028  -9.414  0.00  0.00    -0.300 OA
HETATM   14  H           1     -25.490  -5.657 -10.032  0.00  0.00     0.223 HD
ENDBRANCH  10  13
ENDBRANCH   9  10
ENDBRANCH   6   9
ENDBRANCH   2   3
ENDBRANCH   1   2
BRANCH   1  15
HETATM   15  C           1     -20.292  -8.865  -5.484  0.00  0.00     0.197 C 
HETATM   16  O           1     -19.099  -9.193  -5.662  0.00  0.00    -0.646 OA
HETATM   17  O           1     -21.194  -9.727  -5.549  0.00  0.00    -0.646 OA
ENDBRANCH   1  15
BRANCH   1  18
HETATM   18  N           1     -20.387  -7.143  -3.791  0.00  0.00    -0.344 N 
HETATM   19  C           1     -20.596  -8.112  -2.847  0.00  0.00     0.249 C 
HETATM   20  O           1     -19.701  -8.864  -2.545  0.00  0.00    -0.271 OA
HETATM   21  H           1     -20.054  -6.229  -3.513  0.00  0.00     0.163 HD
BRANCH  19  22
HETATM   22  C           1     -21.946  -8.240  -2.184  0.00  0.00     0.284 C 
BRANCH  22  23
HETATM   23  C           1     -22.070  -7.199  -1.078  0.00  0.00     0.155 C 
BRANCH  23  24
HETATM   24  C           1     -22.289  -7.892   0.244  0.00  0.00     0.175 C 
HETATM   25  O           1     -23.451  -8.099   0.657  0.00  0.00    -0.648 OA
HETATM   26  O           1     -21.309  -8.261   0.928  0.00  0.00    -0.648 OA
ENDBRANCH  23  24
ENDBRANCH  22  23
BRANCH  22  27
HETATM   27  N           1     -22.085  -9.612  -1.594  0.00  0.00    -0.066 N 
HETATM   28  H           1     -23.098  -9.836  -1.467  0.00  0.00     0.275 HD
HETATM   29  H           1     -21.652 -10.312  -2.236  0.00  0.00     0.275 HD
HETATM   30  H           1     -21.604  -9.643  -0.667  0.00  0.00     0.275 HD
ENDBRANCH  22  27
ENDBRANCH  19  22
ENDBRANCH   1  18
TORSDOF 11
ENDMDL
MODEL 5
REMARK VINA RESULT:      -6.6      1.531      1.852
REMARK  11 active torsions:
REMARK  status: ('A' for Active; 'I' for Inactive)
REMARK       I    between atoms: C_1  and  N_15 
REMARK    1  A    between atoms: C_1  and  C_13 
REMARK    2  A    between atoms: C_3  and  C_4 
REMARK    3  A    between atoms: C_4  and  C_5 
REMARK    4  A    between atoms: C_5  and  C_7 
REMARK    5  A    between atoms: C_5  and  N_15 
REMARK    6  A    between atoms: C_13  and  C_23 
REMARK    7  A    between atoms: C_13  and  N_30 
REMARK    8  A    between atoms: O_14  and  P_20 
REMARK    9  A    between atoms: C_18  and  O_19 
REMARK   10  A    between atoms: O_19  and  P_20 
REMARK   11  A    between atoms: C_23  and  C_25 
ROOT
HETATM    1  C           1     -21.203  -5.763  -6.688  0.00  0.00     0.189 C 
ENDROOT
BRANCH   1   2
HETATM    2  C           1     -20.450  -6.958  -6.118  0.00  0.00     0.074 C 
BRANCH   2   3
HETATM    3  C           1     -20.765  -7.099  -4.661  0.00  0.00    -0.056 A 
HETATM    4  C           1     -21.669  -6.228  -4.056  0.00  0.00     0.010 A 
HETATM    5  C           1     -21.962  -6.360  -2.699  0.00  0.00     0.038 A 
HETATM    6  C           1     -21.350  -7.362  -1.947  0.00  0.00     0.081 A 
HETATM    7  C           1     -20.445  -8.234  -2.552  0.00  0.00     0.038 A 
HETATM    8  C           1     -20.152  -8.102  -3.910  0.00  0.00     0.010 A 
BRANCH   6   9
HETATM    9  O           1     -21.635  -7.490  -0.629  0.00  0.00    -0.247 OA
BRANCH   9  10
HETATM   10  P           1     -22.414  -8.819  -0.146  0.00  0.00     0.411 P 
HETATM   11  O           1     -21.536  -9.613   0.742  0.00  0.00    -0.624 OA
HETATM   12  O           1     -22.786  -9.630  -1.327  0.00  0.00    -0.624 OA
BRANCH  10  13
HETATM   13  O           1     -23.749  -8.396   0.660  0.00  0.00    -0.300 OA
HETATM   14  H           1     -23.596  -7.508   0.937  0.00  0.00     0.223 HD
ENDBRANCH  10  13
ENDBRANCH   9  10
ENDBRANCH   6   9
ENDBRANCH   2   3
ENDBRANCH   1   2
BRANCH   1  15
HETATM   15  C           1     -20.416  -4.502  -6.429  0.00  0.00     0.197 C 
HETATM   16  O           1     -21.006  -3.403  -6.350  0.00  0.00    -0.646 OA
HETATM   17  O           1     -19.175  -4.556  -6.295  0.00  0.00    -0.646 OA
ENDBRANCH   1  15
BRANCH   1  18
HETATM   18  N           1     -21.378  -5.940  -8.116  0.00  0.00    -0.344 N 
HETATM   19  C           1     -21.066  -4.921  -8.975  0.00  0.00     0.249 C 
HETATM   20  O           1     -19.952  -4.832  -9.429  0.00  0.00    -0.271 OA
HETATM   21  H           1     -21.729  -6.817  -8.478  0.00  0.00     0.163 HD
BRANCH  19  22
HETATM   22  C           1     -22.118  -3.907  -9.355  0.00  0.00     0.284 C 
BRANCH  22  23
HETATM   23  C           1     -23.467  -4.601  -9.493  0.00  0.00     0.155 C 
BRANCH  23  24
HETATM   24  C           1     -24.125  -4.171 -10.781  0.00  0.00     0.175 C 
HETATM   25  O           1     -23.840  -4.748 -11.852  0.00  0.00    -0.648 OA
HETATM   26  O           1     -24.956  -3.236 -10.777  0.00  0.00    -0.648 OA
ENDBRANCH  23  24
ENDBRANCH  22  23
BRANCH  22  27
HETATM   27  N           1     -21.750  -3.269 -10.661  0.00  0.00    -0.066 N 
HETATM   28  H           1     -22.310  -2.396 -10.794  0.00  0.00     0.275 HD
HETATM   29  H           1     -20.733  -3.033 -10.658  0.00  0.00     0.275 HD
HETATM   30  H           1     -21.952  -3.933 -11.442  0.00  0.00     0.275 HD
ENDBRANCH  22  27
ENDBRANCH  19  22
ENDBRANCH   1  18
TORSDOF 11
ENDMDL
MODEL 6
REMARK VINA RESULT:      -6.6      4.136      6.313
REMARK  11 active torsions:
REMARK  status: ('A' for Active; 'I' for Inactive)
REMARK       I    between atoms: C_1  and  N_15 
REMARK    1  A    between atoms: C_1  and  C_13 
REMARK    2  A    between atoms: C_3  and  C_4 
REMARK    3  A    between atoms: C_4  and  C_5 
REMARK    4  A    between atoms: C_5  and  C_7 
REMARK    5  A    between atoms: C_5  and  N_15 
REMARK    6  A    between atoms: C_13  and  C_23 
REMARK    7  A    between atoms: C_13  and  N_30 
REMARK    8  A    between atoms: O_14  and  P_20 
REMARK    9  A    between atoms: C_18  and  O_19 
REMARK   10  A    between atoms: O_19  and  P_20 
REMARK   11  A    between atoms: C_23  and  C_25 
ROOT
HETATM    1  C           1     -20.707  -8.539  -3.066  0.00  0.00     0.189 C 
ENDROOT
BRANCH   1   2
HETATM    2  C           1     -19.389  -8.783  -2.344  0.00  0.00     0.074 C 
BRANCH   2   3
HETATM    3  C           1     -18.360  -9.250  -3.326  0.00  0.00    -0.056 A 
HETATM    4  C           1     -17.036  -9.417  -2.924  0.00  0.00     0.010 A 
HETATM    5  C           1     -16.078  -9.851  -3.840  0.00  0.00     0.038 A 
HETATM    6  C           1     -16.444 -10.117  -5.159  0.00  0.00     0.081 A 
HETATM    7  C           1     -17.769  -9.950  -5.562  0.00  0.00     0.038 A 
HETATM    8  C           1     -18.727  -9.516  -4.645  0.00  0.00     0.010 A 
BRANCH   6   9
HETATM    9  O           1     -15.514 -10.539  -6.048  0.00  0.00    -0.247 OA
BRANCH   9  10
HETATM   10  P           1     -15.359 -12.128  -6.289  0.00  0.00     0.411 P 
HETATM   11  O           1     -15.655 -12.850  -5.031  0.00  0.00    -0.624 OA
HETATM   12  O           1     -13.976 -12.431  -6.719  0.00  0.00    -0.624 OA
BRANCH  10  13
HETATM   13  O           1     -16.396 -12.602  -7.434  0.00  0.00    -0.300 OA
HETATM   14  H           1     -16.930 -13.260  -7.022  0.00  0.00     0.223 HD
ENDBRANCH  10  13
ENDBRANCH   9  10
ENDBRANCH   6   9
ENDBRANCH   2   3
ENDBRANCH   1   2
BRANCH   1  15
HETATM   15  C           1     -21.841  -9.119  -2.256  0.00  0.00     0.197 C 
HETATM   16  O           1     -22.240  -8.528  -1.229  0.00  0.00    -0.646 OA
HETATM   17  O           1     -22.380 -10.189  -2.611  0.00  0.00    -0.646 OA
ENDBRANCH   1  15
BRANCH   1  18
HETATM   18  N           1     -20.911  -7.113  -3.231  0.00  0.00    -0.344 N 
HETATM   19  C           1     -21.364  -6.619  -4.424  0.00  0.00     0.249 C 
HETATM   20  O           1     -22.550  -6.504  -4.618  0.00  0.00    -0.271 OA
HETATM   21  H           1     -20.717  -6.483  -2.463  0.00  0.00     0.163 HD
BRANCH  19  22
HETATM   22  C           1     -20.381  -6.220  -5.497  0.00  0.00     0.284 C 
BRANCH  22  23
HETATM   23  C           1     -20.289  -4.701  -5.562  0.00  0.00     0.155 C 
BRANCH  23  24
HETATM   24  C           1     -20.785  -4.223  -6.905  0.00  0.00     0.175 C 
HETATM   25  O           1     -22.011  -4.073  -7.101  0.00  0.00    -0.648 OA
HETATM   26  O           1     -19.971  -3.978  -7.821  0.00  0.00    -0.648 OA
ENDBRANCH  23  24
ENDBRANCH  22  23
BRANCH  22  27
HETATM   27  N           1     -20.845  -6.748  -6.822  0.00  0.00    -0.066 N 
HETATM   28  H           1     -20.458  -6.154  -7.589  0.00  0.00     0.275 HD
HETATM   29  H           1     -20.511  -7.730  -6.940  0.00  0.00     0.275 HD
HETATM   30  H           1     -21.889  -6.727  -6.859  0.00  0.00     0.275 HD
ENDBRANCH  22  27
ENDBRANCH  19  22
ENDBRANCH   1  18
TORSDOF 11
ENDMDL
MODEL 7
REMARK VINA RESULT:      -6.5      1.835      2.494
REMARK  11 active torsions:
REMARK  status: ('A' for Active; 'I' for Inactive)
REMARK       I    between atoms: C_1  and  N_15 
REMARK    1  A    between atoms: C_1  and  C_13 
REMARK    2  A    between atoms: C_3  and  C_4 
REMARK    3  A    between atoms: C_4  and  C_5 
REMARK    4  A    between atoms: C_5  and  C_7 
REMARK    5  A    between atoms: C_5  and  N_15 
REMARK    6  A    between atoms: C_13  and  C_23 
REMARK    7  A    between atoms: C_13  and  N_30 
REMARK    8  A    between atoms: O_14  and  P_20 
REMARK    9  A    between atoms: C_18  and  O_19 
REMARK   10  A    between atoms: O_19  and  P_20 
REMARK   11  A    between atoms: C_23  and  C_25 
ROOT
HETATM    1  C           1     -21.084  -6.851  -6.223  0.00  0.00     0.189 C 
ENDROOT
BRANCH   1   2
HETATM    2  C           1     -19.883  -7.659  -5.751  0.00  0.00     0.074 C 
BRANCH   2   3
HETATM    3  C           1     -20.309  -8.600  -4.666  0.00  0.00    -0.056 A 
HETATM    4  C           1     -19.595  -8.655  -3.470  0.00  0.00     0.010 A 
HETATM    5  C           1     -19.992  -9.531  -2.461  0.00  0.00     0.038 A 
HETATM    6  C           1     -21.103 -10.354  -2.648  0.00  0.00     0.081 A 
HETATM    7  C           1     -21.818 -10.299  -3.845  0.00  0.00     0.038 A 
HETATM    8  C           1     -21.420  -9.422  -4.855  0.00  0.00     0.010 A 
BRANCH   6   9
HETATM    9  O           1     -21.489 -11.205  -1.668  0.00  0.00    -0.247 OA
BRANCH   9  10
HETATM   10  P           1     -22.191 -10.581  -0.354  0.00  0.00     0.411 P 
HETATM   11  O           1     -23.209 -11.526   0.158  0.00  0.00    -0.624 OA
HETATM   12  O           1     -22.840  -9.298  -0.702  0.00  0.00    -0.624 OA
BRANCH  10  13
HETATM   13  O           1     -21.073 -10.330   0.784  0.00  0.00    -0.300 OA
HETATM   14  H           1     -20.566  -9.600   0.471  0.00  0.00     0.223 HD
ENDBRANCH  10  13
ENDBRANCH   9  10
ENDBRANCH   6   9
ENDBRANCH   2   3
ENDBRANCH   1   2
BRANCH   1  15
HETATM   15  C           1     -21.629  -6.039  -5.073  0.00  0.00     0.197 C 
HETATM   16  O           1     -20.849  -5.392  -4.342  0.00  0.00    -0.646 OA
HETATM   17  O           1     -22.859  -6.014  -4.853  0.00  0.00    -0.646 OA
ENDBRANCH   1  15
BRANCH   1  18
HETATM   18  N           1     -20.677  -5.961  -7.293  0.00  0.00    -0.344 N 
HETATM   19  C           1     -21.363  -4.798  -7.514  0.00  0.00     0.249 C 
HETATM   20  O           1     -21.028  -3.783  -6.952  0.00  0.00    -0.271 OA
HETATM   21  H           1     -19.885  -6.201  -7.875  0.00  0.00     0.163 HD
BRANCH  19  22
HETATM   22  C           1     -22.537  -4.784  -8.461  0.00  0.00     0.284 C 
BRANCH  22  23
HETATM   23  C           1     -22.192  -3.950  -9.688  0.00  0.00     0.155 C 
BRANCH  23  24
HETATM   24  C           1     -23.395  -3.867 -10.596  0.00  0.00     0.175 C 
HETATM   25  O           1     -23.490  -4.633 -11.580  0.00  0.00    -0.648 OA
HETATM   26  O           1     -24.296  -3.032 -10.364  0.00  0.00    -0.648 OA
ENDBRANCH  23  24
ENDBRANCH  22  23
BRANCH  22  27
HETATM   27  N           1     -23.729  -4.187  -7.772  0.00  0.00    -0.066 N 
HETATM   28  H           1     -24.347  -4.951  -7.418  0.00  0.00     0.275 HD
HETATM   29  H           1     -23.408  -3.599  -6.971  0.00  0.00     0.275 HD
HETATM   30  H           1     -24.261  -3.594  -8.449  0.00  0.00     0.275 HD
ENDBRANCH  22  27
ENDBRANCH  19  22
ENDBRANCH   1  18
TORSDOF 11
ENDMDL
MODEL 8
REMARK VINA RESULT:      -6.5      3.694      6.519
REMARK  11 active torsions:
REMARK  status: ('A' for Active; 'I' for Inactive)
REMARK       I    between atoms: C_1  and  N_15 
REMARK    1  A    between atoms: C_1  and  C_13 
REMARK    2  A    between atoms: C_3  and  C_4 
REMARK    3  A    between atoms: C_4  and  C_5 
REMARK    4  A    between atoms: C_5  and  C_7 
REMARK    5  A    between atoms: C_5  and  N_15 
REMARK    6  A    between atoms: C_13  and  C_23 
REMARK    7  A    between atoms: C_13  and  N_30 
REMARK    8  A    between atoms: O_14  and  P_20 
REMARK    9  A    between atoms: C_18  and  O_19 
REMARK   10  A    between atoms: O_19  and  P_20 
REMARK   11  A    between atoms: C_23  and  C_25 
ROOT
HETATM    1  C           1     -21.439  -8.643  -1.479  0.00  0.00     0.189 C 
ENDROOT
BRANCH   1   2
HETATM    2  C           1     -20.324  -9.681  -1.449  0.00  0.00     0.074 C 
BRANCH   2   3
HETATM    3  C           1     -19.903 -10.001  -2.850  0.00  0.00    -0.056 A 
HETATM    4  C           1     -20.825 -10.530  -3.752  0.00  0.00     0.010 A 
HETATM    5  C           1     -20.432 -10.829  -5.056  0.00  0.00     0.038 A 
HETATM    6  C           1     -19.116 -10.600  -5.458  0.00  0.00     0.081 A 
HETATM    7  C           1     -18.193 -10.070  -4.555  0.00  0.00     0.038 A 
HETATM    8  C           1     -18.587  -9.772  -3.251  0.00  0.00     0.010 A 
BRANCH   6   9
HETATM    9  O           1     -18.734 -10.889  -6.725  0.00  0.00    -0.247 OA
BRANCH   9  10
HETATM   10  P           1     -18.016 -12.311  -6.995  0.00  0.00     0.411 P 
HETATM   11  O           1     -18.355 -12.785  -8.355  0.00  0.00    -0.624 OA
HETATM   12  O           1     -18.484 -13.298  -5.997  0.00  0.00    -0.624 OA
BRANCH  10  13
HETATM   13  O           1     -16.415 -12.136  -6.872  0.00  0.00    -0.300 OA
HETATM   14  H           1     -16.240 -11.265  -7.186  0.00  0.00     0.223 HD
ENDBRANCH  10  13
ENDBRANCH   9  10
ENDBRANCH   6   9
ENDBRANCH   2   3
ENDBRANCH   1   2
BRANCH   1  15
HETATM   15  C           1     -21.856  -8.311  -0.068  0.00  0.00     0.197 C 
HETATM   16  O           1     -21.036  -8.422   0.869  0.00  0.00    -0.646 OA
HETATM   17  O           1     -23.022  -7.924   0.164  0.00  0.00    -0.646 OA
ENDBRANCH   1  15
BRANCH   1  18
HETATM   18  N           1     -20.963  -7.442  -2.138  0.00  0.00    -0.344 N 
HETATM   19  C           1     -21.799  -6.734  -2.958  0.00  0.00     0.249 C 
HETATM   20  O           1     -22.483  -5.849  -2.504  0.00  0.00    -0.271 OA
HETATM   21  H           1     -20.012  -7.128  -1.991  0.00  0.00     0.163 HD
BRANCH  19  22
HETATM   22  C           1     -21.866  -7.060  -4.430  0.00  0.00     0.284 C 
BRANCH  22  23
HETATM   23  C           1     -20.464  -7.013  -5.025  0.00  0.00     0.155 C 
BRANCH  23  24
HETATM   24  C           1     -20.415  -5.973  -6.117  0.00  0.00     0.175 C 
HETATM   25  O           1     -20.088  -4.797  -5.846  0.00  0.00    -0.648 OA
HETATM   26  O           1     -20.701  -6.286  -7.293  0.00  0.00    -0.648 OA
ENDBRANCH  23  24
ENDBRANCH  22  23
BRANCH  22  27
HETATM   27  N           1     -22.736  -6.055  -5.126  0.00  0.00    -0.066 N 
HETATM   28  H           1     -23.379  -6.548  -5.785  0.00  0.00     0.275 HD
HETATM   29  H           1     -23.297  -5.532  -4.417  0.00  0.00     0.275 HD
HETATM   30  H           1     -22.136  -5.386  -5.660  0.00  0.00     0.275 HD
ENDBRANCH  22  27
ENDBRANCH  19  22
ENDBRANCH   1  18
TORSDOF 11
ENDMDL
MODEL 9
REMARK VINA RESULT:      -6.4      3.589      5.849
REMARK  11 active torsions:
REMARK  status: ('A' for Active; 'I' for Inactive)
REMARK       I    between atoms: C_1  and  N_15 
REMARK    1  A    between atoms: C_1  and  C_13 
REMARK    2  A    between atoms: C_3  and  C_4 
REMARK    3  A    between atoms: C_4  and  C_5 
REMARK    4  A    between atoms: C_5  and  C_7 
REMARK    5  A    between atoms: C_5  and  N_15 
REMARK    6  A    between atoms: C_13  and  C_23 
REMARK    7  A    between atoms: C_13  and  N_30 
REMARK    8  A    between atoms: O_14  and  P_20 
REMARK    9  A    between atoms: C_18  and  O_19 
REMARK   10  A    between atoms: O_19  and  P_20 
REMARK   11  A    between atoms: C_23  and  C_25 
ROOT
HETATM    1  C           1     -21.358  -7.692  -2.481  0.00  0.00     0.189 C 
ENDROOT
BRANCH   1   2
HETATM    2  C           1     -19.903  -7.990  -2.144  0.00  0.00     0.074 C 
BRANCH   2   3
HETATM    3  C           1     -19.445  -9.185  -2.922  0.00  0.00    -0.056 A 
HETATM    4  C           1     -18.087  -9.378  -3.169  0.00  0.00     0.010 A 
HETATM    5  C           1     -17.661 -10.490  -3.894  0.00  0.00     0.038 A 
HETATM    6  C           1     -18.593 -11.411  -4.372  0.00  0.00     0.081 A 
HETATM    7  C           1     -19.953 -11.218  -4.124  0.00  0.00     0.038 A 
HETATM    8  C           1     -20.378 -10.105  -3.399  0.00  0.00     0.010 A 
BRANCH   6   9
HETATM    9  O           1     -18.180 -12.492  -5.075  0.00  0.00    -0.247 OA
BRANCH   9  10
HETATM   10  P           1     -18.275 -12.431  -6.686  0.00  0.00     0.411 P 
HETATM   11  O           1     -19.308 -13.382  -7.156  0.00  0.00    -0.624 OA
HETATM   12  O           1     -16.966 -12.794  -7.273  0.00  0.00    -0.624 OA
BRANCH  10  13
HETATM   13  O           1     -18.676 -10.935  -7.144  0.00  0.00    -0.300 OA
HETATM   14  H           1     -18.836 -10.468  -6.341  0.00  0.00     0.223 HD
ENDBRANCH  10  13
ENDBRANCH   9  10
ENDBRANCH   6   9
ENDBRANCH   2   3
ENDBRANCH   1   2
BRANCH   1  15
HETATM   15  C           1     -22.184  -7.719  -1.219  0.00  0.00     0.197 C 
HETATM   16  O           1     -22.315  -8.785  -0.580  0.00  0.00    -0.646 OA
HETATM   17  O           1     -22.736  -6.674  -0.811  0.00  0.00    -0.646 OA
ENDBRANCH   1  15
BRANCH   1  18
HETATM   18  N           1     -21.452  -6.381  -3.093  0.00  0.00    -0.344 N 
HETATM   19  C           1     -21.685  -6.267  -4.437  0.00  0.00     0.249 C 
HETATM   20  O           1     -22.817  -6.208  -4.851  0.00  0.00    -0.271 OA
HETATM   21  H           1     -21.346  -5.549  -2.526  0.00  0.00     0.163 HD
BRANCH  19  22
HETATM   22  C           1     -20.525  -6.216  -5.401  0.00  0.00     0.284 C 
BRANCH  22  23
HETATM   23  C           1     -20.080  -4.771  -5.586  0.00  0.00     0.155 C 
BRANCH  23  24
HETATM   24  C           1     -20.498  -4.287  -6.953  0.00  0.00     0.175 C 
HETATM   25  O           1     -19.679  -4.298  -7.898  0.00  0.00    -0.648 OA
HETATM   26  O           1     -21.663  -3.875  -7.142  0.00  0.00    -0.648 OA
ENDBRANCH  23  24
ENDBRANCH  22  23
BRANCH  22  27
HETATM   27  N           1     -20.949  -6.781  -6.724  0.00  0.00    -0.066 N 
HETATM   28  H           1     -21.971  -6.615  -6.863  0.00  0.00     0.275 HD
HETATM   29  H           1     -20.413  -6.313  -7.489  0.00  0.00     0.275 HD
HETATM   30  H           1     -20.758  -7.808  -6.742  0.00  0.00     0.275 HD
ENDBRANCH  22  27
ENDBRANCH  19  22
ENDBRANCH   1  18
TORSDOF 11
ENDMDL
