MODEL 1
REMARK VINA RESULT:      -6.0      0.000      0.000
REMARK  5 active torsions:
REMARK  status: ('A' for Active; 'I' for Inactive)
REMARK    1  A    between atoms: C_1  and  C_12 
REMARK    2  A    between atoms: C_1  and  C_2 
REMARK    3  A    between atoms: C_1  and  N_6 
REMARK       I    between atoms: N_6  and  C_7 
REMARK    4  A    between atoms: C_7  and  C_8 
REMARK    5  A    between atoms: C_12  and  O_17 
ROOT
HETATM    1  H           1     -21.075  -5.314  -9.889  0.00  0.00     0.163 HD
HETATM    2  N           1     -21.741  -4.683  -9.461  0.00  0.00    -0.343 N 
HETATM    3  C           1     -22.020  -4.786  -8.124  0.00  0.00     0.251 C 
HETATM    4  O           1     -22.813  -4.031  -7.614  0.00  0.00    -0.271 OA
ENDROOT
BRANCH   2   5
HETATM    5  C           1     -22.399  -3.670 -10.263  0.00  0.00     0.209 C 
BRANCH   5   6
HETATM    6  C           1     -21.474  -3.234 -11.392  0.00  0.00     0.200 C 
BRANCH   6   7
HETATM    7  O           1     -21.867  -3.858 -12.585  0.00  0.00    -0.398 OA
HETATM    8  H           1     -22.807  -3.813 -12.620  0.00  0.00     0.209 HD
ENDBRANCH   6   7
ENDBRANCH   5   6
BRANCH   5   9
HETATM    9  C           1     -23.669  -4.239 -10.846  0.00  0.00     0.198 C 
HETATM   10  O           1     -23.748  -5.461 -11.099  0.00  0.00    -0.646 OA
HETATM   11  O           1     -24.642  -3.490 -11.076  0.00  0.00    -0.646 OA
ENDBRANCH   5   9
ENDBRANCH   2   5
BRANCH   3  12
HETATM   12  C           1     -21.334  -5.839  -7.289  0.00  0.00     0.311 C 
HETATM   13  N           1     -19.914  -5.922  -7.622  0.00  0.00     0.097 N 
HETATM   14  H           1     -19.512  -6.793  -7.274  0.00  0.00     0.317 HD
HETATM   15  C           1     -19.298  -4.791  -6.934  0.00  0.00     0.271 C 
HETATM   16  C           1     -20.002  -4.759  -5.588  0.00  0.00     0.033 C 
HETATM   17  C           1     -21.338  -5.452  -5.821  0.00  0.00     0.047 C 
ENDBRANCH   3  12
TORSDOF 5
ENDMDL
MODEL 2
REMARK VINA RESULT:      -6.0      8.861     11.160
REMARK  5 active torsions:
REMARK  status: ('A' for Active; 'I' for Inactive)
REMARK    1  A    between atoms: C_1  and  C_12 
REMARK    2  A    between atoms: C_1  and  C_2 
REMARK    3  A    between atoms: C_1  and  N_6 
REMARK       I    between atoms: N_6  and  C_7 
REMARK    4  A    between atoms: C_7  and  C_8 
REMARK    5  A    between atoms: C_12  and  O_17 
ROOT
HETATM    1  H           1     -27.222  -6.900 -18.401  0.00  0.00     0.163 HD
HETATM    2  N           1     -27.016  -6.182 -17.719  0.00  0.00    -0.343 N 
HETATM    3  C           1     -27.888  -5.141 -17.537  0.00  0.00     0.251 C 
HETATM    4  O           1     -27.642  -4.284 -16.722  0.00  0.00    -0.271 OA
ENDROOT
BRANCH   2   5
HETATM    5  C           1     -25.800  -6.254 -16.934  0.00  0.00     0.209 C 
BRANCH   5   6
HETATM    6  C           1     -26.039  -7.115 -15.701  0.00  0.00     0.200 C 
BRANCH   6   7
HETATM    7  O           1     -24.945  -7.000 -14.831  0.00  0.00    -0.398 OA
HETATM    8  H           1     -24.949  -7.767 -14.284  0.00  0.00     0.209 HD
ENDBRANCH   6   7
ENDBRANCH   5   6
BRANCH   5   9
HETATM    9  C           1     -24.700  -6.867 -17.767  0.00  0.00     0.198 C 
HETATM   10  O           1     -24.640  -6.629 -18.993  0.00  0.00    -0.646 OA
HETATM   11  O           1     -23.850  -7.609 -17.232  0.00  0.00    -0.646 OA
ENDBRANCH   5   9
ENDBRANCH   2   5
BRANCH   3  12
HETATM   12  C           1     -29.155  -5.067 -18.353  0.00  0.00     0.311 C 
HETATM   13  N           1     -29.905  -6.316 -18.262  0.00  0.00     0.097 N 
HETATM   14  H           1     -30.600  -6.375 -19.007  0.00  0.00     0.317 HD
HETATM   15  C           1     -30.581  -6.257 -16.969  0.00  0.00     0.271 C 
HETATM   16  C           1     -31.042  -4.813 -16.866  0.00  0.00     0.033 C 
HETATM   17  C           1     -30.106  -4.031 -17.780  0.00  0.00     0.047 C 
ENDBRANCH   3  12
TORSDOF 5
ENDMDL
MODEL 3
REMARK VINA RESULT:      -5.9     12.984     14.197
REMARK  5 active torsions:
REMARK  status: ('A' for Active; 'I' for Inactive)
REMARK    1  A    between atoms: C_1  and  C_12 
REMARK    2  A    between atoms: C_1  and  C_2 
REMARK    3  A    between atoms: C_1  and  N_6 
REMARK       I    between atoms: N_6  and  C_7 
REMARK    4  A    between atoms: C_7  and  C_8 
REMARK    5  A    between atoms: C_12  and  O_17 
ROOT
HETATM    1  H           1     -33.781  -1.153 -12.486  0.00  0.00     0.163 HD
HETATM    2  N           1     -34.776  -1.106 -12.314  0.00  0.00    -0.343 N 
HETATM    3  C           1     -35.353  -1.948 -11.401  0.00  0.00     0.251 C 
HETATM    4  O           1     -36.542  -1.892 -11.194  0.00  0.00    -0.271 OA
ENDROOT
BRANCH   2   5
HETATM    5  C           1     -35.593  -0.148 -13.033  0.00  0.00     0.209 C 
BRANCH   5   6
HETATM    6  C           1     -34.735   1.036 -13.459  0.00  0.00     0.200 C 
BRANCH   6   7
HETATM    7  O           1     -35.307   1.647 -14.584  0.00  0.00    -0.398 OA
HETATM    8  H           1     -34.632   1.699 -15.239  0.00  0.00     0.209 HD
ENDBRANCH   6   7
ENDBRANCH   5   6
BRANCH   5   9
HETATM    9  C           1     -36.180  -0.808 -14.258  0.00  0.00     0.198 C 
HETATM   10  O           1     -37.418  -0.816 -14.430  0.00  0.00    -0.646 OA
HETATM   11  O           1     -35.428  -1.345 -15.099  0.00  0.00    -0.646 OA
ENDBRANCH   5   9
ENDBRANCH   2   5
BRANCH   3  12
HETATM   12  C           1     -34.503  -2.945 -10.651  0.00  0.00     0.311 C 
HETATM   13  N           1     -35.013  -4.301 -10.830  0.00  0.00     0.097 N 
HETATM   14  H           1     -34.624  -4.929 -10.126  0.00  0.00     0.317 HD
HETATM   15  C           1     -34.551  -4.707 -12.155  0.00  0.00     0.271 C 
HETATM   16  C           1     -33.135  -4.162 -12.227  0.00  0.00     0.033 C 
HETATM   17  C           1     -33.102  -3.006 -11.236  0.00  0.00     0.047 C 
ENDBRANCH   3  12
TORSDOF 5
ENDMDL
MODEL 4
REMARK VINA RESULT:      -5.7     12.358     14.998
REMARK  5 active torsions:
REMARK  status: ('A' for Active; 'I' for Inactive)
REMARK    1  A    between atoms: C_1  and  C_12 
REMARK    2  A    between atoms: C_1  and  C_2 
REMARK    3  A    between atoms: C_1  and  N_6 
REMARK       I    between atoms: N_6  and  C_7 
REMARK    4  A    between atoms: C_7  and  C_8 
REMARK    5  A    between atoms: C_12  and  O_17 
ROOT
HETATM    1  H           1     -33.860  -1.618 -13.778  0.00  0.00     0.163 HD
HETATM    2  N           1     -34.672  -1.787 -13.199  0.00  0.00    -0.343 N 
HETATM    3  C           1     -35.784  -0.999 -13.334  0.00  0.00     0.251 C 
HETATM    4  O           1     -36.755  -1.202 -12.643  0.00  0.00    -0.271 OA
ENDROOT
BRANCH   2   5
HETATM    5  C           1     -34.659  -2.861 -12.225  0.00  0.00     0.209 C 
BRANCH   5   6
HETATM    6  C           1     -34.518  -4.197 -12.943  0.00  0.00     0.200 C 
BRANCH   6   7
HETATM    7  O           1     -33.675  -4.044 -14.054  0.00  0.00    -0.398 OA
HETATM    8  H           1     -33.130  -4.812 -14.090  0.00  0.00     0.209 HD
ENDBRANCH   6   7
ENDBRANCH   5   6
BRANCH   5   9
HETATM    9  C           1     -33.494  -2.672 -11.284  0.00  0.00     0.198 C 
HETATM   10  O           1     -32.474  -3.384 -11.403  0.00  0.00    -0.646 OA
HETATM   11  O           1     -33.550  -1.804 -10.388  0.00  0.00    -0.646 OA
ENDBRANCH   5   9
ENDBRANCH   2   5
BRANCH   3  12
HETATM   12  C           1     -35.798   0.119 -14.348  0.00  0.00     0.311 C 
HETATM   13  N           1     -34.883  -0.168 -15.449  0.00  0.00     0.097 N 
HETATM   14  H           1     -34.682   0.679 -15.982  0.00  0.00     0.317 HD
HETATM   15  C           1     -35.598  -1.119 -16.296  0.00  0.00     0.271 C 
HETATM   16  C           1     -37.025  -0.598 -16.301  0.00  0.00     0.033 C 
HETATM   17  C           1     -37.155   0.219 -15.022  0.00  0.00     0.047 C 
ENDBRANCH   3  12
TORSDOF 5
ENDMDL
MODEL 5
REMARK VINA RESULT:      -5.6     10.491     11.970
REMARK  5 active torsions:
REMARK  status: ('A' for Active; 'I' for Inactive)
REMARK    1  A    between atoms: C_1  and  C_12 
REMARK    2  A    between atoms: C_1  and  C_2 
REMARK    3  A    between atoms: C_1  and  N_6 
REMARK       I    between atoms: N_6  and  C_7 
REMARK    4  A    between atoms: C_7  and  C_8 
REMARK    5  A    between atoms: C_12  and  O_17 
ROOT
HETATM    1  H           1     -27.604  -8.283 -18.990  0.00  0.00     0.163 HD
HETATM    2  N           1     -27.544  -7.313 -19.271  0.00  0.00    -0.343 N 
HETATM    3  C           1     -28.375  -6.384 -18.704  0.00  0.00     0.251 C 
HETATM    4  O           1     -28.302  -5.225 -19.038  0.00  0.00    -0.271 OA
ENDROOT
BRANCH   2   5
HETATM    5  C           1     -26.578  -6.906 -20.273  0.00  0.00     0.209 C 
BRANCH   5   6
HETATM    6  C           1     -25.260  -6.553 -19.597  0.00  0.00     0.200 C 
BRANCH   6   7
HETATM    7  O           1     -24.611  -7.730 -19.195  0.00  0.00    -0.398 OA
HETATM    8  H           1     -24.991  -7.984 -18.371  0.00  0.00     0.209 HD
ENDBRANCH   6   7
ENDBRANCH   5   6
BRANCH   5   9
HETATM    9  C           1     -26.356  -8.040 -21.245  0.00  0.00     0.198 C 
HETATM   10  O           1     -25.241  -8.183 -21.792  0.00  0.00    -0.646 OA
HETATM   11  O           1     -27.285  -8.834 -21.501  0.00  0.00    -0.646 OA
ENDBRANCH   5   9
ENDBRANCH   2   5
BRANCH   3  12
HETATM   12  C           1     -29.379  -6.807 -17.660  0.00  0.00     0.311 C 
HETATM   13  N           1     -28.787  -7.762 -16.727  0.00  0.00     0.097 N 
HETATM   14  H           1     -29.512  -8.251 -16.202  0.00  0.00     0.317 HD
HETATM   15  C           1     -27.985  -6.952 -15.814  0.00  0.00     0.271 C 
HETATM   16  C           1     -28.848  -5.726 -15.565  0.00  0.00     0.033 C 
HETATM   17  C           1     -29.767  -5.634 -16.777  0.00  0.00     0.047 C 
ENDBRANCH   3  12
TORSDOF 5
ENDMDL
MODEL 6
REMARK VINA RESULT:      -5.5     12.323     14.758
REMARK  5 active torsions:
REMARK  status: ('A' for Active; 'I' for Inactive)
REMARK    1  A    between atoms: C_1  and  C_12 
REMARK    2  A    between atoms: C_1  and  C_2 
REMARK    3  A    between atoms: C_1  and  N_6 
REMARK       I    between atoms: N_6  and  C_7 
REMARK    4  A    between atoms: C_7  and  C_8 
REMARK    5  A    between atoms: C_12  and  O_17 
ROOT
HETATM    1  H           1     -34.668  -1.807 -11.122  0.00  0.00     0.163 HD
HETATM    2  N           1     -34.633  -2.129 -12.081  0.00  0.00    -0.343 N 
HETATM    3  C           1     -35.070  -1.315 -13.092  0.00  0.00     0.251 C 
HETATM    4  O           1     -35.027  -1.698 -14.237  0.00  0.00    -0.271 OA
ENDROOT
BRANCH   2   5
HETATM    5  C           1     -34.121  -3.451 -12.385  0.00  0.00     0.209 C 
BRANCH   5   6
HETATM    6  C           1     -32.772  -3.644 -11.705  0.00  0.00     0.200 C 
BRANCH   6   7
HETATM    7  O           1     -32.154  -4.796 -12.212  0.00  0.00    -0.398 OA
HETATM    8  H           1     -32.699  -5.526 -11.971  0.00  0.00     0.209 HD
ENDBRANCH   6   7
ENDBRANCH   5   6
BRANCH   5   9
HETATM    9  C           1     -35.091  -4.492 -11.881  0.00  0.00     0.198 C 
HETATM   10  O           1     -35.123  -5.624 -12.412  0.00  0.00    -0.646 OA
HETATM   11  O           1     -35.859  -4.224 -10.934  0.00  0.00    -0.646 OA
ENDBRANCH   5   9
ENDBRANCH   2   5
BRANCH   3  12
HETATM   12  C           1     -35.602   0.062 -12.776  0.00  0.00     0.311 C 
HETATM   13  N           1     -36.592   0.476 -13.765  0.00  0.00     0.097 N 
HETATM   14  H           1     -36.749   1.483 -13.720  0.00  0.00     0.317 HD
HETATM   15  C           1     -37.817  -0.225 -13.391  0.00  0.00     0.271 C 
HETATM   16  C           1     -37.834  -0.139 -11.874  0.00  0.00     0.033 C 
HETATM   17  C           1     -36.378   0.054 -11.470  0.00  0.00     0.047 C 
ENDBRANCH   3  12
TORSDOF 5
ENDMDL
MODEL 7
REMARK VINA RESULT:      -5.4     11.095     12.539
REMARK  5 active torsions:
REMARK  status: ('A' for Active; 'I' for Inactive)
REMARK    1  A    between atoms: C_1  and  C_12 
REMARK    2  A    between atoms: C_1  and  C_2 
REMARK    3  A    between atoms: C_1  and  N_6 
REMARK       I    between atoms: N_6  and  C_7 
REMARK    4  A    between atoms: C_7  and  C_8 
REMARK    5  A    between atoms: C_12  and  O_17 
ROOT
HETATM    1  H           1     -30.815  -4.549 -15.607  0.00  0.00     0.163 HD
HETATM    2  N           1     -31.320  -5.084 -16.301  0.00  0.00    -0.343 N 
HETATM    3  C           1     -30.737  -6.182 -16.876  0.00  0.00     0.251 C 
HETATM    4  O           1     -31.341  -6.821 -17.704  0.00  0.00    -0.271 OA
ENDROOT
BRANCH   2   5
HETATM    5  C           1     -32.661  -4.690 -16.687  0.00  0.00     0.209 C 
BRANCH   5   6
HETATM    6  C           1     -33.527  -4.544 -15.442  0.00  0.00     0.200 C 
BRANCH   6   7
HETATM    7  O           1     -34.839  -4.941 -15.737  0.00  0.00    -0.398 OA
HETATM    8  H           1     -34.804  -5.855 -15.964  0.00  0.00     0.209 HD
ENDBRANCH   6   7
ENDBRANCH   5   6
BRANCH   5   9
HETATM    9  C           1     -32.606  -3.370 -17.417  0.00  0.00     0.198 C 
HETATM   10  O           1     -31.539  -2.996 -17.951  0.00  0.00    -0.646 OA
HETATM   11  O           1     -33.626  -2.653 -17.490  0.00  0.00    -0.646 OA
ENDBRANCH   5   9
ENDBRANCH   2   5
BRANCH   3  12
HETATM   12  C           1     -29.342  -6.592 -16.474  0.00  0.00     0.311 C 
HETATM   13  N           1     -28.539  -6.923 -17.648  0.00  0.00     0.097 N 
HETATM   14  H           1     -27.709  -7.452 -17.381  0.00  0.00     0.317 HD
HETATM   15  C           1     -28.139  -5.636 -18.208  0.00  0.00     0.271 C 
HETATM   16  C           1     -27.809  -4.796 -16.985  0.00  0.00     0.033 C 
HETATM   17  C           1     -28.597  -5.428 -15.844  0.00  0.00     0.047 C 
ENDBRANCH   3  12
TORSDOF 5
ENDMDL
MODEL 8
REMARK VINA RESULT:      -5.3     17.603     19.492
REMARK  5 active torsions:
REMARK  status: ('A' for Active; 'I' for Inactive)
REMARK    1  A    between atoms: C_1  and  C_12 
REMARK    2  A    between atoms: C_1  and  C_2 
REMARK    3  A    between atoms: C_1  and  N_6 
REMARK       I    between atoms: N_6  and  C_7 
REMARK    4  A    between atoms: C_7  and  C_8 
REMARK    5  A    between atoms: C_12  and  O_17 
ROOT
HETATM    1  H           1     -10.517   6.154 -19.520  0.00  0.00     0.163 HD
HETATM    2  N           1     -11.258   6.689 -19.954  0.00  0.00    -0.343 N 
HETATM    3  C           1     -12.453   6.088 -20.249  0.00  0.00     0.251 C 
HETATM    4  O           1     -13.338   6.727 -20.766  0.00  0.00    -0.271 OA
ENDROOT
BRANCH   2   5
HETATM    5  C           1     -11.055   8.090 -20.265  0.00  0.00     0.209 C 
BRANCH   5   6
HETATM    6  C           1     -11.315   8.931 -19.021  0.00  0.00     0.200 C 
BRANCH   6   7
HETATM    7  O           1     -10.207   8.851 -18.164  0.00  0.00    -0.398 OA
HETATM    8  H           1      -9.443   8.777 -18.711  0.00  0.00     0.209 HD
ENDBRANCH   6   7
ENDBRANCH   5   6
BRANCH   5   9
HETATM    9  C           1      -9.633   8.302 -20.725  0.00  0.00     0.198 C 
HETATM   10  O           1      -9.250   9.442 -21.067  0.00  0.00    -0.646 OA
HETATM   11  O           1      -8.839   7.338 -20.764  0.00  0.00    -0.646 OA
ENDBRANCH   5   9
ENDBRANCH   2   5
BRANCH   3  12
HETATM   12  C           1     -12.664   4.630 -19.924  0.00  0.00     0.311 C 
HETATM   13  N           1     -13.420   3.967 -20.984  0.00  0.00     0.097 N 
HETATM   14  H           1     -13.797   3.077 -20.656  0.00  0.00     0.317 HD
HETATM   15  C           1     -12.449   3.724 -22.046  0.00  0.00     0.271 C 
HETATM   16  C           1     -11.197   3.291 -21.300  0.00  0.00     0.033 C 
HETATM   17  C           1     -11.342   3.884 -19.904  0.00  0.00     0.047 C 
ENDBRANCH   3  12
TORSDOF 5
ENDMDL
MODEL 9
REMARK VINA RESULT:      -5.2      9.752     11.211
REMARK  5 active torsions:
REMARK  status: ('A' for Active; 'I' for Inactive)
REMARK    1  A    between atoms: C_1  and  C_12 
REMARK    2  A    between atoms: C_1  and  C_2 
REMARK    3  A    between atoms: C_1  and  N_6 
REMARK       I    between atoms: N_6  and  C_7 
REMARK    4  A    between atoms: C_7  and  C_8 
REMARK    5  A    between atoms: C_12  and  O_17 
ROOT
HETATM    1  H           1     -27.168  -7.652 -18.020  0.00  0.00     0.163 HD
HETATM    2  N           1     -26.676  -6.803 -17.771  0.00  0.00    -0.343 N 
HETATM    3  C           1     -27.224  -5.937 -16.863  0.00  0.00     0.251 C 
HETATM    4  O           1     -26.636  -4.924 -16.564  0.00  0.00    -0.271 OA
ENDROOT
BRANCH   2   5
HETATM    5  C           1     -25.392  -6.505 -18.374  0.00  0.00     0.209 C 
BRANCH   5   6
HETATM    6  C           1     -24.296  -7.272 -17.645  0.00  0.00     0.200 C 
BRANCH   6   7
HETATM    7  O           1     -23.047  -6.921 -18.177  0.00  0.00    -0.398 OA
HETATM    8  H           1     -23.210  -6.517 -19.013  0.00  0.00     0.209 HD
ENDBRANCH   6   7
ENDBRANCH   5   6
BRANCH   5   9
HETATM    9  C           1     -25.411  -6.917 -19.826  0.00  0.00     0.198 C 
HETATM   10  O           1     -26.266  -6.435 -20.600  0.00  0.00    -0.646 OA
HETATM   11  O           1     -24.572  -7.737 -20.254  0.00  0.00    -0.646 OA
ENDBRANCH   5   9
ENDBRANCH   2   5
BRANCH   3  12
HETATM   12  C           1     -28.560  -6.248 -16.235  0.00  0.00     0.311 C 
HETATM   13  N           1     -29.463  -5.105 -16.342  0.00  0.00     0.097 N 
HETATM   14  H           1     -30.247  -5.202 -15.697  0.00  0.00     0.317 HD
HETATM   15  C           1     -29.955  -5.140 -17.717  0.00  0.00     0.271 C 
HETATM   16  C           1     -30.189  -6.618 -17.980  0.00  0.00     0.033 C 
HETATM   17  C           1     -29.275  -7.346 -17.002  0.00  0.00     0.047 C 
ENDBRANCH   3  12
TORSDOF 5
ENDMDL
