MODEL 1
REMARK VINA RESULT:      -5.8      0.000      0.000
REMARK  6 active torsions:
REMARK  status: ('A' for Active; 'I' for Inactive)
REMARK    1  A    between atoms: C_2  and  C_14 
REMARK    2  A    between atoms: N_5  and  C_7 
REMARK    3  A    between atoms: C_7  and  C_8 
REMARK       I    between atoms: C_8  and  N_9 
REMARK    4  A    between atoms: N_9  and  C_13 
REMARK    5  A    between atoms: C_12  and  C_13 
REMARK    6  A    between atoms: C_13  and  C_14 
ROOT
HETATM    1  O           1     -34.547  -3.140 -13.325  0.00  0.00    -0.271 OA
HETATM    2  H           1     -34.838  -0.583 -11.531  0.00  0.00     0.163 HD
HETATM    3  C           1     -34.370  -2.413 -12.376  0.00  0.00     0.248 C 
HETATM    4  N           1     -34.986  -1.192 -12.326  0.00  0.00    -0.344 N 
ENDROOT
BRANCH   4   5
HETATM    5  C           1     -35.848  -0.770 -13.412  0.00  0.00     0.195 C 
BRANCH   5   6
HETATM    6  C           1     -35.094   0.175 -14.315  0.00  0.00     0.197 C 
HETATM    7  O           1     -34.713  -0.209 -15.442  0.00  0.00    -0.646 OA
HETATM    8  O           1     -34.851   1.341 -13.937  0.00  0.00    -0.646 OA
ENDBRANCH   5   6
BRANCH   5   9
HETATM    9  C           1     -37.071  -0.062 -12.843  0.00  0.00     0.149 C 
BRANCH   9  10
HETATM   10  C           1     -37.112  -0.253 -11.346  0.00  0.00     0.175 C 
HETATM   11  O           1     -37.779  -1.188 -10.853  0.00  0.00    -0.648 OA
HETATM   12  O           1     -36.478   0.525 -10.599  0.00  0.00    -0.648 OA
ENDBRANCH   9  10
ENDBRANCH   5   9
ENDBRANCH   4   5
BRANCH   3  13
HETATM   13  C           1     -33.472  -2.853 -11.246  0.00  0.00     0.270 C 
HETATM   14  C           1     -33.896  -4.235 -10.768  0.00  0.00     0.050 C 
BRANCH  13  15
HETATM   15  N           1     -33.581  -1.877 -10.112  0.00  0.00    -0.067 N 
HETATM   16  H           1     -34.439  -1.295 -10.234  0.00  0.00     0.275 HD
HETATM   17  H           1     -33.640  -2.399  -9.209  0.00  0.00     0.275 HD
HETATM   18  H           1     -32.738  -1.259 -10.104  0.00  0.00     0.275 HD
ENDBRANCH  13  15
ENDBRANCH   3  13
TORSDOF 6
ENDMDL
MODEL 2
REMARK VINA RESULT:      -5.8      1.577      3.229
REMARK  6 active torsions:
REMARK  status: ('A' for Active; 'I' for Inactive)
REMARK    1  A    between atoms: C_2  and  C_14 
REMARK    2  A    between atoms: N_5  and  C_7 
REMARK    3  A    between atoms: C_7  and  C_8 
REMARK       I    between atoms: C_8  and  N_9 
REMARK    4  A    between atoms: N_9  and  C_13 
REMARK    5  A    between atoms: C_12  and  C_13 
REMARK    6  A    between atoms: C_13  and  C_14 
ROOT
HETATM    1  O           1     -33.662  -2.037 -11.122  0.00  0.00    -0.271 OA
HETATM    2  H           1     -35.519  -2.041 -13.650  0.00  0.00     0.163 HD
HETATM    3  C           1     -34.226  -2.479 -12.095  0.00  0.00     0.248 C 
HETATM    4  N           1     -35.046  -1.671 -12.835  0.00  0.00    -0.344 N 
ENDROOT
BRANCH   4   5
HETATM    5  C           1     -35.240  -0.286 -12.451  0.00  0.00     0.195 C 
BRANCH   5   6
HETATM    6  C           1     -36.432  -0.181 -11.533  0.00  0.00     0.197 C 
HETATM    7  O           1     -37.489  -0.790 -11.808  0.00  0.00    -0.646 OA
HETATM    8  O           1     -36.364   0.514 -10.496  0.00  0.00    -0.646 OA
ENDBRANCH   5   6
BRANCH   5   9
HETATM    9  C           1     -35.481   0.556 -13.696  0.00  0.00     0.149 C 
BRANCH   9  10
HETATM   10  C           1     -35.771  -0.349 -14.868  0.00  0.00     0.175 C 
HETATM   11  O           1     -36.936  -0.750 -15.075  0.00  0.00    -0.648 OA
HETATM   12  O           1     -34.845  -0.697 -15.633  0.00  0.00    -0.648 OA
ENDBRANCH   9  10
ENDBRANCH   5   9
ENDBRANCH   4   5
BRANCH   3  13
HETATM   13  C           1     -34.025  -3.919 -12.494  0.00  0.00     0.270 C 
HETATM   14  C           1     -32.755  -4.455 -11.847  0.00  0.00     0.050 C 
BRANCH  13  15
HETATM   15  N           1     -33.902  -4.012 -13.986  0.00  0.00    -0.067 N 
HETATM   16  H           1     -33.730  -3.061 -14.382  0.00  0.00     0.275 HD
HETATM   17  H           1     -33.104  -4.641 -14.231  0.00  0.00     0.275 HD
HETATM   18  H           1     -34.787  -4.400 -14.384  0.00  0.00     0.275 HD
ENDBRANCH  13  15
ENDBRANCH   3  13
TORSDOF 6
ENDMDL
MODEL 3
REMARK VINA RESULT:      -5.7      9.952     11.278
REMARK  6 active torsions:
REMARK  status: ('A' for Active; 'I' for Inactive)
REMARK    1  A    between atoms: C_2  and  C_14 
REMARK    2  A    between atoms: N_5  and  C_7 
REMARK    3  A    between atoms: C_7  and  C_8 
REMARK       I    between atoms: C_8  and  N_9 
REMARK    4  A    between atoms: N_9  and  C_13 
REMARK    5  A    between atoms: C_12  and  C_13 
REMARK    6  A    between atoms: C_13  and  C_14 
ROOT
HETATM    1  O           1     -25.945  -6.199 -17.698  0.00  0.00    -0.271 OA
HETATM    2  H           1     -27.978  -6.847 -19.997  0.00  0.00     0.163 HD
HETATM    3  C           1     -26.323  -6.530 -18.797  0.00  0.00     0.248 C 
HETATM    4  N           1     -27.662  -6.569 -19.077  0.00  0.00    -0.344 N 
ENDROOT
BRANCH   4   5
HETATM    5  C           1     -28.627  -6.214 -18.055  0.00  0.00     0.195 C 
BRANCH   5   6
HETATM    6  C           1     -29.761  -7.208 -18.068  0.00  0.00     0.197 C 
HETATM    7  O           1     -30.757  -7.031 -17.332  0.00  0.00    -0.646 OA
HETATM    8  O           1     -29.708  -8.209 -18.814  0.00  0.00    -0.646 OA
ENDBRANCH   5   6
BRANCH   5   9
HETATM    9  C           1     -29.171  -4.819 -18.334  0.00  0.00     0.149 C 
BRANCH   9  10
HETATM   10  C           1     -28.735  -3.880 -17.235  0.00  0.00     0.175 C 
HETATM   11  O           1     -28.990  -2.659 -17.318  0.00  0.00    -0.648 OA
HETATM   12  O           1     -28.119  -4.324 -16.241  0.00  0.00    -0.648 OA
ENDBRANCH   9  10
ENDBRANCH   5   9
ENDBRANCH   4   5
BRANCH   3  13
HETATM   13  C           1     -25.318  -6.900 -19.860  0.00  0.00     0.270 C 
HETATM   14  C           1     -25.982  -7.789 -20.902  0.00  0.00     0.050 C 
BRANCH  13  15
HETATM   15  N           1     -24.172  -7.637 -19.231  0.00  0.00    -0.067 N 
HETATM   16  H           1     -24.090  -8.585 -19.661  0.00  0.00     0.275 HD
HETATM   17  H           1     -23.288  -7.104 -19.390  0.00  0.00     0.275 HD
HETATM   18  H           1     -24.344  -7.734 -18.204  0.00  0.00     0.275 HD
ENDBRANCH  13  15
ENDBRANCH   3  13
TORSDOF 6
ENDMDL
MODEL 4
REMARK VINA RESULT:      -5.6      2.167      4.598
REMARK  6 active torsions:
REMARK  status: ('A' for Active; 'I' for Inactive)
REMARK    1  A    between atoms: C_2  and  C_14 
REMARK    2  A    between atoms: N_5  and  C_7 
REMARK    3  A    between atoms: C_7  and  C_8 
REMARK       I    between atoms: C_8  and  N_9 
REMARK    4  A    between atoms: N_9  and  C_13 
REMARK    5  A    between atoms: C_12  and  C_13 
REMARK    6  A    between atoms: C_13  and  C_14 
ROOT
HETATM    1  O           1     -37.844  -0.683 -13.685  0.00  0.00    -0.271 OA
HETATM    2  H           1     -35.272   0.223 -12.134  0.00  0.00     0.163 HD
HETATM    3  C           1     -36.742  -0.214 -13.524  0.00  0.00     0.248 C 
HETATM    4  N           1     -36.195  -0.169 -12.270  0.00  0.00    -0.344 N 
ENDROOT
BRANCH   4   5
HETATM    5  C           1     -36.939  -0.681 -11.135  0.00  0.00     0.195 C 
BRANCH   5   6
HETATM    6  C           1     -37.086   0.405 -10.099  0.00  0.00     0.197 C 
HETATM    7  O           1     -36.217   0.543  -9.210  0.00  0.00    -0.646 OA
HETATM    8  O           1     -38.075   1.168 -10.128  0.00  0.00    -0.646 OA
ENDBRANCH   5   6
BRANCH   5   9
HETATM    9  C           1     -36.193  -1.863 -10.531  0.00  0.00     0.149 C 
BRANCH   9  10
HETATM   10  C           1     -34.892  -2.067 -11.269  0.00  0.00     0.175 C 
HETATM   11  O           1     -33.865  -1.453 -10.908  0.00  0.00    -0.648 OA
HETATM   12  O           1     -34.841  -2.851 -12.242  0.00  0.00    -0.648 OA
ENDBRANCH   9  10
ENDBRANCH   5   9
ENDBRANCH   4   5
BRANCH   3  13
HETATM   13  C           1     -35.969   0.318 -14.704  0.00  0.00     0.270 C 
HETATM   14  C           1     -34.823   1.190 -14.211  0.00  0.00     0.050 C 
BRANCH  13  15
HETATM   15  N           1     -36.880   1.135 -15.572  0.00  0.00    -0.067 N 
HETATM   16  H           1     -37.458   1.766 -14.974  0.00  0.00     0.275 HD
HETATM   17  H           1     -36.309   1.708 -16.234  0.00  0.00     0.275 HD
HETATM   18  H           1     -37.508   0.497 -16.113  0.00  0.00     0.275 HD
ENDBRANCH  13  15
ENDBRANCH   3  13
TORSDOF 6
ENDMDL
MODEL 5
REMARK VINA RESULT:      -5.6     12.662     14.537
REMARK  6 active torsions:
REMARK  status: ('A' for Active; 'I' for Inactive)
REMARK    1  A    between atoms: C_2  and  C_14 
REMARK    2  A    between atoms: N_5  and  C_7 
REMARK    3  A    between atoms: C_7  and  C_8 
REMARK       I    between atoms: C_8  and  N_9 
REMARK    4  A    between atoms: N_9  and  C_13 
REMARK    5  A    between atoms: C_12  and  C_13 
REMARK    6  A    between atoms: C_13  and  C_14 
ROOT
HETATM    1  O           1     -21.469  -3.247  -7.318  0.00  0.00    -0.271 OA
HETATM    2  H           1     -22.397  -5.770  -8.934  0.00  0.00     0.163 HD
HETATM    3  C           1     -21.622  -4.418  -7.574  0.00  0.00     0.248 C 
HETATM    4  N           1     -22.270  -4.789  -8.720  0.00  0.00    -0.344 N 
ENDROOT
BRANCH   4   5
HETATM    5  C           1     -22.775  -3.778  -9.628  0.00  0.00     0.195 C 
BRANCH   5   6
HETATM    6  C           1     -24.281  -3.846  -9.669  0.00  0.00     0.197 C 
HETATM    7  O           1     -24.959  -2.804  -9.532  0.00  0.00    -0.646 OA
HETATM    8  O           1     -24.853  -4.944  -9.841  0.00  0.00    -0.646 OA
ENDBRANCH   5   6
BRANCH   5   9
HETATM    9  C           1     -22.216  -4.023 -11.023  0.00  0.00     0.149 C 
BRANCH   9  10
HETATM   10  C           1     -20.723  -3.807 -11.013  0.00  0.00     0.175 C 
HETATM   11  O           1     -20.252  -2.685 -11.299  0.00  0.00    -0.648 OA
HETATM   12  O           1     -19.956  -4.750 -10.718  0.00  0.00    -0.648 OA
ENDBRANCH   9  10
ENDBRANCH   5   9
ENDBRANCH   4   5
BRANCH   3  13
HETATM   13  C           1     -21.096  -5.470  -6.629  0.00  0.00     0.270 C 
HETATM   14  C           1     -20.384  -4.798  -5.463  0.00  0.00     0.050 C 
BRANCH  13  15
HETATM   15  N           1     -20.131  -6.359  -7.358  0.00  0.00    -0.067 N 
HETATM   16  H           1     -20.465  -7.347  -7.310  0.00  0.00     0.275 HD
HETATM   17  H           1     -20.069  -6.059  -8.357  0.00  0.00     0.275 HD
HETATM   18  H           1     -19.188  -6.288  -6.912  0.00  0.00     0.275 HD
ENDBRANCH  13  15
ENDBRANCH   3  13
TORSDOF 6
ENDMDL
MODEL 6
REMARK VINA RESULT:      -5.4      2.059      4.909
REMARK  6 active torsions:
REMARK  status: ('A' for Active; 'I' for Inactive)
REMARK    1  A    between atoms: C_2  and  C_14 
REMARK    2  A    between atoms: N_5  and  C_7 
REMARK    3  A    between atoms: C_7  and  C_8 
REMARK       I    between atoms: C_8  and  N_9 
REMARK    4  A    between atoms: N_9  and  C_13 
REMARK    5  A    between atoms: C_12  and  C_13 
REMARK    6  A    between atoms: C_13  and  C_14 
ROOT
HETATM    1  O           1     -36.910  -1.057 -13.400  0.00  0.00    -0.271 OA
HETATM    2  H           1     -33.774  -1.036 -13.322  0.00  0.00     0.163 HD
HETATM    3  C           1     -35.786  -0.739 -13.706  0.00  0.00     0.248 C 
HETATM    4  N           1     -34.716  -1.303 -13.065  0.00  0.00    -0.344 N 
ENDROOT
BRANCH   4   5
HETATM    5  C           1     -34.932  -2.280 -12.016  0.00  0.00     0.195 C 
BRANCH   5   6
HETATM    6  C           1     -34.668  -1.645 -10.674  0.00  0.00     0.197 C 
HETATM    7  O           1     -35.553  -0.951 -10.126  0.00  0.00    -0.646 OA
HETATM    8  O           1     -33.566  -1.811 -10.109  0.00  0.00    -0.646 OA
ENDBRANCH   5   6
BRANCH   5   9
HETATM    9  C           1     -33.986  -3.457 -12.217  0.00  0.00     0.149 C 
BRANCH   9  10
HETATM   10  C           1     -34.422  -4.254 -13.422  0.00  0.00     0.175 C 
HETATM   11  O           1     -34.132  -3.859 -14.572  0.00  0.00    -0.648 OA
HETATM   12  O           1     -35.075  -5.310 -13.271  0.00  0.00    -0.648 OA
ENDBRANCH   9  10
ENDBRANCH   5   9
ENDBRANCH   4   5
BRANCH   3  13
HETATM   13  C           1     -35.561   0.278 -14.798  0.00  0.00     0.270 C 
HETATM   14  C           1     -34.700   1.415 -14.265  0.00  0.00     0.050 C 
BRANCH  13  15
HETATM   15  N           1     -36.883   0.825 -15.252  0.00  0.00    -0.067 N 
HETATM   16  H           1     -37.297   0.185 -15.966  0.00  0.00     0.275 HD
HETATM   17  H           1     -37.529   0.897 -14.433  0.00  0.00     0.275 HD
HETATM   18  H           1     -36.742   1.771 -15.672  0.00  0.00     0.275 HD
ENDBRANCH  13  15
ENDBRANCH   3  13
TORSDOF 6
ENDMDL
MODEL 7
REMARK VINA RESULT:      -5.2     12.292     13.939
REMARK  6 active torsions:
REMARK  status: ('A' for Active; 'I' for Inactive)
REMARK    1  A    between atoms: C_2  and  C_14 
REMARK    2  A    between atoms: N_5  and  C_7 
REMARK    3  A    between atoms: C_7  and  C_8 
REMARK       I    between atoms: C_8  and  N_9 
REMARK    4  A    between atoms: N_9  and  C_13 
REMARK    5  A    between atoms: C_12  and  C_13 
REMARK    6  A    between atoms: C_13  and  C_14 
ROOT
HETATM    1  O           1     -20.690  -5.777  -8.433  0.00  0.00    -0.271 OA
HETATM    2  H           1     -22.840  -3.527  -8.821  0.00  0.00     0.163 HD
HETATM    3  C           1     -21.459  -4.899  -8.121  0.00  0.00     0.248 C 
HETATM    4  N           1     -22.196  -4.262  -9.082  0.00  0.00    -0.344 N 
ENDROOT
BRANCH   4   5
HETATM    5  C           1     -22.051  -4.638 -10.475  0.00  0.00     0.195 C 
BRANCH   5   6
HETATM    6  C           1     -21.165  -3.639 -11.176  0.00  0.00     0.197 C 
HETATM    7  O           1     -19.939  -3.861 -11.288  0.00  0.00    -0.646 OA
HETATM    8  O           1     -21.654  -2.590 -11.647  0.00  0.00    -0.646 OA
ENDBRANCH   5   6
BRANCH   5   9
HETATM    9  C           1     -23.421  -4.657 -11.140  0.00  0.00     0.149 C 
BRANCH   9  10
HETATM   10  C           1     -24.455  -4.126 -10.178  0.00  0.00     0.175 C 
HETATM   11  O           1     -24.639  -2.894 -10.074  0.00  0.00    -0.648 OA
HETATM   12  O           1     -25.129  -4.919  -9.484  0.00  0.00    -0.648 OA
ENDBRANCH   9  10
ENDBRANCH   5   9
ENDBRANCH   4   5
BRANCH   3  13
HETATM   13  C           1     -21.609  -4.508  -6.672  0.00  0.00     0.270 C 
HETATM   14  C           1     -20.259  -4.603  -5.976  0.00  0.00     0.050 C 
BRANCH  13  15
HETATM   15  N           1     -22.582  -5.434  -6.002  0.00  0.00    -0.067 N 
HETATM   16  H           1     -23.425  -5.551  -6.607  0.00  0.00     0.275 HD
HETATM   17  H           1     -22.129  -6.364  -5.851  0.00  0.00     0.275 HD
HETATM   18  H           1     -22.868  -5.030  -5.081  0.00  0.00     0.275 HD
ENDBRANCH  13  15
ENDBRANCH   3  13
TORSDOF 6
ENDMDL
MODEL 8
REMARK VINA RESULT:      -4.9      9.299     10.683
REMARK  6 active torsions:
REMARK  status: ('A' for Active; 'I' for Inactive)
REMARK    1  A    between atoms: C_2  and  C_14 
REMARK    2  A    between atoms: N_5  and  C_7 
REMARK    3  A    between atoms: C_7  and  C_8 
REMARK       I    between atoms: C_8  and  N_9 
REMARK    4  A    between atoms: N_9  and  C_13 
REMARK    5  A    between atoms: C_12  and  C_13 
REMARK    6  A    between atoms: C_13  and  C_14 
ROOT
HETATM    1  O           1     -25.953  -7.430 -15.362  0.00  0.00    -0.271 OA
HETATM    2  H           1     -26.690  -6.251 -18.174  0.00  0.00     0.163 HD
HETATM    3  C           1     -25.777  -7.030 -16.488  0.00  0.00     0.248 C 
HETATM    4  N           1     -26.838  -6.586 -17.230  0.00  0.00    -0.344 N 
ENDROOT
BRANCH   4   5
HETATM    5  C           1     -28.173  -6.597 -16.666  0.00  0.00     0.195 C 
BRANCH   5   6
HETATM    6  C           1     -29.159  -7.048 -17.715  0.00  0.00     0.197 C 
HETATM    7  O           1     -29.369  -6.337 -18.722  0.00  0.00    -0.646 OA
HETATM    8  O           1     -29.765  -8.133 -17.579  0.00  0.00    -0.646 OA
ENDBRANCH   5   6
BRANCH   5   9
HETATM    9  C           1     -28.537  -5.196 -16.195  0.00  0.00     0.149 C 
BRANCH   9  10
HETATM   10  C           1     -29.813  -5.250 -15.391  0.00  0.00     0.175 C 
HETATM   11  O           1     -29.780  -5.586 -14.187  0.00  0.00    -0.648 OA
HETATM   12  O           1     -30.904  -4.958 -15.928  0.00  0.00    -0.648 OA
ENDBRANCH   9  10
ENDBRANCH   5   9
ENDBRANCH   4   5
BRANCH   3  13
HETATM   13  C           1     -24.387  -7.018 -17.075  0.00  0.00     0.270 C 
HETATM   14  C           1     -24.474  -7.122 -18.592  0.00  0.00     0.050 C 
BRANCH  13  15
HETATM   15  N           1     -23.607  -8.182 -16.539  0.00  0.00    -0.067 N 
HETATM   16  H           1     -22.722  -8.289 -17.083  0.00  0.00     0.275 HD
HETATM   17  H           1     -23.380  -8.013 -15.533  0.00  0.00     0.275 HD
HETATM   18  H           1     -24.178  -9.053 -16.627  0.00  0.00     0.275 HD
ENDBRANCH  13  15
ENDBRANCH   3  13
TORSDOF 6
ENDMDL
MODEL 9
REMARK VINA RESULT:      -4.7     13.181     15.011
REMARK  6 active torsions:
REMARK  status: ('A' for Active; 'I' for Inactive)
REMARK    1  A    between atoms: C_2  and  C_14 
REMARK    2  A    between atoms: N_5  and  C_7 
REMARK    3  A    between atoms: C_7  and  C_8 
REMARK       I    between atoms: C_8  and  N_9 
REMARK    4  A    between atoms: N_9  and  C_13 
REMARK    5  A    between atoms: C_12  and  C_13 
REMARK    6  A    between atoms: C_13  and  C_14 
ROOT
HETATM    1  O           1     -20.994  -6.930  -7.078  0.00  0.00    -0.271 OA
HETATM    2  H           1     -22.049  -4.034  -6.496  0.00  0.00     0.163 HD
HETATM    3  C           1     -21.344  -5.978  -6.422  0.00  0.00     0.248 C 
HETATM    4  N           1     -21.756  -4.832  -7.046  0.00  0.00    -0.344 N 
ENDROOT
BRANCH   4   5
HETATM    5  C           1     -21.770  -4.759  -8.494  0.00  0.00     0.195 C 
BRANCH   5   6
HETATM    6  C           1     -20.400  -4.372  -8.991  0.00  0.00     0.197 C 
HETATM    7  O           1     -19.643  -3.686  -8.270  0.00  0.00    -0.646 OA
HETATM    8  O           1     -20.019  -4.738 -10.125  0.00  0.00    -0.646 OA
ENDBRANCH   5   6
BRANCH   5   9
HETATM    9  C           1     -22.786  -3.716  -8.939  0.00  0.00     0.149 C 
BRANCH   9  10
HETATM   10  C           1     -23.578  -4.251 -10.108  0.00  0.00     0.175 C 
HETATM   11  O           1     -23.118  -4.164 -11.267  0.00  0.00    -0.648 OA
HETATM   12  O           1     -24.694  -4.782  -9.916  0.00  0.00    -0.648 OA
ENDBRANCH   9  10
ENDBRANCH   5   9
ENDBRANCH   4   5
BRANCH   3  13
HETATM   13  C           1     -21.329  -6.054  -4.915  0.00  0.00     0.270 C 
HETATM   14  C           1     -20.547  -7.284  -4.475  0.00  0.00     0.050 C 
BRANCH  13  15
HETATM   15  N           1     -22.737  -6.150  -4.405  0.00  0.00    -0.067 N 
HETATM   16  H           1     -23.196  -5.214  -4.472  0.00  0.00     0.275 HD
HETATM   17  H           1     -23.269  -6.840  -4.981  0.00  0.00     0.275 HD
HETATM   18  H           1     -22.725  -6.461  -3.407  0.00  0.00     0.275 HD
ENDBRANCH  13  15
ENDBRANCH   3  13
TORSDOF 6
ENDMDL
