MODEL 1
REMARK VINA RESULT:      -6.7      0.000      0.000
REMARK  10 active torsions:
REMARK  status: ('A' for Active; 'I' for Inactive)
REMARK    1  A    between atoms: C_1  and  C_2 
REMARK    2  A    between atoms: C_1  and  C_19 
REMARK    3  A    between atoms: C_1  and  N_13 
REMARK       I    between atoms: C_2  and  N_3 
REMARK    4  A    between atoms: N_3  and  C_12 
REMARK    5  A    between atoms: C_9  and  C_10 
REMARK    6  A    between atoms: C_9  and  C_12 
REMARK    7  A    between atoms: C_10  and  C_14 
REMARK    8  A    between atoms: C_11  and  C_12 
REMARK    9  A    between atoms: C_17  and  C_18 
REMARK   10  A    between atoms: C_18  and  C_19 
ROOT
HETATM    1  C           1     -26.240  -6.218 -17.610  0.00  0.00     0.249 C 
HETATM    2  N           1     -27.400  -6.538 -18.263  0.00  0.00    -0.345 N 
HETATM    3  O           1     -26.282  -5.634 -16.554  0.00  0.00    -0.271 OA
HETATM    4  H           1     -27.365  -7.027 -19.147  0.00  0.00     0.163 HD
ENDROOT
BRANCH   1   5
HETATM    5  C           1     -24.908  -6.595 -18.211  0.00  0.00     0.275 C 
BRANCH   5   6
HETATM    6  C           1     -25.115  -7.081 -19.640  0.00  0.00     0.053 C 
BRANCH   6   7
HETATM    7  C           1     -23.816  -7.681 -20.164  0.00  0.00     0.115 C 
BRANCH   7   8
HETATM    8  C           1     -24.007  -8.123 -21.594  0.00  0.00     0.172 C 
HETATM    9  O           1     -23.012  -8.349 -22.317  0.00  0.00    -0.648 OA
HETATM   10  O           1     -25.160  -8.262 -22.057  0.00  0.00    -0.648 OA
ENDBRANCH   7   8
ENDBRANCH   6   7
ENDBRANCH   5   6
BRANCH   5  11
HETATM   11  N           1     -24.284  -7.689 -17.397  0.00  0.00    -0.066 N 
HETATM   12  H           1     -24.250  -8.568 -17.961  0.00  0.00     0.275 HD
HETATM   13  H           1     -24.854  -7.852 -16.536  0.00  0.00     0.275 HD
HETATM   14  H           1     -23.315  -7.411 -17.124  0.00  0.00     0.275 HD
ENDBRANCH   5  11
ENDBRANCH   1   5
BRANCH   2  15
HETATM   15  C           1     -28.680  -6.175 -17.684  0.00  0.00     0.186 C 
BRANCH  15  16
HETATM   16  C           1     -29.281  -5.017 -18.470  0.00  0.00     0.046 C 
BRANCH  16  17
HETATM   17  C           1     -29.655  -3.894 -17.512  0.00  0.00     0.116 C 
BRANCH  17  18
HETATM   18  C           1     -31.152  -3.873 -17.319  0.00  0.00     0.172 C 
HETATM   19  O           1     -31.839  -2.982 -17.862  0.00  0.00    -0.648 OA
HETATM   20  O           1     -31.704  -4.747 -16.616  0.00  0.00    -0.648 OA
ENDBRANCH  17  18
ENDBRANCH  16  17
ENDBRANCH  15  16
BRANCH  15  21
HETATM   21  C           1     -29.612  -7.361 -17.744  0.00  0.00     0.196 C 
HETATM   22  O           1     -29.471  -8.308 -16.940  0.00  0.00    -0.646 OA
HETATM   23  O           1     -30.525  -7.396 -18.596  0.00  0.00    -0.646 OA
ENDBRANCH  15  21
ENDBRANCH   2  15
TORSDOF 10
ENDMDL
MODEL 2
REMARK VINA RESULT:      -6.6     10.069     11.483
REMARK  10 active torsions:
REMARK  status: ('A' for Active; 'I' for Inactive)
REMARK    1  A    between atoms: C_1  and  C_2 
REMARK    2  A    between atoms: C_1  and  C_19 
REMARK    3  A    between atoms: C_1  and  N_13 
REMARK       I    between atoms: C_2  and  N_3 
REMARK    4  A    between atoms: N_3  and  C_12 
REMARK    5  A    between atoms: C_9  and  C_10 
REMARK    6  A    between atoms: C_9  and  C_12 
REMARK    7  A    between atoms: C_10  and  C_14 
REMARK    8  A    between atoms: C_11  and  C_12 
REMARK    9  A    between atoms: C_17  and  C_18 
REMARK   10  A    between atoms: C_18  and  C_19 
ROOT
HETATM    1  C           1     -34.335  -2.537 -12.115  0.00  0.00     0.249 C 
HETATM    2  N           1     -35.125  -1.673 -12.825  0.00  0.00    -0.345 N 
HETATM    3  O           1     -33.692  -2.135 -11.175  0.00  0.00    -0.271 OA
HETATM    4  H           1     -35.664  -2.010 -13.612  0.00  0.00     0.163 HD
ENDROOT
BRANCH   1   5
HETATM    5  C           1     -34.266  -3.992 -12.509  0.00  0.00     0.275 C 
BRANCH   5   6
HETATM    6  C           1     -33.586  -4.787 -11.402  0.00  0.00     0.053 C 
BRANCH   6   7
HETATM    7  C           1     -34.644  -5.387 -10.484  0.00  0.00     0.115 C 
BRANCH   7   8
HETATM    8  C           1     -34.351  -6.851 -10.268  0.00  0.00     0.172 C 
HETATM    9  O           1     -33.257  -7.331 -10.635  0.00  0.00    -0.648 OA
HETATM   10  O           1     -35.203  -7.585  -9.722  0.00  0.00    -0.648 OA
ENDBRANCH   7   8
ENDBRANCH   6   7
ENDBRANCH   5   6
BRANCH   5  11
HETATM   11  N           1     -33.479  -4.129 -13.778  0.00  0.00    -0.066 N 
HETATM   12  H           1     -32.795  -3.343 -13.851  0.00  0.00     0.275 HD
HETATM   13  H           1     -34.129  -4.100 -14.597  0.00  0.00     0.275 HD
HETATM   14  H           1     -32.966  -5.039 -13.774  0.00  0.00     0.275 HD
ENDBRANCH   5  11
ENDBRANCH   1   5
BRANCH   2  15
HETATM   15  C           1     -35.191  -0.274 -12.446  0.00  0.00     0.186 C 
BRANCH  15  16
HETATM   16  C           1     -35.305   0.585 -13.699  0.00  0.00     0.046 C 
BRANCH  16  17
HETATM   17  C           1     -35.631  -0.301 -14.894  0.00  0.00     0.116 C 
BRANCH  17  18
HETATM   18  C           1     -37.022   0.012 -15.390  0.00  0.00     0.172 C 
HETATM   19  O           1     -37.221   1.028 -16.091  0.00  0.00    -0.648 OA
HETATM   20  O           1     -37.975  -0.743 -15.099  0.00  0.00    -0.648 OA
ENDBRANCH  17  18
ENDBRANCH  16  17
ENDBRANCH  15  16
BRANCH  15  21
HETATM   21  C           1     -36.398  -0.047 -11.568  0.00  0.00     0.196 C 
HETATM   22  O           1     -36.298   0.655 -10.539  0.00  0.00    -0.646 OA
HETATM   23  O           1     -37.495  -0.562 -11.871  0.00  0.00    -0.646 OA
ENDBRANCH  15  21
ENDBRANCH   2  15
TORSDOF 10
ENDMDL
MODEL 3
REMARK VINA RESULT:      -6.6     10.359     12.029
REMARK  10 active torsions:
REMARK  status: ('A' for Active; 'I' for Inactive)
REMARK    1  A    between atoms: C_1  and  C_2 
REMARK    2  A    between atoms: C_1  and  C_19 
REMARK    3  A    between atoms: C_1  and  N_13 
REMARK       I    between atoms: C_2  and  N_3 
REMARK    4  A    between atoms: N_3  and  C_12 
REMARK    5  A    between atoms: C_9  and  C_10 
REMARK    6  A    between atoms: C_9  and  C_12 
REMARK    7  A    between atoms: C_10  and  C_14 
REMARK    8  A    between atoms: C_11  and  C_12 
REMARK    9  A    between atoms: C_17  and  C_18 
REMARK   10  A    between atoms: C_18  and  C_19 
ROOT
HETATM    1  C           1     -34.531  -1.980 -12.368  0.00  0.00     0.249 C 
HETATM    2  N           1     -35.342  -0.899 -12.151  0.00  0.00    -0.345 N 
HETATM    3  O           1     -34.672  -2.653 -13.361  0.00  0.00    -0.271 OA
HETATM    4  H           1     -35.224  -0.336 -11.320  0.00  0.00     0.163 HD
ENDROOT
BRANCH   1   5
HETATM    5  C           1     -33.460  -2.332 -11.364  0.00  0.00     0.275 C 
BRANCH   5   6
HETATM    6  C           1     -33.139  -3.818 -11.462  0.00  0.00     0.053 C 
BRANCH   6   7
HETATM    7  C           1     -34.052  -4.597 -10.524  0.00  0.00     0.115 C 
BRANCH   7   8
HETATM    8  C           1     -34.614  -5.796 -11.249  0.00  0.00     0.172 C 
HETATM    9  O           1     -35.090  -5.665 -12.397  0.00  0.00    -0.648 OA
HETATM   10  O           1     -34.604  -6.919 -10.700  0.00  0.00    -0.648 OA
ENDBRANCH   7   8
ENDBRANCH   6   7
ENDBRANCH   5   6
BRANCH   5  11
HETATM   11  N           1     -33.949  -2.017  -9.982  0.00  0.00    -0.066 N 
HETATM   12  H           1     -33.811  -2.850  -9.365  0.00  0.00     0.275 HD
HETATM   13  H           1     -34.965  -1.775 -10.017  0.00  0.00     0.275 HD
HETATM   14  H           1     -33.412  -1.206  -9.599  0.00  0.00     0.275 HD
ENDBRANCH   5  11
ENDBRANCH   1   5
BRANCH   2  15
HETATM   15  C           1     -36.372  -0.561 -13.116  0.00  0.00     0.186 C 
BRANCH  15  16
HETATM   16  C           1     -37.588  -0.007 -12.386  0.00  0.00     0.046 C 
BRANCH  16  17
HETATM   17  C           1     -37.662  -0.612 -10.990  0.00  0.00     0.116 C 
BRANCH  17  18
HETATM   18  C           1     -37.239   0.418  -9.972  0.00  0.00     0.172 C 
HETATM   19  O           1     -36.158   0.283  -9.359  0.00  0.00    -0.648 OA
HETATM   20  O           1     -37.970   1.405  -9.740  0.00  0.00    -0.648 OA
ENDBRANCH  17  18
ENDBRANCH  16  17
ENDBRANCH  15  16
BRANCH  15  21
HETATM   21  C           1     -35.842   0.479 -14.073  0.00  0.00     0.196 C 
HETATM   22  O           1     -34.898   1.222 -13.727  0.00  0.00    -0.646 OA
HETATM   23  O           1     -36.347   0.597 -15.209  0.00  0.00    -0.646 OA
ENDBRANCH  15  21
ENDBRANCH   2  15
TORSDOF 10
ENDMDL
MODEL 4
REMARK VINA RESULT:      -6.5      9.576     12.351
REMARK  10 active torsions:
REMARK  status: ('A' for Active; 'I' for Inactive)
REMARK    1  A    between atoms: C_1  and  C_2 
REMARK    2  A    between atoms: C_1  and  C_19 
REMARK    3  A    between atoms: C_1  and  N_13 
REMARK       I    between atoms: C_2  and  N_3 
REMARK    4  A    between atoms: N_3  and  C_12 
REMARK    5  A    between atoms: C_9  and  C_10 
REMARK    6  A    between atoms: C_9  and  C_12 
REMARK    7  A    between atoms: C_10  and  C_14 
REMARK    8  A    between atoms: C_11  and  C_12 
REMARK    9  A    between atoms: C_17  and  C_18 
REMARK   10  A    between atoms: C_18  and  C_19 
ROOT
HETATM    1  C           1     -35.414  -2.639 -10.669  0.00  0.00     0.249 C 
HETATM    2  N           1     -35.508  -1.290 -10.886  0.00  0.00    -0.345 N 
HETATM    3  O           1     -36.402  -3.331 -10.739  0.00  0.00    -0.271 OA
HETATM    4  H           1     -34.681  -0.709 -10.828  0.00  0.00     0.163 HD
ENDROOT
BRANCH   1   5
HETATM    5  C           1     -34.079  -3.259 -10.342  0.00  0.00     0.275 C 
BRANCH   5   6
HETATM    6  C           1     -33.088  -2.953 -11.458  0.00  0.00     0.053 C 
BRANCH   6   7
HETATM    7  C           1     -32.990  -4.153 -12.392  0.00  0.00     0.115 C 
BRANCH   7   8
HETATM    8  C           1     -34.182  -4.169 -13.317  0.00  0.00     0.172 C 
HETATM    9  O           1     -34.333  -3.257 -14.158  0.00  0.00    -0.648 OA
HETATM   10  O           1     -35.019  -5.095 -13.243  0.00  0.00    -0.648 OA
ENDBRANCH   7   8
ENDBRANCH   6   7
ENDBRANCH   5   6
BRANCH   5  11
HETATM   11  N           1     -34.238  -4.745 -10.209  0.00  0.00    -0.066 N 
HETATM   12  H           1     -35.134  -5.041 -10.658  0.00  0.00     0.275 HD
HETATM   13  H           1     -34.254  -5.005  -9.196  0.00  0.00     0.275 HD
HETATM   14  H           1     -33.437  -5.225 -10.678  0.00  0.00     0.275 HD
ENDBRANCH   5  11
ENDBRANCH   1   5
BRANCH   2  15
HETATM   15  C           1     -36.792  -0.693 -11.200  0.00  0.00     0.186 C 
BRANCH  15  16
HETATM   16  C           1     -36.993   0.554 -10.350  0.00  0.00     0.046 C 
BRANCH  16  17
HETATM   17  C           1     -37.644   0.169  -9.028  0.00  0.00     0.116 C 
BRANCH  17  18
HETATM   18  C           1     -36.697   0.471  -7.893  0.00  0.00     0.172 C 
HETATM   19  O           1     -35.489   0.165  -7.989  0.00  0.00    -0.648 OA
HETATM   20  O           1     -37.120   1.027  -6.856  0.00  0.00    -0.648 OA
ENDBRANCH  17  18
ENDBRANCH  16  17
ENDBRANCH  15  16
BRANCH  15  21
HETATM   21  C           1     -36.827  -0.317 -12.662  0.00  0.00     0.196 C 
HETATM   22  O           1     -37.757  -0.727 -13.390  0.00  0.00    -0.646 OA
HETATM   23  O           1     -35.927   0.403 -13.143  0.00  0.00    -0.646 OA
ENDBRANCH  15  21
ENDBRANCH   2  15
TORSDOF 10
ENDMDL
MODEL 5
REMARK VINA RESULT:      -6.2     12.374     14.467
REMARK  10 active torsions:
REMARK  status: ('A' for Active; 'I' for Inactive)
REMARK    1  A    between atoms: C_1  and  C_2 
REMARK    2  A    between atoms: C_1  and  C_19 
REMARK    3  A    between atoms: C_1  and  N_13 
REMARK       I    between atoms: C_2  and  N_3 
REMARK    4  A    between atoms: N_3  and  C_12 
REMARK    5  A    between atoms: C_9  and  C_10 
REMARK    6  A    between atoms: C_9  and  C_12 
REMARK    7  A    between atoms: C_10  and  C_14 
REMARK    8  A    between atoms: C_11  and  C_12 
REMARK    9  A    between atoms: C_17  and  C_18 
REMARK   10  A    between atoms: C_18  and  C_19 
ROOT
HETATM    1  C           1     -20.780  -4.766  -6.912  0.00  0.00     0.249 C 
HETATM    2  N           1     -21.554  -5.677  -6.245  0.00  0.00    -0.345 N 
HETATM    3  O           1     -19.663  -4.520  -6.523  0.00  0.00    -0.271 OA
HETATM    4  H           1     -22.489  -5.883  -6.571  0.00  0.00     0.163 HD
ENDROOT
BRANCH   1   5
HETATM    5  C           1     -21.324  -4.066  -8.134  0.00  0.00     0.275 C 
BRANCH   5   6
HETATM    6  C           1     -22.581  -4.781  -8.612  0.00  0.00     0.053 C 
BRANCH   6   7
HETATM    7  C           1     -23.685  -3.760  -8.853  0.00  0.00     0.115 C 
BRANCH   7   8
HETATM    8  C           1     -23.883  -3.573 -10.337  0.00  0.00     0.172 C 
HETATM    9  O           1     -22.932  -3.766 -11.124  0.00  0.00    -0.648 OA
HETATM   10  O           1     -25.000  -3.224 -10.779  0.00  0.00    -0.648 OA
ENDBRANCH   7   8
ENDBRANCH   6   7
ENDBRANCH   5   6
BRANCH   5  11
HETATM   11  N           1     -20.292  -4.088  -9.222  0.00  0.00    -0.066 N 
HETATM   12  H           1     -20.264  -5.038  -9.657  0.00  0.00     0.275 HD
HETATM   13  H           1     -19.354  -3.863  -8.819  0.00  0.00     0.275 HD
HETATM   14  H           1     -20.537  -3.378  -9.949  0.00  0.00     0.275 HD
ENDBRANCH   5  11
ENDBRANCH   1   5
BRANCH   2  15
HETATM   15  C           1     -21.031  -6.349  -5.070  0.00  0.00     0.186 C 
BRANCH  15  16
HETATM   16  C           1     -22.104  -6.391  -3.991  0.00  0.00     0.046 C 
BRANCH  16  17
HETATM   17  C           1     -21.473  -6.101  -2.635  0.00  0.00     0.116 C 
BRANCH  17  18
HETATM   18  C           1     -21.924  -7.138  -1.637  0.00  0.00     0.172 C 
HETATM   19  O           1     -21.472  -8.302  -1.698  0.00  0.00    -0.648 OA
HETATM   20  O           1     -22.749  -6.834  -0.748  0.00  0.00    -0.648 OA
ENDBRANCH  17  18
ENDBRANCH  16  17
ENDBRANCH  15  16
BRANCH  15  21
HETATM   21  C           1     -20.628  -7.757  -5.435  0.00  0.00     0.196 C 
HETATM   22  O           1     -19.548  -7.964  -6.030  0.00  0.00    -0.646 OA
HETATM   23  O           1     -21.374  -8.716  -5.141  0.00  0.00    -0.646 OA
ENDBRANCH  15  21
ENDBRANCH   2  15
TORSDOF 10
ENDMDL
MODEL 6
REMARK VINA RESULT:      -6.2      9.976     12.075
REMARK  10 active torsions:
REMARK  status: ('A' for Active; 'I' for Inactive)
REMARK    1  A    between atoms: C_1  and  C_2 
REMARK    2  A    between atoms: C_1  and  C_19 
REMARK    3  A    between atoms: C_1  and  N_13 
REMARK       I    between atoms: C_2  and  N_3 
REMARK    4  A    between atoms: N_3  and  C_12 
REMARK    5  A    between atoms: C_9  and  C_10 
REMARK    6  A    between atoms: C_9  and  C_12 
REMARK    7  A    between atoms: C_10  and  C_14 
REMARK    8  A    between atoms: C_11  and  C_12 
REMARK    9  A    between atoms: C_17  and  C_18 
REMARK   10  A    between atoms: C_18  and  C_19 
ROOT
HETATM    1  C           1     -35.519  -1.698 -10.640  0.00  0.00     0.249 C 
HETATM    2  N           1     -35.560  -2.931 -11.234  0.00  0.00    -0.345 N 
HETATM    3  O           1     -34.593  -1.403  -9.924  0.00  0.00    -0.271 OA
HETATM    4  H           1     -36.336  -3.179 -11.834  0.00  0.00     0.163 HD
ENDROOT
BRANCH   1   5
HETATM    5  C           1     -36.633  -0.709 -10.879  0.00  0.00     0.275 C 
BRANCH   5   6
HETATM    6  C           1     -36.748  -0.422 -12.371  0.00  0.00     0.053 C 
BRANCH   6   7
HETATM    7  C           1     -35.533   0.375 -12.829  0.00  0.00     0.115 C 
BRANCH   7   8
HETATM    8  C           1     -35.059  -0.151 -14.161  0.00  0.00     0.172 C 
HETATM    9  O           1     -34.311   0.548 -14.879  0.00  0.00    -0.648 OA
HETATM   10  O           1     -35.414  -1.285 -14.548  0.00  0.00    -0.648 OA
ENDBRANCH   7   8
ENDBRANCH   6   7
ENDBRANCH   5   6
BRANCH   5  11
HETATM   11  N           1     -36.335   0.566 -10.147  0.00  0.00    -0.066 N 
HETATM   12  H           1     -35.410   0.483  -9.667  0.00  0.00     0.275 HD
HETATM   13  H           1     -37.081   0.743  -9.436  0.00  0.00     0.275 HD
HETATM   14  H           1     -36.308   1.359 -10.826  0.00  0.00     0.275 HD
ENDBRANCH   5  11
ENDBRANCH   1   5
BRANCH   2  15
HETATM   15  C           1     -34.489  -3.882 -11.004  0.00  0.00     0.186 C 
BRANCH  15  16
HETATM   16  C           1     -35.049  -5.297 -11.049  0.00  0.00     0.046 C 
BRANCH  16  17
HETATM   17  C           1     -33.919  -6.298 -10.853  0.00  0.00     0.116 C 
BRANCH  17  18
HETATM   18  C           1     -34.431  -7.494 -10.089  0.00  0.00     0.172 C 
HETATM   19  O           1     -33.774  -8.558 -10.080  0.00  0.00    -0.648 OA
HETATM   20  O           1     -35.512  -7.422  -9.466  0.00  0.00    -0.648 OA
ENDBRANCH  17  18
ENDBRANCH  16  17
ENDBRANCH  15  16
BRANCH  15  21
HETATM   21  C           1     -33.437  -3.722 -12.074  0.00  0.00     0.196 C 
HETATM   22  O           1     -33.766  -3.728 -13.280  0.00  0.00    -0.646 OA
HETATM   23  O           1     -32.237  -3.584 -11.755  0.00  0.00    -0.646 OA
ENDBRANCH  15  21
ENDBRANCH   2  15
TORSDOF 10
ENDMDL
MODEL 7
REMARK VINA RESULT:      -6.1     10.354     11.840
REMARK  10 active torsions:
REMARK  status: ('A' for Active; 'I' for Inactive)
REMARK    1  A    between atoms: C_1  and  C_2 
REMARK    2  A    between atoms: C_1  and  C_19 
REMARK    3  A    between atoms: C_1  and  N_13 
REMARK       I    between atoms: C_2  and  N_3 
REMARK    4  A    between atoms: N_3  and  C_12 
REMARK    5  A    between atoms: C_9  and  C_10 
REMARK    6  A    between atoms: C_9  and  C_12 
REMARK    7  A    between atoms: C_10  and  C_14 
REMARK    8  A    between atoms: C_11  and  C_12 
REMARK    9  A    between atoms: C_17  and  C_18 
REMARK   10  A    between atoms: C_18  and  C_19 
ROOT
HETATM    1  C           1     -36.063  -1.230 -12.383  0.00  0.00     0.249 C 
HETATM    2  N           1     -35.295  -2.350 -12.555  0.00  0.00    -0.345 N 
HETATM    3  O           1     -36.342  -0.854 -11.269  0.00  0.00    -0.271 OA
HETATM    4  H           1     -35.062  -2.665 -13.488  0.00  0.00     0.163 HD
ENDROOT
BRANCH   1   5
HETATM    5  C           1     -36.563  -0.466 -13.584  0.00  0.00     0.275 C 
BRANCH   5   6
HETATM    6  C           1     -35.498   0.524 -14.037  0.00  0.00     0.053 C 
BRANCH   6   7
HETATM    7  C           1     -35.680   0.822 -15.520  0.00  0.00     0.115 C 
BRANCH   7   8
HETATM    8  C           1     -35.808  -0.474 -16.282  0.00  0.00     0.172 C 
HETATM    9  O           1     -34.889  -1.321 -16.233  0.00  0.00    -0.648 OA
HETATM   10  O           1     -36.832  -0.701 -16.962  0.00  0.00    -0.648 OA
ENDBRANCH   7   8
ENDBRANCH   6   7
ENDBRANCH   5   6
BRANCH   5  11
HETATM   11  N           1     -37.812   0.279 -13.217  0.00  0.00    -0.066 N 
HETATM   12  H           1     -38.512  -0.388 -12.820  0.00  0.00     0.275 HD
HETATM   13  H           1     -38.212   0.734 -14.070  0.00  0.00     0.275 HD
HETATM   14  H           1     -37.586   1.012 -12.507  0.00  0.00     0.275 HD
ENDBRANCH   5  11
ENDBRANCH   1   5
BRANCH   2  15
HETATM   15  C           1     -34.815  -3.085 -11.401  0.00  0.00     0.186 C 
BRANCH  15  16
HETATM   16  C           1     -34.909  -4.579 -11.676  0.00  0.00     0.046 C 
BRANCH  16  17
HETATM   17  C           1     -35.004  -5.334 -10.357  0.00  0.00     0.116 C 
BRANCH  17  18
HETATM   18  C           1     -34.319  -6.672 -10.491  0.00  0.00     0.172 C 
HETATM   19  O           1     -34.938  -7.721 -10.212  0.00  0.00    -0.648 OA
HETATM   20  O           1     -33.132  -6.730 -10.880  0.00  0.00    -0.648 OA
ENDBRANCH  17  18
ENDBRANCH  16  17
ENDBRANCH  15  16
BRANCH  15  21
HETATM   21  C           1     -33.377  -2.712 -11.130  0.00  0.00     0.196 C 
HETATM   22  O           1     -32.452  -3.419 -11.586  0.00  0.00    -0.646 OA
HETATM   23  O           1     -33.112  -1.697 -10.451  0.00  0.00    -0.646 OA
ENDBRANCH  15  21
ENDBRANCH   2  15
TORSDOF 10
ENDMDL
MODEL 8
REMARK VINA RESULT:      -6.0      1.650      6.942
REMARK  10 active torsions:
REMARK  status: ('A' for Active; 'I' for Inactive)
REMARK    1  A    between atoms: C_1  and  C_2 
REMARK    2  A    between atoms: C_1  and  C_19 
REMARK    3  A    between atoms: C_1  and  N_13 
REMARK       I    between atoms: C_2  and  N_3 
REMARK    4  A    between atoms: N_3  and  C_12 
REMARK    5  A    between atoms: C_9  and  C_10 
REMARK    6  A    between atoms: C_9  and  C_12 
REMARK    7  A    between atoms: C_10  and  C_14 
REMARK    8  A    between atoms: C_11  and  C_12 
REMARK    9  A    between atoms: C_17  and  C_18 
REMARK   10  A    between atoms: C_18  and  C_19 
ROOT
HETATM    1  C           1     -28.211  -6.124 -16.945  0.00  0.00     0.249 C 
HETATM    2  N           1     -26.905  -5.842 -17.245  0.00  0.00    -0.345 N 
HETATM    3  O           1     -28.573  -7.271 -16.838  0.00  0.00    -0.271 OA
HETATM    4  H           1     -26.602  -4.881 -17.335  0.00  0.00     0.163 HD
ENDROOT
BRANCH   1   5
HETATM    5  C           1     -29.199  -5.000 -16.751  0.00  0.00     0.275 C 
BRANCH   5   6
HETATM    6  C           1     -30.494  -5.329 -17.482  0.00  0.00     0.053 C 
BRANCH   6   7
HETATM    7  C           1     -31.682  -4.941 -16.610  0.00  0.00     0.115 C 
BRANCH   7   8
HETATM    8  C           1     -32.321  -3.689 -17.158  0.00  0.00     0.172 C 
HETATM    9  O           1     -31.688  -2.960 -17.951  0.00  0.00    -0.648 OA
HETATM   10  O           1     -33.484  -3.381 -16.817  0.00  0.00    -0.648 OA
ENDBRANCH   7   8
ENDBRANCH   6   7
ENDBRANCH   5   6
BRANCH   5  11
HETATM   11  N           1     -28.624  -3.729 -17.303  0.00  0.00    -0.066 N 
HETATM   12  H           1     -29.303  -3.301 -17.973  0.00  0.00     0.275 HD
HETATM   13  H           1     -27.729  -3.938 -17.801  0.00  0.00     0.275 HD
HETATM   14  H           1     -28.438  -3.062 -16.520  0.00  0.00     0.275 HD
ENDBRANCH   5  11
ENDBRANCH   1   5
BRANCH   2  15
HETATM   15  C           1     -25.956  -6.923 -17.431  0.00  0.00     0.186 C 
BRANCH  15  16
HETATM   16  C           1     -25.068  -6.616 -18.630  0.00  0.00     0.046 C 
BRANCH  16  17
HETATM   17  C           1     -25.893  -6.698 -19.907  0.00  0.00     0.116 C 
BRANCH  17  18
HETATM   18  C           1     -25.350  -7.796 -20.789  0.00  0.00     0.172 C 
HETATM   19  O           1     -26.135  -8.523 -21.435  0.00  0.00    -0.648 OA
HETATM   20  O           1     -24.116  -7.979 -20.872  0.00  0.00    -0.648 OA
ENDBRANCH  17  18
ENDBRANCH  16  17
ENDBRANCH  15  16
BRANCH  15  21
HETATM   21  C           1     -25.101  -7.061 -16.194  0.00  0.00     0.196 C 
HETATM   22  O           1     -25.247  -6.263 -15.243  0.00  0.00    -0.646 OA
HETATM   23  O           1     -24.249  -7.972 -16.122  0.00  0.00    -0.646 OA
ENDBRANCH  15  21
ENDBRANCH   2  15
TORSDOF 10
ENDMDL
MODEL 9
REMARK VINA RESULT:      -6.0      1.919      2.707
REMARK  10 active torsions:
REMARK  status: ('A' for Active; 'I' for Inactive)
REMARK    1  A    between atoms: C_1  and  C_2 
REMARK    2  A    between atoms: C_1  and  C_19 
REMARK    3  A    between atoms: C_1  and  N_13 
REMARK       I    between atoms: C_2  and  N_3 
REMARK    4  A    between atoms: N_3  and  C_12 
REMARK    5  A    between atoms: C_9  and  C_10 
REMARK    6  A    between atoms: C_9  and  C_12 
REMARK    7  A    between atoms: C_10  and  C_14 
REMARK    8  A    between atoms: C_11  and  C_12 
REMARK    9  A    between atoms: C_17  and  C_18 
REMARK   10  A    between atoms: C_18  and  C_19 
ROOT
HETATM    1  C           1     -25.537  -6.775 -18.719  0.00  0.00     0.249 C 
HETATM    2  N           1     -26.718  -6.538 -18.068  0.00  0.00    -0.345 N 
HETATM    3  O           1     -24.487  -6.523 -18.178  0.00  0.00    -0.271 OA
HETATM    4  H           1     -27.597  -6.748 -18.521  0.00  0.00     0.163 HD
ENDROOT
BRANCH   1   5
HETATM    5  C           1     -25.548  -7.348 -20.115  0.00  0.00     0.275 C 
BRANCH   5   6
HETATM    6  C           1     -24.292  -8.181 -20.332  0.00  0.00     0.053 C 
BRANCH   6   7
HETATM    7  C           1     -23.732  -7.903 -21.722  0.00  0.00     0.115 C 
BRANCH   7   8
HETATM    8  C           1     -22.423  -8.632 -21.893  0.00  0.00     0.172 C 
HETATM    9  O           1     -21.519  -8.503 -21.039  0.00  0.00    -0.648 OA
HETATM   10  O           1     -22.241  -9.366 -22.889  0.00  0.00    -0.648 OA
ENDBRANCH   7   8
ENDBRANCH   6   7
ENDBRANCH   5   6
BRANCH   5  11
HETATM   11  N           1     -25.585  -6.230 -21.114  0.00  0.00    -0.066 N 
HETATM   12  H           1     -26.293  -5.521 -20.817  0.00  0.00     0.275 HD
HETATM   13  H           1     -25.845  -6.608 -22.053  0.00  0.00     0.275 HD
HETATM   14  H           1     -24.642  -5.781 -21.169  0.00  0.00     0.275 HD
ENDBRANCH   5  11
ENDBRANCH   1   5
BRANCH   2  15
HETATM   15  C           1     -26.707  -5.986 -16.726  0.00  0.00     0.186 C 
BRANCH  15  16
HETATM   16  C           1     -28.015  -5.249 -16.471  0.00  0.00     0.046 C 
BRANCH  16  17
HETATM   17  C           1     -28.643  -4.854 -17.801  0.00  0.00     0.116 C 
BRANCH  17  18
HETATM   18  C           1     -29.434  -3.581 -17.627  0.00  0.00     0.172 C 
HETATM   19  O           1     -28.851  -2.521 -17.312  0.00  0.00    -0.648 OA
HETATM   20  O           1     -30.673  -3.586 -17.796  0.00  0.00    -0.648 OA
ENDBRANCH  17  18
ENDBRANCH  16  17
ENDBRANCH  15  16
BRANCH  15  21
HETATM   21  C           1     -26.557  -7.105 -15.724  0.00  0.00     0.196 C 
HETATM   22  O           1     -27.571  -7.628 -15.215  0.00  0.00    -0.646 OA
HETATM   23  O           1     -25.418  -7.508 -15.404  0.00  0.00    -0.646 OA
ENDBRANCH  15  21
ENDBRANCH   2  15
TORSDOF 10
ENDMDL
