MODEL 1
REMARK VINA RESULT:      -4.7      0.000      0.000
REMARK  9 active torsions:
REMARK  status: ('A' for Active; 'I' for Inactive)
REMARK    1  A    between atoms: C_4  and  C_20 
REMARK    2  A    between atoms: C_4  and  Se_5 
REMARK    3  A    between atoms: N_6  and  C_20 
REMARK    4  A    between atoms: S_13  and  C_14 
REMARK    5  A    between atoms: C_14  and  C_15 
REMARK    6  A    between atoms: C_15  and  C_16 
REMARK    7  A    between atoms: C_16  and  C_17 
REMARK    8  A    between atoms: C_16  and  N_18 
REMARK       I    between atoms: N_18  and  C_19 
REMARK    9  A    between atoms: C_19  and  C_20 
ROOT
HETATM    1  O           1     -21.912  -3.130  -7.675  0.00  0.00    -0.271 OA
HETATM    2  H           1     -22.452  -6.215  -7.859  0.00  0.00     0.163 HD
HETATM    3  N           1     -22.070  -5.350  -7.497  0.00  0.00    -0.345 N 
HETATM    4  C           1     -22.367  -4.161  -8.107  0.00  0.00     0.249 C 
ENDROOT
BRANCH   3   5
HETATM    5  C           1     -21.209  -5.372  -6.331  0.00  0.00     0.186 C 
BRANCH   5   6
HETATM    6  C           1     -21.747  -6.377  -5.321  0.00  0.00     0.046 C 
BRANCH   6   7
HETATM    7  C           1     -21.258  -6.007  -3.927  0.00  0.00     0.076 C 
BRANCH   7   8
HETATM    8  S           1     -21.397  -7.449  -2.834  0.00  0.00    -0.173 SA
HETATM    9  C           1     -22.242  -6.590  -1.477  0.00  0.00     0.089 C 
ENDBRANCH   7   8
ENDBRANCH   6   7
ENDBRANCH   5   6
BRANCH   5  10
HETATM   10  C           1     -19.813  -5.772  -6.745  0.00  0.00     0.196 C 
HETATM   11  O           1     -18.979  -4.895  -7.057  0.00  0.00    -0.646 OA
HETATM   12  O           1     -19.492  -6.980  -6.774  0.00  0.00    -0.646 OA
ENDBRANCH   5  10
ENDBRANCH   3   5
BRANCH   4  13
HETATM   13  C           1     -23.264  -4.140  -9.321  0.00  0.00     0.274 C 
BRANCH  13  14
HETATM   14  C           1     -22.565  -3.404 -10.456  0.00  0.00     0.045 C 
BRANCH  14  15
HETATM   15 Se           1     -20.860  -4.267 -10.838  0.00  0.00     0.000 Se
HETATM   16  H           1     -20.048  -3.131 -10.374  0.00  0.00     0.000 HD
ENDBRANCH  14  15
ENDBRANCH  13  14
BRANCH  13  17
HETATM   17  N           1     -24.544  -3.436  -8.983  0.00  0.00    -0.067 N 
HETATM   18  H           1     -24.359  -2.703  -8.263  0.00  0.00     0.275 HD
HETATM   19  H           1     -25.233  -4.127  -8.608  0.00  0.00     0.275 HD
HETATM   20  H           1     -24.934  -2.989  -9.844  0.00  0.00     0.275 HD
ENDBRANCH  13  17
ENDBRANCH   4  13
TORSDOF 9
ENDMDL
MODEL 2
REMARK VINA RESULT:      -4.5      1.818      2.343
REMARK  9 active torsions:
REMARK  status: ('A' for Active; 'I' for Inactive)
REMARK    1  A    between atoms: C_4  and  C_20 
REMARK    2  A    between atoms: C_4  and  Se_5 
REMARK    3  A    between atoms: N_6  and  C_20 
REMARK    4  A    between atoms: S_13  and  C_14 
REMARK    5  A    between atoms: C_14  and  C_15 
REMARK    6  A    between atoms: C_15  and  C_16 
REMARK    7  A    between atoms: C_16  and  C_17 
REMARK    8  A    between atoms: C_16  and  N_18 
REMARK       I    between atoms: N_18  and  C_19 
REMARK    9  A    between atoms: C_19  and  C_20 
ROOT
HETATM    1  O           1     -20.484  -4.383  -6.189  0.00  0.00    -0.271 OA
HETATM    2  H           1     -21.639  -7.152  -7.103  0.00  0.00     0.163 HD
HETATM    3  N           1     -21.201  -6.476  -6.491  0.00  0.00    -0.345 N 
HETATM    4  C           1     -21.006  -5.190  -6.919  0.00  0.00     0.249 C 
ENDROOT
BRANCH   3   5
HETATM    5  C           1     -20.782  -6.869  -5.160  0.00  0.00     0.186 C 
BRANCH   5   6
HETATM    6  C           1     -21.939  -6.683  -4.188  0.00  0.00     0.046 C 
BRANCH   6   7
HETATM    7  C           1     -21.427  -6.043  -2.905  0.00  0.00     0.076 C 
BRANCH   7   8
HETATM    8  S           1     -22.124  -6.915  -1.473  0.00  0.00    -0.173 SA
HETATM    9  C           1     -20.764  -8.101  -1.282  0.00  0.00     0.089 C 
ENDBRANCH   7   8
ENDBRANCH   6   7
ENDBRANCH   5   6
BRANCH   5  10
HETATM   10  C           1     -20.363  -8.319  -5.174  0.00  0.00     0.196 C 
HETATM   11  O           1     -19.253  -8.644  -5.649  0.00  0.00    -0.646 OA
HETATM   12  O           1     -21.124  -9.194  -4.708  0.00  0.00    -0.646 OA
ENDBRANCH   5  10
ENDBRANCH   3   5
BRANCH   4  13
HETATM   13  C           1     -21.443  -4.783  -8.306  0.00  0.00     0.274 C 
BRANCH  13  14
HETATM   14  C           1     -20.221  -4.413  -9.135  0.00  0.00     0.045 C 
BRANCH  14  15
HETATM   15 Se           1     -20.773  -3.998 -10.958  0.00  0.00     0.000 Se
HETATM   16  H           1     -20.734  -5.397 -11.411  0.00  0.00     0.000 HD
ENDBRANCH  14  15
ENDBRANCH  13  14
BRANCH  13  17
HETATM   17  N           1     -22.360  -3.599  -8.212  0.00  0.00    -0.067 N 
HETATM   18  H           1     -23.351  -3.922  -8.267  0.00  0.00     0.275 HD
HETATM   19  H           1     -22.162  -2.943  -9.000  0.00  0.00     0.275 HD
HETATM   20  H           1     -22.203  -3.108  -7.302  0.00  0.00     0.275 HD
ENDBRANCH  13  17
ENDBRANCH   4  13
TORSDOF 9
ENDMDL
MODEL 3
REMARK VINA RESULT:      -4.4      2.108      5.917
REMARK  9 active torsions:
REMARK  status: ('A' for Active; 'I' for Inactive)
REMARK    1  A    between atoms: C_4  and  C_20 
REMARK    2  A    between atoms: C_4  and  Se_5 
REMARK    3  A    between atoms: N_6  and  C_20 
REMARK    4  A    between atoms: S_13  and  C_14 
REMARK    5  A    between atoms: C_14  and  C_15 
REMARK    6  A    between atoms: C_15  and  C_16 
REMARK    7  A    between atoms: C_16  and  C_17 
REMARK    8  A    between atoms: C_16  and  N_18 
REMARK       I    between atoms: N_18  and  C_19 
REMARK    9  A    between atoms: C_19  and  C_20 
ROOT
HETATM    1  O           1     -21.304  -7.559  -6.276  0.00  0.00    -0.271 OA
HETATM    2  H           1     -21.104  -4.568  -5.350  0.00  0.00     0.163 HD
HETATM    3  N           1     -21.194  -5.347  -5.990  0.00  0.00    -0.345 N 
HETATM    4  C           1     -21.197  -6.630  -5.512  0.00  0.00     0.249 C 
ENDROOT
BRANCH   3   5
HETATM    5  C           1     -21.322  -5.103  -7.414  0.00  0.00     0.186 C 
BRANCH   5   6
HETATM    6  C           1     -22.186  -3.870  -7.642  0.00  0.00     0.046 C 
BRANCH   6   7
HETATM    7  C           1     -23.319  -4.214  -8.599  0.00  0.00     0.076 C 
BRANCH   7   8
HETATM    8  S           1     -22.958  -3.521 -10.238  0.00  0.00    -0.173 SA
HETATM    9  C           1     -23.620  -4.916 -11.193  0.00  0.00     0.089 C 
ENDBRANCH   7   8
ENDBRANCH   6   7
ENDBRANCH   5   6
BRANCH   5  10
HETATM   10  C           1     -19.953  -4.876  -8.008  0.00  0.00     0.196 C 
HETATM   11  O           1     -19.795  -4.920  -9.247  0.00  0.00    -0.646 OA
HETATM   12  O           1     -18.978  -4.642  -7.261  0.00  0.00    -0.646 OA
ENDBRANCH   5  10
ENDBRANCH   3   5
BRANCH   4  13
HETATM   13  C           1     -21.064  -6.883  -4.030  0.00  0.00     0.274 C 
BRANCH  13  14
HETATM   14  C           1     -21.186  -8.376  -3.756  0.00  0.00     0.045 C 
BRANCH  14  15
HETATM   15 Se           1     -21.093  -8.695  -1.836  0.00  0.00     0.000 Se
HETATM   16  H           1     -20.036  -7.697  -1.604  0.00  0.00     0.000 HD
ENDBRANCH  14  15
ENDBRANCH  13  14
BRANCH  13  17
HETATM   17  N           1     -22.150  -6.151  -3.300  0.00  0.00    -0.067 N 
HETATM   18  H           1     -23.056  -6.280  -3.803  0.00  0.00     0.275 HD
HETATM   19  H           1     -21.917  -5.133  -3.257  0.00  0.00     0.275 HD
HETATM   20  H           1     -22.234  -6.529  -2.329  0.00  0.00     0.275 HD
ENDBRANCH  13  17
ENDBRANCH   4  13
TORSDOF 9
ENDMDL
MODEL 4
REMARK VINA RESULT:      -4.4     11.385     13.109
REMARK  9 active torsions:
REMARK  status: ('A' for Active; 'I' for Inactive)
REMARK    1  A    between atoms: C_4  and  C_20 
REMARK    2  A    between atoms: C_4  and  Se_5 
REMARK    3  A    between atoms: N_6  and  C_20 
REMARK    4  A    between atoms: S_13  and  C_14 
REMARK    5  A    between atoms: C_14  and  C_15 
REMARK    6  A    between atoms: C_15  and  C_16 
REMARK    7  A    between atoms: C_16  and  C_17 
REMARK    8  A    between atoms: C_16  and  N_18 
REMARK       I    between atoms: N_18  and  C_19 
REMARK    9  A    between atoms: C_19  and  C_20 
ROOT
HETATM    1  O           1     -28.704  -6.936 -16.711  0.00  0.00    -0.271 OA
HETATM    2  H           1     -26.661  -4.715 -17.566  0.00  0.00     0.163 HD
HETATM    3  N           1     -27.005  -5.646 -17.369  0.00  0.00    -0.345 N 
HETATM    4  C           1     -28.294  -5.825 -16.946  0.00  0.00     0.249 C 
ENDROOT
BRANCH   3   5
HETATM    5  C           1     -26.131  -6.791 -17.537  0.00  0.00     0.186 C 
BRANCH   5   6
HETATM    6  C           1     -25.368  -6.660 -18.848  0.00  0.00     0.046 C 
BRANCH   6   7
HETATM    7  C           1     -26.356  -6.566 -20.003  0.00  0.00     0.076 C 
BRANCH   7   8
HETATM    8  S           1     -26.225  -8.052 -21.036  0.00  0.00    -0.173 SA
HETATM    9  C           1     -24.479  -7.832 -21.481  0.00  0.00     0.089 C 
ENDBRANCH   7   8
ENDBRANCH   6   7
ENDBRANCH   5   6
BRANCH   5  10
HETATM   10  C           1     -25.153  -6.848 -16.389  0.00  0.00     0.196 C 
HETATM   11  O           1     -24.502  -7.893 -16.174  0.00  0.00    -0.646 OA
HETATM   12  O           1     -24.993  -5.849 -15.654  0.00  0.00    -0.646 OA
ENDBRANCH   5  10
ENDBRANCH   3   5
BRANCH   4  13
HETATM   13  C           1     -29.203  -4.632 -16.772  0.00  0.00     0.274 C 
BRANCH  13  14
HETATM   14  C           1     -30.351  -4.719 -17.769  0.00  0.00     0.045 C 
BRANCH  14  15
HETATM   15 Se           1     -32.047  -4.554 -16.822  0.00  0.00     0.000 Se
HETATM   16  H           1     -31.450  -4.713 -15.487  0.00  0.00     0.000 HD
ENDBRANCH  14  15
ENDBRANCH  13  14
BRANCH  13  17
HETATM   17  N           1     -28.425  -3.373 -17.015  0.00  0.00    -0.067 N 
HETATM   18  H           1     -27.719  -3.248 -16.256  0.00  0.00     0.275 HD
HETATM   19  H           1     -29.077  -2.557 -17.022  0.00  0.00     0.275 HD
HETATM   20  H           1     -27.937  -3.437 -17.937  0.00  0.00     0.275 HD
ENDBRANCH  13  17
ENDBRANCH   4  13
TORSDOF 9
ENDMDL
MODEL 5
REMARK VINA RESULT:      -4.3      3.220      4.140
REMARK  9 active torsions:
REMARK  status: ('A' for Active; 'I' for Inactive)
REMARK    1  A    between atoms: C_4  and  C_20 
REMARK    2  A    between atoms: C_4  and  Se_5 
REMARK    3  A    between atoms: N_6  and  C_20 
REMARK    4  A    between atoms: S_13  and  C_14 
REMARK    5  A    between atoms: C_14  and  C_15 
REMARK    6  A    between atoms: C_15  and  C_16 
REMARK    7  A    between atoms: C_16  and  C_17 
REMARK    8  A    between atoms: C_16  and  N_18 
REMARK       I    between atoms: N_18  and  C_19 
REMARK    9  A    between atoms: C_19  and  C_20 
ROOT
HETATM    1  O           1     -22.591  -5.740  -5.610  0.00  0.00    -0.271 OA
HETATM    2  H           1     -19.789  -6.821  -4.704  0.00  0.00     0.163 HD
HETATM    3  N           1     -20.797  -6.728  -4.721  0.00  0.00    -0.345 N 
HETATM    4  C           1     -21.389  -5.850  -5.589  0.00  0.00     0.249 C 
ENDROOT
BRANCH   3   5
HETATM    5  C           1     -21.613  -7.528  -3.829  0.00  0.00     0.186 C 
BRANCH   5   6
HETATM    6  C           1     -21.040  -8.936  -3.742  0.00  0.00     0.046 C 
BRANCH   6   7
HETATM    7  C           1     -19.692  -8.980  -4.449  0.00  0.00     0.076 C 
BRANCH   7   8
HETATM    8  S           1     -18.409  -9.497  -3.275  0.00  0.00    -0.173 SA
HETATM    9  C           1     -19.487 -10.530  -2.243  0.00  0.00     0.089 C 
ENDBRANCH   7   8
ENDBRANCH   6   7
ENDBRANCH   5   6
BRANCH   5  10
HETATM   10  C           1     -21.618  -6.900  -2.456  0.00  0.00     0.196 C 
HETATM   11  O           1     -20.908  -7.381  -1.547  0.00  0.00    -0.646 OA
HETATM   12  O           1     -22.330  -5.898  -2.230  0.00  0.00    -0.646 OA
ENDBRANCH   5  10
ENDBRANCH   3   5
BRANCH   4  13
HETATM   13  C           1     -20.538  -5.018  -6.518  0.00  0.00     0.274 C 
BRANCH  13  14
HETATM   14  C           1     -21.383  -3.904  -7.121  0.00  0.00     0.045 C 
BRANCH  14  15
HETATM   15 Se           1     -21.861  -4.370  -8.952  0.00  0.00     0.000 Se
HETATM   16  H           1     -20.494  -4.207  -9.473  0.00  0.00     0.000 HD
ENDBRANCH  14  15
ENDBRANCH  13  14
BRANCH  13  17
HETATM   17  N           1     -20.001  -5.888  -7.615  0.00  0.00    -0.067 N 
HETATM   18  H           1     -19.241  -5.381  -8.121  0.00  0.00     0.275 HD
HETATM   19  H           1     -20.770  -6.120  -8.283  0.00  0.00     0.275 HD
HETATM   20  H           1     -19.618  -6.770  -7.205  0.00  0.00     0.275 HD
ENDBRANCH  13  17
ENDBRANCH   4  13
TORSDOF 9
ENDMDL
MODEL 6
REMARK VINA RESULT:      -4.2      3.594      5.151
REMARK  9 active torsions:
REMARK  status: ('A' for Active; 'I' for Inactive)
REMARK    1  A    between atoms: C_4  and  C_20 
REMARK    2  A    between atoms: C_4  and  Se_5 
REMARK    3  A    between atoms: N_6  and  C_20 
REMARK    4  A    between atoms: S_13  and  C_14 
REMARK    5  A    between atoms: C_14  and  C_15 
REMARK    6  A    between atoms: C_15  and  C_16 
REMARK    7  A    between atoms: C_16  and  C_17 
REMARK    8  A    between atoms: C_16  and  N_18 
REMARK       I    between atoms: N_18  and  C_19 
REMARK    9  A    between atoms: C_19  and  C_20 
ROOT
HETATM    1  O           1     -21.318  -8.304  -5.113  0.00  0.00    -0.271 OA
HETATM    2  H           1     -20.361  -5.957  -3.265  0.00  0.00     0.163 HD
HETATM    3  N           1     -20.780  -6.844  -3.512  0.00  0.00    -0.345 N 
HETATM    4  C           1     -20.818  -7.245  -4.820  0.00  0.00     0.249 C 
ENDROOT
BRANCH   3   5
HETATM    5  C           1     -21.339  -7.693  -2.477  0.00  0.00     0.186 C 
BRANCH   5   6
HETATM    6  C           1     -20.211  -8.368  -1.709  0.00  0.00     0.046 C 
BRANCH   6   7
HETATM    7  C           1     -20.172  -9.849  -2.060  0.00  0.00     0.076 C 
BRANCH   7   8
HETATM    8  S           1     -21.521 -10.710  -1.204  0.00  0.00    -0.173 SA
HETATM    9  C           1     -20.915 -10.405   0.480  0.00  0.00     0.089 C 
ENDBRANCH   7   8
ENDBRANCH   6   7
ENDBRANCH   5   6
BRANCH   5  10
HETATM   10  C           1     -22.162  -6.853  -1.530  0.00  0.00     0.196 C 
HETATM   11  O           1     -22.436  -7.284  -0.389  0.00  0.00    -0.646 OA
HETATM   12  O           1     -22.566  -5.725  -1.886  0.00  0.00    -0.646 OA
ENDBRANCH   5  10
ENDBRANCH   3   5
BRANCH   4  13
HETATM   13  C           1     -20.235  -6.361  -5.896  0.00  0.00     0.274 C 
BRANCH  13  14
HETATM   14  C           1     -20.396  -4.900  -5.495  0.00  0.00     0.045 C 
BRANCH  14  15
HETATM   15 Se           1     -21.106  -3.887  -7.002  0.00  0.00     0.000 Se
HETATM   16  H           1     -20.229  -2.725  -6.782  0.00  0.00     0.000 HD
ENDBRANCH  14  15
ENDBRANCH  13  14
BRANCH  13  17
HETATM   17  N           1     -20.955  -6.607  -7.188  0.00  0.00    -0.067 N 
HETATM   18  H           1     -21.262  -5.695  -7.595  0.00  0.00     0.275 HD
HETATM   19  H           1     -21.791  -7.209  -7.012  0.00  0.00     0.275 HD
HETATM   20  H           1     -20.315  -7.090  -7.858  0.00  0.00     0.275 HD
ENDBRANCH  13  17
ENDBRANCH   4  13
TORSDOF 9
ENDMDL
MODEL 7
REMARK VINA RESULT:      -4.2      3.280      4.167
REMARK  9 active torsions:
REMARK  status: ('A' for Active; 'I' for Inactive)
REMARK    1  A    between atoms: C_4  and  C_20 
REMARK    2  A    between atoms: C_4  and  Se_5 
REMARK    3  A    between atoms: N_6  and  C_20 
REMARK    4  A    between atoms: S_13  and  C_14 
REMARK    5  A    between atoms: C_14  and  C_15 
REMARK    6  A    between atoms: C_15  and  C_16 
REMARK    7  A    between atoms: C_16  and  C_17 
REMARK    8  A    between atoms: C_16  and  N_18 
REMARK       I    between atoms: N_18  and  C_19 
REMARK    9  A    between atoms: C_19  and  C_20 
ROOT
HETATM    1  O           1     -22.596  -5.814  -5.546  0.00  0.00    -0.271 OA
HETATM    2  H           1     -19.765  -6.868  -4.700  0.00  0.00     0.163 HD
HETATM    3  N           1     -20.774  -6.787  -4.698  0.00  0.00    -0.345 N 
HETATM    4  C           1     -21.393  -5.910  -5.548  0.00  0.00     0.249 C 
ENDROOT
BRANCH   3   5
HETATM    5  C           1     -21.564  -7.603  -3.796  0.00  0.00     0.186 C 
BRANCH   5   6
HETATM    6  C           1     -20.937  -8.986  -3.682  0.00  0.00     0.046 C 
BRANCH   6   7
HETATM    7  C           1     -22.036 -10.034  -3.570  0.00  0.00     0.076 C 
BRANCH   7   8
HETATM    8  S           1     -21.755 -11.051  -2.093  0.00  0.00    -0.173 SA
HETATM    9  C           1     -23.500 -11.195  -1.615  0.00  0.00     0.089 C 
ENDBRANCH   7   8
ENDBRANCH   6   7
ENDBRANCH   5   6
BRANCH   5  10
HETATM   10  C           1     -21.602  -6.953  -2.435  0.00  0.00     0.196 C 
HETATM   11  O           1     -22.335  -5.960  -2.236  0.00  0.00    -0.646 OA
HETATM   12  O           1     -20.900  -7.408  -1.505  0.00  0.00    -0.646 OA
ENDBRANCH   5  10
ENDBRANCH   3   5
BRANCH   4  13
HETATM   13  C           1     -20.569  -5.061  -6.486  0.00  0.00     0.274 C 
BRANCH  13  14
HETATM   14  C           1     -21.448  -3.975  -7.092  0.00  0.00     0.045 C 
BRANCH  14  15
HETATM   15 Se           1     -21.865  -4.431  -8.940  0.00  0.00     0.000 Se
HETATM   16  H           1     -21.933  -3.032  -9.392  0.00  0.00     0.000 HD
ENDBRANCH  14  15
ENDBRANCH  13  14
BRANCH  13  17
HETATM   17  N           1     -20.014  -5.923  -7.581  0.00  0.00    -0.067 N 
HETATM   18  H           1     -20.780  -6.181  -8.243  0.00  0.00     0.275 HD
HETATM   19  H           1     -19.604  -6.790  -7.167  0.00  0.00     0.275 HD
HETATM   20  H           1     -19.271  -5.398  -8.095  0.00  0.00     0.275 HD
ENDBRANCH  13  17
ENDBRANCH   4  13
TORSDOF 9
ENDMDL
MODEL 8
REMARK VINA RESULT:      -4.1     11.844     13.676
REMARK  9 active torsions:
REMARK  status: ('A' for Active; 'I' for Inactive)
REMARK    1  A    between atoms: C_4  and  C_20 
REMARK    2  A    between atoms: C_4  and  Se_5 
REMARK    3  A    between atoms: N_6  and  C_20 
REMARK    4  A    between atoms: S_13  and  C_14 
REMARK    5  A    between atoms: C_14  and  C_15 
REMARK    6  A    between atoms: C_15  and  C_16 
REMARK    7  A    between atoms: C_16  and  C_17 
REMARK    8  A    between atoms: C_16  and  N_18 
REMARK       I    between atoms: N_18  and  C_19 
REMARK    9  A    between atoms: C_19  and  C_20 
ROOT
HETATM    1  O           1     -30.414  -7.785 -17.856  0.00  0.00    -0.271 OA
HETATM    2  H           1     -29.268  -4.971 -17.079  0.00  0.00     0.163 HD
HETATM    3  N           1     -29.257  -5.958 -17.300  0.00  0.00    -0.345 N 
HETATM    4  C           1     -30.427  -6.607 -17.592  0.00  0.00     0.249 C 
ENDROOT
BRANCH   3   5
HETATM    5  C           1     -28.002  -6.685 -17.308  0.00  0.00     0.186 C 
BRANCH   5   6
HETATM    6  C           1     -27.030  -6.007 -18.265  0.00  0.00     0.046 C 
BRANCH   6   7
HETATM    7  C           1     -27.163  -6.630 -19.648  0.00  0.00     0.076 C 
BRANCH   7   8
HETATM    8  S           1     -25.521  -6.772 -20.408  0.00  0.00    -0.173 SA
HETATM    9  C           1     -24.612  -7.065 -18.864  0.00  0.00     0.089 C 
ENDBRANCH   7   8
ENDBRANCH   6   7
ENDBRANCH   5   6
BRANCH   5  10
HETATM   10  C           1     -27.418  -6.692 -15.917  0.00  0.00     0.196 C 
HETATM   11  O           1     -27.851  -7.494 -15.061  0.00  0.00    -0.646 OA
HETATM   12  O           1     -26.500  -5.897 -15.620  0.00  0.00    -0.646 OA
ENDBRANCH   5  10
ENDBRANCH   3   5
BRANCH   4  13
HETATM   13  C           1     -31.732  -5.850 -17.583  0.00  0.00     0.274 C 
BRANCH  13  14
HETATM   14  C           1     -31.642  -4.695 -16.594  0.00  0.00     0.045 C 
BRANCH  14  15
HETATM   15 Se           1     -33.438  -4.147 -16.070  0.00  0.00     0.000 Se
HETATM   16  H           1     -33.182  -2.711 -16.266  0.00  0.00     0.000 HD
ENDBRANCH  14  15
ENDBRANCH  13  14
BRANCH  13  17
HETATM   17  N           1     -32.841  -6.773 -17.174  0.00  0.00    -0.067 N 
HETATM   18  H           1     -32.673  -7.109 -16.200  0.00  0.00     0.275 HD
HETATM   19  H           1     -32.872  -7.589 -17.825  0.00  0.00     0.275 HD
HETATM   20  H           1     -33.753  -6.262 -17.214  0.00  0.00     0.275 HD
ENDBRANCH  13  17
ENDBRANCH   4  13
TORSDOF 9
ENDMDL
MODEL 9
REMARK VINA RESULT:      -4.0      6.662      9.015
REMARK  9 active torsions:
REMARK  status: ('A' for Active; 'I' for Inactive)
REMARK    1  A    between atoms: C_4  and  C_20 
REMARK    2  A    between atoms: C_4  and  Se_5 
REMARK    3  A    between atoms: N_6  and  C_20 
REMARK    4  A    between atoms: S_13  and  C_14 
REMARK    5  A    between atoms: C_14  and  C_15 
REMARK    6  A    between atoms: C_15  and  C_16 
REMARK    7  A    between atoms: C_16  and  C_17 
REMARK    8  A    between atoms: C_16  and  N_18 
REMARK       I    between atoms: N_18  and  C_19 
REMARK    9  A    between atoms: C_19  and  C_20 
ROOT
HETATM    1  O           1     -20.770  -9.947   1.281  0.00  0.00    -0.271 OA
HETATM    2  H           1     -22.171  -9.916  -1.525  0.00  0.00     0.163 HD
HETATM    3  N           1     -21.660  -9.557  -0.729  0.00  0.00    -0.345 N 
HETATM    4  C           1     -21.379 -10.376   0.332  0.00  0.00     0.249 C 
ENDROOT
BRANCH   3   5
HETATM    5  C           1     -21.225  -8.174  -0.712  0.00  0.00     0.186 C 
BRANCH   5   6
HETATM    6  C           1     -20.443  -7.873  -1.984  0.00  0.00     0.046 C 
BRANCH   6   7
HETATM    7  C           1     -20.817  -8.882  -3.061  0.00  0.00     0.076 C 
BRANCH   7   8
HETATM    8  S           1     -19.406  -9.129  -4.176  0.00  0.00    -0.173 SA
HETATM    9  C           1     -18.174  -9.420  -2.876  0.00  0.00     0.089 C 
ENDBRANCH   7   8
ENDBRANCH   6   7
ENDBRANCH   5   6
BRANCH   5  10
HETATM   10  C           1     -22.431  -7.269  -0.637  0.00  0.00     0.196 C 
HETATM   11  O           1     -22.509  -6.268  -1.381  0.00  0.00    -0.646 OA
HETATM   12  O           1     -23.354  -7.523   0.167  0.00  0.00    -0.646 OA
ENDBRANCH   5  10
ENDBRANCH   3   5
BRANCH   4  13
HETATM   13  C           1     -21.832 -11.816   0.313  0.00  0.00     0.274 C 
BRANCH  13  14
HETATM   14  C           1     -21.253 -12.515  -0.910  0.00  0.00     0.045 C 
BRANCH  14  15
HETATM   15 Se           1     -19.313 -12.610  -0.746  0.00  0.00     0.000 Se
HETATM   16  H           1     -19.141 -11.158  -0.575  0.00  0.00     0.000 HD
ENDBRANCH  14  15
ENDBRANCH  13  14
BRANCH  13  17
HETATM   17  N           1     -23.330 -11.866   0.255  0.00  0.00    -0.067 N 
HETATM   18  H           1     -23.720 -10.928   0.497  0.00  0.00     0.275 HD
HETATM   19  H           1     -23.681 -12.576   0.936  0.00  0.00     0.275 HD
HETATM   20  H           1     -23.633 -12.131  -0.710  0.00  0.00     0.275 HD
ENDBRANCH  13  17
ENDBRANCH   4  13
TORSDOF 9
ENDMDL
