MODEL 1
REMARK VINA RESULT:      -6.7      0.000      0.000
REMARK  8 active torsions:
REMARK  status: ('A' for Active; 'I' for Inactive)
REMARK    1  A    between atoms: C_1  and  C_3 
REMARK    2  A    between atoms: C_3  and  C_15 
REMARK    3  A    between atoms: N_5  and  C_19 
REMARK       I    between atoms: N_5  and  C_13 
REMARK    4  A    between atoms: C_6  and  O_14 
REMARK    5  A    between atoms: C_6  and  C_19 
REMARK    6  A    between atoms: N_8  and  C_15 
REMARK    7  A    between atoms: C_13  and  C_15 
REMARK    8  A    between atoms: C_19  and  C_20 
ROOT
HETATM    1  H           1     -33.949  -0.726 -14.169  0.00  0.00     0.163 HD
HETATM    2  N           1     -34.941  -0.751 -13.970  0.00  0.00    -0.343 N 
HETATM    3  O           1     -36.572  -1.313 -12.552  0.00  0.00    -0.271 OA
HETATM    4  C           1     -35.389  -1.281 -12.790  0.00  0.00     0.249 C 
ENDROOT
BRANCH   4   5
HETATM    5  C           1     -34.403  -1.825 -11.785  0.00  0.00     0.278 C 
BRANCH   5   6
HETATM    6  C           1     -34.257  -3.329 -11.979  0.00  0.00     0.021 C 
HETATM    7  C           1     -32.803  -3.729 -11.772  0.00  0.00     0.012 C 
BRANCH   6   8
HETATM    8  C           1     -35.132  -4.057 -10.967  0.00  0.00     0.002 C 
HETATM    9  C           1     -34.444  -5.344 -10.533  0.00  0.00     0.005 C 
ENDBRANCH   6   8
ENDBRANCH   5   6
BRANCH   5  10
HETATM   10  N           1     -34.898  -1.546 -10.397  0.00  0.00    -0.066 N 
HETATM   11  H           1     -35.624  -2.251 -10.136  0.00  0.00     0.275 HD
HETATM   12  H           1     -34.101  -1.601  -9.726  0.00  0.00     0.275 HD
HETATM   13  H           1     -35.317  -0.588 -10.364  0.00  0.00     0.275 HD
ENDBRANCH   5  10
ENDBRANCH   4   5
BRANCH   2  14
HETATM   14  C           1     -35.888  -0.229 -14.935  0.00  0.00     0.209 C 
BRANCH  14  15
HETATM   15  C           1     -35.527   1.213 -15.271  0.00  0.00     0.200 C 
BRANCH  15  16
HETATM   16  O           1     -36.573   1.800 -15.998  0.00  0.00    -0.398 OA
HETATM   17  H           1     -36.350   1.719 -16.909  0.00  0.00     0.209 HD
ENDBRANCH  15  16
ENDBRANCH  14  15
BRANCH  14  18
HETATM   18  C           1     -35.842  -1.064 -16.190  0.00  0.00     0.198 C 
HETATM   19  O           1     -36.597  -0.794 -17.150  0.00  0.00    -0.646 OA
HETATM   20  O           1     -35.050  -2.029 -16.271  0.00  0.00    -0.646 OA
ENDBRANCH  14  18
ENDBRANCH   2  14
TORSDOF 8
ENDMDL
MODEL 2
REMARK VINA RESULT:      -6.2      1.630      2.151
REMARK  8 active torsions:
REMARK  status: ('A' for Active; 'I' for Inactive)
REMARK    1  A    between atoms: C_1  and  C_3 
REMARK    2  A    between atoms: C_3  and  C_15 
REMARK    3  A    between atoms: N_5  and  C_19 
REMARK       I    between atoms: N_5  and  C_13 
REMARK    4  A    between atoms: C_6  and  O_14 
REMARK    5  A    between atoms: C_6  and  C_19 
REMARK    6  A    between atoms: N_8  and  C_15 
REMARK    7  A    between atoms: C_13  and  C_15 
REMARK    8  A    between atoms: C_19  and  C_20 
ROOT
HETATM    1  H           1     -34.302  -1.660 -14.315  0.00  0.00     0.163 HD
HETATM    2  N           1     -34.935  -1.449 -13.554  0.00  0.00    -0.343 N 
HETATM    3  O           1     -35.908  -2.121 -11.659  0.00  0.00    -0.271 OA
HETATM    4  C           1     -35.152  -2.372 -12.567  0.00  0.00     0.249 C 
ENDROOT
BRANCH   4   5
HETATM    5  C           1     -34.445  -3.705 -12.612  0.00  0.00     0.278 C 
BRANCH   5   6
HETATM    6  C           1     -33.411  -3.770 -11.496  0.00  0.00     0.021 C 
HETATM    7  C           1     -33.199  -2.378 -10.917  0.00  0.00     0.012 C 
BRANCH   6   8
HETATM    8  C           1     -33.906  -4.705 -10.401  0.00  0.00     0.002 C 
HETATM    9  C           1     -33.916  -6.136 -10.919  0.00  0.00     0.005 C 
ENDBRANCH   6   8
ENDBRANCH   5   6
BRANCH   5  10
HETATM   10  N           1     -33.760  -3.864 -13.937  0.00  0.00    -0.066 N 
HETATM   11  H           1     -33.033  -3.121 -14.046  0.00  0.00     0.275 HD
HETATM   12  H           1     -33.309  -4.804 -13.985  0.00  0.00     0.275 HD
HETATM   13  H           1     -34.465  -3.775 -14.704  0.00  0.00     0.275 HD
ENDBRANCH   5  10
ENDBRANCH   4   5
BRANCH   2  14
HETATM   14  C           1     -35.615  -0.169 -13.510  0.00  0.00     0.209 C 
BRANCH  14  15
HETATM   15  C           1     -34.747   0.889 -14.178  0.00  0.00     0.200 C 
BRANCH  15  16
HETATM   16  O           1     -35.553   1.733 -14.957  0.00  0.00    -0.398 OA
HETATM   17  H           1     -35.593   2.560 -14.510  0.00  0.00     0.209 HD
ENDBRANCH  15  16
ENDBRANCH  14  15
BRANCH  14  18
HETATM   18  C           1     -36.932  -0.273 -14.239  0.00  0.00     0.198 C 
HETATM   19  O           1     -36.979  -0.790 -15.376  0.00  0.00    -0.646 OA
HETATM   20  O           1     -37.977   0.161 -13.706  0.00  0.00    -0.646 OA
ENDBRANCH  14  18
ENDBRANCH   2  14
TORSDOF 8
ENDMDL
MODEL 3
REMARK VINA RESULT:      -5.8      9.782     11.257
REMARK  8 active torsions:
REMARK  status: ('A' for Active; 'I' for Inactive)
REMARK    1  A    between atoms: C_1  and  C_3 
REMARK    2  A    between atoms: C_3  and  C_15 
REMARK    3  A    between atoms: N_5  and  C_19 
REMARK       I    between atoms: N_5  and  C_13 
REMARK    4  A    between atoms: C_6  and  O_14 
REMARK    5  A    between atoms: C_6  and  C_19 
REMARK    6  A    between atoms: N_8  and  C_15 
REMARK    7  A    between atoms: C_13  and  C_15 
REMARK    8  A    between atoms: C_19  and  C_20 
ROOT
HETATM    1  H           1     -27.484  -8.163 -18.786  0.00  0.00     0.163 HD
HETATM    2  N           1     -27.536  -7.238 -19.194  0.00  0.00    -0.343 N 
HETATM    3  O           1     -28.401  -5.181 -19.115  0.00  0.00    -0.271 OA
HETATM    4  C           1     -28.339  -6.285 -18.629  0.00  0.00     0.249 C 
ENDROOT
BRANCH   4   5
HETATM    5  C           1     -29.147  -6.612 -17.398  0.00  0.00     0.278 C 
BRANCH   5   6
HETATM    6  C           1     -28.424  -6.093 -16.162  0.00  0.00     0.021 C 
HETATM    7  C           1     -29.445  -5.650 -15.123  0.00  0.00     0.012 C 
BRANCH   6   8
HETATM    8  C           1     -27.557  -7.202 -15.580  0.00  0.00     0.002 C 
HETATM    9  C           1     -26.087  -6.860 -15.787  0.00  0.00     0.005 C 
ENDBRANCH   6   8
ENDBRANCH   5   6
BRANCH   5  10
HETATM   10  N           1     -29.317  -8.098 -17.291  0.00  0.00    -0.066 N 
HETATM   11  H           1     -29.547  -8.492 -18.231  0.00  0.00     0.275 HD
HETATM   12  H           1     -28.431  -8.525 -16.940  0.00  0.00     0.275 HD
HETATM   13  H           1     -30.094  -8.311 -16.625  0.00  0.00     0.275 HD
ENDBRANCH   5  10
ENDBRANCH   4   5
BRANCH   2  14
HETATM   14  C           1     -26.760  -6.923 -20.377  0.00  0.00     0.209 C 
BRANCH  14  15
HETATM   15  C           1     -25.372  -6.450 -19.963  0.00  0.00     0.200 C 
BRANCH  15  16
HETATM   16  O           1     -24.799  -7.387 -19.091  0.00  0.00    -0.398 OA
HETATM   17  H           1     -24.317  -7.996 -19.624  0.00  0.00     0.209 HD
ENDBRANCH  15  16
ENDBRANCH  14  15
BRANCH  14  18
HETATM   18  C           1     -26.634  -8.154 -21.240  0.00  0.00     0.198 C 
HETATM   19  O           1     -25.525  -8.469 -21.723  0.00  0.00    -0.646 OA
HETATM   20  O           1     -27.641  -8.858 -21.476  0.00  0.00    -0.646 OA
ENDBRANCH  14  18
ENDBRANCH   2  14
TORSDOF 8
ENDMDL
MODEL 4
REMARK VINA RESULT:      -5.8     12.929     14.633
REMARK  8 active torsions:
REMARK  status: ('A' for Active; 'I' for Inactive)
REMARK    1  A    between atoms: C_1  and  C_3 
REMARK    2  A    between atoms: C_3  and  C_15 
REMARK    3  A    between atoms: N_5  and  C_19 
REMARK       I    between atoms: N_5  and  C_13 
REMARK    4  A    between atoms: C_6  and  O_14 
REMARK    5  A    between atoms: C_6  and  C_19 
REMARK    6  A    between atoms: N_8  and  C_15 
REMARK    7  A    between atoms: C_13  and  C_15 
REMARK    8  A    between atoms: C_19  and  C_20 
ROOT
HETATM    1  H           1     -22.315  -5.826  -9.526  0.00  0.00     0.163 HD
HETATM    2  N           1     -22.202  -4.903  -9.128  0.00  0.00    -0.343 N 
HETATM    3  O           1     -21.526  -3.654  -7.404  0.00  0.00    -0.271 OA
HETATM    4  C           1     -21.661  -4.756  -7.879  0.00  0.00     0.249 C 
ENDROOT
BRANCH   4   5
HETATM    5  C           1     -21.232  -5.972  -7.095  0.00  0.00     0.278 C 
BRANCH   5   6
HETATM    6  C           1     -21.534  -5.759  -5.618  0.00  0.00     0.021 C 
HETATM    7  C           1     -22.938  -6.258  -5.309  0.00  0.00     0.012 C 
BRANCH   6   8
HETATM    8  C           1     -20.525  -6.530  -4.778  0.00  0.00     0.002 C 
HETATM    9  C           1     -21.255  -7.542  -3.906  0.00  0.00     0.005 C 
ENDBRANCH   6   8
ENDBRANCH   5   6
BRANCH   5  10
HETATM   10  N           1     -19.760  -6.191  -7.278  0.00  0.00    -0.066 N 
HETATM   11  H           1     -19.587  -7.177  -7.580  0.00  0.00     0.275 HD
HETATM   12  H           1     -19.398  -5.535  -8.005  0.00  0.00     0.275 HD
HETATM   13  H           1     -19.268  -6.014  -6.373  0.00  0.00     0.275 HD
ENDBRANCH   5  10
ENDBRANCH   4   5
BRANCH   2  14
HETATM   14  C           1     -22.614  -3.734  -9.880  0.00  0.00     0.209 C 
BRANCH  14  15
HETATM   15  C           1     -21.803  -3.647 -11.167  0.00  0.00     0.200 C 
BRANCH  15  16
HETATM   16  O           1     -22.465  -4.345 -12.186  0.00  0.00    -0.398 OA
HETATM   17  H           1     -22.115  -5.219 -12.191  0.00  0.00     0.209 HD
ENDBRANCH  15  16
ENDBRANCH  14  15
BRANCH  14  18
HETATM   18  C           1     -24.080  -3.842 -10.216  0.00  0.00     0.198 C 
HETATM   19  O           1     -24.670  -2.882 -10.758  0.00  0.00    -0.646 OA
HETATM   20  O           1     -24.707  -4.890  -9.951  0.00  0.00    -0.646 OA
ENDBRANCH  14  18
ENDBRANCH   2  14
TORSDOF 8
ENDMDL
MODEL 5
REMARK VINA RESULT:      -5.8      9.652     11.392
REMARK  8 active torsions:
REMARK  status: ('A' for Active; 'I' for Inactive)
REMARK    1  A    between atoms: C_1  and  C_3 
REMARK    2  A    between atoms: C_3  and  C_15 
REMARK    3  A    between atoms: N_5  and  C_19 
REMARK       I    between atoms: N_5  and  C_13 
REMARK    4  A    between atoms: C_6  and  O_14 
REMARK    5  A    between atoms: C_6  and  C_19 
REMARK    6  A    between atoms: N_8  and  C_15 
REMARK    7  A    between atoms: C_13  and  C_15 
REMARK    8  A    between atoms: C_19  and  C_20 
ROOT
HETATM    1  H           1     -26.445  -7.403 -18.593  0.00  0.00     0.163 HD
HETATM    2  N           1     -26.111  -6.741 -17.904  0.00  0.00    -0.343 N 
HETATM    3  O           1     -26.585  -5.077 -16.493  0.00  0.00    -0.271 OA
HETATM    4  C           1     -26.983  -5.867 -17.315  0.00  0.00     0.249 C 
ENDROOT
BRANCH   4   5
HETATM    5  C           1     -28.445  -5.891 -17.690  0.00  0.00     0.278 C 
BRANCH   5   6
HETATM    6  C           1     -29.207  -4.889 -16.833  0.00  0.00     0.021 C 
HETATM    7  C           1     -29.467  -3.625 -17.639  0.00  0.00     0.012 C 
BRANCH   6   8
HETATM    8  C           1     -30.535  -5.498 -16.402  0.00  0.00     0.002 C 
HETATM    9  C           1     -31.676  -4.583 -16.824  0.00  0.00     0.005 C 
ENDBRANCH   6   8
ENDBRANCH   5   6
BRANCH   5  10
HETATM   10  N           1     -28.997  -7.267 -17.462  0.00  0.00    -0.066 N 
HETATM   11  H           1     -28.364  -7.975 -17.897  0.00  0.00     0.275 HD
HETATM   12  H           1     -29.069  -7.447 -16.435  0.00  0.00     0.275 HD
HETATM   13  H           1     -29.946  -7.336 -17.895  0.00  0.00     0.275 HD
ENDBRANCH   5  10
ENDBRANCH   4   5
BRANCH   2  14
HETATM   14  C           1     -24.707  -6.717 -17.543  0.00  0.00     0.209 C 
BRANCH  14  15
HETATM   15  C           1     -24.456  -7.714 -16.418  0.00  0.00     0.200 C 
BRANCH  15  16
HETATM   16  O           1     -24.813  -7.136 -15.192  0.00  0.00    -0.398 OA
HETATM   17  H           1     -25.628  -7.529 -14.932  0.00  0.00     0.209 HD
ENDBRANCH  15  16
ENDBRANCH  14  15
BRANCH  14  18
HETATM   18  C           1     -23.871  -7.091 -18.742  0.00  0.00     0.198 C 
HETATM   19  O           1     -22.623  -7.078 -18.663  0.00  0.00    -0.646 OA
HETATM   20  O           1     -24.426  -7.410 -19.816  0.00  0.00    -0.646 OA
ENDBRANCH  14  18
ENDBRANCH   2  14
TORSDOF 8
ENDMDL
MODEL 6
REMARK VINA RESULT:      -5.7      3.065      5.552
REMARK  8 active torsions:
REMARK  status: ('A' for Active; 'I' for Inactive)
REMARK    1  A    between atoms: C_1  and  C_3 
REMARK    2  A    between atoms: C_3  and  C_15 
REMARK    3  A    between atoms: N_5  and  C_19 
REMARK       I    between atoms: N_5  and  C_13 
REMARK    4  A    between atoms: C_6  and  O_14 
REMARK    5  A    between atoms: C_6  and  C_19 
REMARK    6  A    between atoms: N_8  and  C_15 
REMARK    7  A    between atoms: C_13  and  C_15 
REMARK    8  A    between atoms: C_19  and  C_20 
ROOT
HETATM    1  H           1     -35.824  -3.482 -12.070  0.00  0.00     0.163 HD
HETATM    2  N           1     -35.098  -3.170 -11.437  0.00  0.00    -0.343 N 
HETATM    3  O           1     -34.269  -1.529 -10.168  0.00  0.00    -0.271 OA
HETATM    4  C           1     -35.135  -1.902 -10.923  0.00  0.00     0.249 C 
ENDROOT
BRANCH   4   5
HETATM    5  C           1     -36.261  -0.969 -11.297  0.00  0.00     0.278 C 
BRANCH   5   6
HETATM    6  C           1     -36.136  -0.584 -12.765  0.00  0.00     0.021 C 
HETATM    7  C           1     -37.474  -0.060 -13.269  0.00  0.00     0.012 C 
BRANCH   6   8
HETATM    8  C           1     -35.077   0.500 -12.917  0.00  0.00     0.002 C 
HETATM    9  C           1     -34.981   0.917 -14.378  0.00  0.00     0.005 C 
ENDBRANCH   6   8
ENDBRANCH   5   6
BRANCH   5  10
HETATM   10  N           1     -36.190   0.266 -10.449  0.00  0.00    -0.066 N 
HETATM   11  H           1     -37.082   0.802 -10.538  0.00  0.00     0.275 HD
HETATM   12  H           1     -36.044  -0.005  -9.451  0.00  0.00     0.275 HD
HETATM   13  H           1     -35.393   0.861 -10.769  0.00  0.00     0.275 HD
ENDBRANCH   5  10
ENDBRANCH   4   5
BRANCH   2  14
HETATM   14  C           1     -34.016  -4.065 -11.077  0.00  0.00     0.209 C 
BRANCH  14  15
HETATM   15  C           1     -34.588  -5.423 -10.691  0.00  0.00     0.200 C 
BRANCH  15  16
HETATM   16  O           1     -34.419  -6.323 -11.753  0.00  0.00    -0.398 OA
HETATM   17  H           1     -34.146  -7.141 -11.377  0.00  0.00     0.209 HD
ENDBRANCH  15  16
ENDBRANCH  14  15
BRANCH  14  18
HETATM   18  C           1     -33.084  -4.228 -12.252  0.00  0.00     0.198 C 
HETATM   19  O           1     -31.937  -4.698 -12.081  0.00  0.00    -0.646 OA
HETATM   20  O           1     -33.457  -3.892 -13.397  0.00  0.00    -0.646 OA
ENDBRANCH  14  18
ENDBRANCH   2  14
TORSDOF 8
ENDMDL
MODEL 7
REMARK VINA RESULT:      -5.4      5.021      6.579
REMARK  8 active torsions:
REMARK  status: ('A' for Active; 'I' for Inactive)
REMARK    1  A    between atoms: C_1  and  C_3 
REMARK    2  A    between atoms: C_3  and  C_15 
REMARK    3  A    between atoms: N_5  and  C_19 
REMARK       I    between atoms: N_5  and  C_13 
REMARK    4  A    between atoms: C_6  and  O_14 
REMARK    5  A    between atoms: C_6  and  C_19 
REMARK    6  A    between atoms: N_8  and  C_15 
REMARK    7  A    between atoms: C_13  and  C_15 
REMARK    8  A    between atoms: C_19  and  C_20 
ROOT
HETATM    1  H           1     -32.191  -5.141 -15.562  0.00  0.00     0.163 HD
HETATM    2  N           1     -32.799  -4.465 -16.007  0.00  0.00    -0.343 N 
HETATM    3  O           1     -33.078  -2.940 -17.614  0.00  0.00    -0.271 OA
HETATM    4  C           1     -32.354  -3.747 -17.083  0.00  0.00     0.249 C 
ENDROOT
BRANCH   4   5
HETATM    5  C           1     -30.956  -3.965 -17.609  0.00  0.00     0.278 C 
BRANCH   5   6
HETATM    6  C           1     -30.270  -5.054 -16.795  0.00  0.00     0.021 C 
HETATM    7  C           1     -30.312  -6.367 -17.565  0.00  0.00     0.012 C 
BRANCH   6   8
HETATM    8  C           1     -28.821  -4.660 -16.543  0.00  0.00     0.002 C 
HETATM    9  C           1     -27.897  -5.617 -17.284  0.00  0.00     0.005 C 
ENDBRANCH   6   8
ENDBRANCH   5   6
BRANCH   5  10
HETATM   10  N           1     -30.175  -2.690 -17.497  0.00  0.00    -0.066 N 
HETATM   11  H           1     -30.454  -2.184 -16.626  0.00  0.00     0.275 HD
HETATM   12  H           1     -29.154  -2.909 -17.461  0.00  0.00     0.275 HD
HETATM   13  H           1     -30.373  -2.087 -18.328  0.00  0.00     0.275 HD
ENDBRANCH   5  10
ENDBRANCH   4   5
BRANCH   2  14
HETATM   14  C           1     -34.142  -4.255 -15.502  0.00  0.00     0.209 C 
BRANCH  14  15
HETATM   15  C           1     -34.884  -5.585 -15.466  0.00  0.00     0.200 C 
BRANCH  15  16
HETATM   16  O           1     -35.265  -5.874 -14.148  0.00  0.00    -0.398 OA
HETATM   17  H           1     -35.593  -5.073 -13.777  0.00  0.00     0.209 HD
ENDBRANCH  15  16
ENDBRANCH  14  15
BRANCH  14  18
HETATM   18  C           1     -34.073  -3.680 -14.109  0.00  0.00     0.198 C 
HETATM   19  O           1     -34.847  -2.757 -13.774  0.00  0.00    -0.646 OA
HETATM   20  O           1     -33.239  -4.124 -13.290  0.00  0.00    -0.646 OA
ENDBRANCH  14  18
ENDBRANCH   2  14
TORSDOF 8
ENDMDL
MODEL 8
REMARK VINA RESULT:      -5.2     15.454     17.297
REMARK  8 active torsions:
REMARK  status: ('A' for Active; 'I' for Inactive)
REMARK    1  A    between atoms: C_1  and  C_3 
REMARK    2  A    between atoms: C_3  and  C_15 
REMARK    3  A    between atoms: N_5  and  C_19 
REMARK       I    between atoms: N_5  and  C_13 
REMARK    4  A    between atoms: C_6  and  O_14 
REMARK    5  A    between atoms: C_6  and  C_19 
REMARK    6  A    between atoms: N_8  and  C_15 
REMARK    7  A    between atoms: C_13  and  C_15 
REMARK    8  A    between atoms: C_19  and  C_20 
ROOT
HETATM    1  H           1     -20.989  -4.739  -4.708  0.00  0.00     0.163 HD
HETATM    2  N           1     -21.383  -5.588  -5.092  0.00  0.00    -0.343 N 
HETATM    3  O           1     -22.120  -7.665  -4.729  0.00  0.00    -0.271 OA
HETATM    4  C           1     -21.650  -6.651  -4.272  0.00  0.00     0.249 C 
ENDROOT
BRANCH   4   5
HETATM    5  C           1     -21.359  -6.555  -2.794  0.00  0.00     0.278 C 
BRANCH   5   6
HETATM    6  C           1     -21.419  -7.944  -2.173  0.00  0.00     0.021 C 
HETATM    7  C           1     -20.005  -8.468  -1.961  0.00  0.00     0.012 C 
BRANCH   6   8
HETATM    8  C           1     -22.139  -7.869  -0.833  0.00  0.00     0.002 C 
HETATM    9  C           1     -21.283  -8.526   0.242  0.00  0.00     0.005 C 
ENDBRANCH   6   8
ENDBRANCH   5   6
BRANCH   5  10
HETATM   10  N           1     -22.379  -5.671  -2.140  0.00  0.00    -0.066 N 
HETATM   11  H           1     -22.814  -5.049  -2.858  0.00  0.00     0.275 HD
HETATM   12  H           1     -23.117  -6.261  -1.696  0.00  0.00     0.275 HD
HETATM   13  H           1     -21.913  -5.086  -1.410  0.00  0.00     0.275 HD
ENDBRANCH   5  10
ENDBRANCH   4   5
BRANCH   2  14
HETATM   14  C           1     -21.662  -5.681  -6.512  0.00  0.00     0.209 C 
BRANCH  14  15
HETATM   15  C           1     -22.369  -4.413  -6.974  0.00  0.00     0.200 C 
BRANCH  15  16
HETATM   16  O           1     -23.747  -4.535  -6.745  0.00  0.00    -0.398 OA
HETATM   17  H           1     -24.028  -5.317  -7.186  0.00  0.00     0.209 HD
ENDBRANCH  15  16
ENDBRANCH  14  15
BRANCH  14  18
HETATM   18  C           1     -20.369  -5.841  -7.271  0.00  0.00     0.198 C 
HETATM   19  O           1     -19.556  -6.733  -6.942  0.00  0.00    -0.646 OA
HETATM   20  O           1     -20.107  -5.080  -8.228  0.00  0.00    -0.646 OA
ENDBRANCH  14  18
ENDBRANCH   2  14
TORSDOF 8
ENDMDL
MODEL 9
REMARK VINA RESULT:      -5.2     10.643     12.267
REMARK  8 active torsions:
REMARK  status: ('A' for Active; 'I' for Inactive)
REMARK    1  A    between atoms: C_1  and  C_3 
REMARK    2  A    between atoms: C_3  and  C_15 
REMARK    3  A    between atoms: N_5  and  C_19 
REMARK       I    between atoms: N_5  and  C_13 
REMARK    4  A    between atoms: C_6  and  O_14 
REMARK    5  A    between atoms: C_6  and  C_19 
REMARK    6  A    between atoms: N_8  and  C_15 
REMARK    7  A    between atoms: C_13  and  C_15 
REMARK    8  A    between atoms: C_19  and  C_20 
ROOT
HETATM    1  H           1     -25.889  -6.457 -17.081  0.00  0.00     0.163 HD
HETATM    2  N           1     -26.624  -6.410 -17.775  0.00  0.00    -0.343 N 
HETATM    3  O           1     -27.195  -6.465 -19.933  0.00  0.00    -0.271 OA
HETATM    4  C           1     -26.319  -6.522 -19.104  0.00  0.00     0.249 C 
ENDROOT
BRANCH   4   5
HETATM    5  C           1     -24.886  -6.719 -19.536  0.00  0.00     0.278 C 
BRANCH   5   6
HETATM    6  C           1     -24.854  -7.393 -20.901  0.00  0.00     0.021 C 
HETATM    7  C           1     -24.750  -6.333 -21.989  0.00  0.00     0.012 C 
BRANCH   6   8
HETATM    8  C           1     -23.648  -8.320 -20.979  0.00  0.00     0.002 C 
HETATM    9  C           1     -23.117  -8.346 -22.405  0.00  0.00     0.005 C 
ENDBRANCH   6   8
ENDBRANCH   5   6
BRANCH   5  10
HETATM   10  N           1     -24.176  -7.581 -18.535  0.00  0.00    -0.066 N 
HETATM   11  H           1     -24.869  -8.194 -18.048  0.00  0.00     0.275 HD
HETATM   12  H           1     -23.470  -8.174 -19.026  0.00  0.00     0.275 HD
HETATM   13  H           1     -23.695  -6.974 -17.833  0.00  0.00     0.275 HD
ENDBRANCH   5  10
ENDBRANCH   4   5
BRANCH   2  14
HETATM   14  C           1     -28.001  -6.221 -17.361  0.00  0.00     0.209 C 
BRANCH  14  15
HETATM   15  C           1     -28.223  -6.895 -16.013  0.00  0.00     0.200 C 
BRANCH  15  16
HETATM   16  O           1     -28.967  -6.047 -15.182  0.00  0.00    -0.398 OA
HETATM   17  H           1     -29.870  -6.145 -15.430  0.00  0.00     0.209 HD
ENDBRANCH  15  16
ENDBRANCH  14  15
BRANCH  14  18
HETATM   18  C           1     -28.293  -4.746 -17.240  0.00  0.00     0.198 C 
HETATM   19  O           1     -29.278  -4.252 -17.831  0.00  0.00    -0.646 OA
HETATM   20  O           1     -27.548  -4.016 -16.550  0.00  0.00    -0.646 OA
ENDBRANCH  14  18
ENDBRANCH   2  14
TORSDOF 8
ENDMDL
