MODEL 1
REMARK VINA RESULT:      -6.7      0.000      0.000
REMARK  8 active torsions:
REMARK  status: ('A' for Active; 'I' for Inactive)
REMARK    1  A    between atoms: C_1  and  C_8 
REMARK    2  A    between atoms: C_5  and  C_6 
REMARK    3  A    between atoms: C_5  and  C_8 
REMARK    4  A    between atoms: C_5  and  N_25 
REMARK       I    between atoms: C_6  and  N_21 
REMARK    5  A    between atoms: C_11  and  C_12 
REMARK    6  A    between atoms: C_12  and  C_13 
REMARK    7  A    between atoms: C_12  and  N_21 
REMARK    8  A    between atoms: C_13  and  C_17 
ROOT
HETATM    1  C           1     -34.200  -4.152 -12.341  0.00  0.00     0.261 C 
ENDROOT
BRANCH   1   2
HETATM    2  C           1     -34.313  -2.721 -11.876  0.00  0.00     0.130 C 
HETATM    3  N           1     -35.290  -1.911 -12.390  0.00  0.00    -0.359 N 
HETATM    4  H           1     -35.936  -2.271 -13.081  0.00  0.00     0.162 HD
HETATM    5  O           1     -33.542  -2.291 -11.052  0.00  0.00    -0.397 OA
BRANCH   3   6
HETATM    6  C           1     -35.400  -0.536 -11.943  0.00  0.00     0.184 C 
BRANCH   6   7
HETATM    7  C           1     -36.555  -0.412 -10.979  0.00  0.00     0.196 C 
HETATM    8  O           1     -37.539  -1.177 -11.080  0.00  0.00    -0.646 OA
HETATM    9  O           1     -36.527   0.455 -10.079  0.00  0.00    -0.646 OA
ENDBRANCH   6   7
BRANCH   6  10
HETATM   10  C           1     -35.641   0.371 -13.142  0.00  0.00     0.040 C 
BRANCH  10  11
HETATM   11  C           1     -36.261  -0.437 -14.275  0.00  0.00    -0.018 C 
HETATM   12  C           1     -35.488  -0.181 -15.562  0.00  0.00     0.289 C 
HETATM   13  C           1     -37.712  -0.016 -14.461  0.00  0.00     0.009 C 
ENDBRANCH  10  11
ENDBRANCH   6  10
ENDBRANCH   3   6
ENDBRANCH   1   2
BRANCH   1  14
HETATM   14  C           1     -33.176  -4.885 -11.484  0.00  0.00     0.099 C 
BRANCH  14  15
HETATM   15  C           1     -33.837  -6.034 -10.789  0.00  0.00     0.028 A 
HETATM   16  C           1     -35.014  -5.950 -10.085  0.00  0.00     0.114 A 
HETATM   17  N           1     -35.245  -7.217  -9.626  0.00  0.00    -0.360 N 
HETATM   18  C           1     -34.218  -8.005 -10.064  0.00  0.00     0.180 A 
HETATM   19  H           1     -36.062  -7.528  -9.045  0.00  0.00     0.166 HD
HETATM   20  N           1     -33.351  -7.317 -10.770  0.00  0.00    -0.355 N 
ATOM     21  HN          1     -32.499  -7.662 -11.209  1.00  0.00     0.166 HD
ENDBRANCH  14  15
ENDBRANCH   1  14
BRANCH   1  22
HETATM   22  N           1     -33.759  -4.178 -13.775  0.00  0.00    -0.067 N 
HETATM   23  H           1     -34.156  -3.352 -14.277  0.00  0.00     0.275 HD
HETATM   24  H           1     -34.099  -5.056 -14.230  0.00  0.00     0.275 HD
HETATM   25  H           1     -32.716  -4.145 -13.820  0.00  0.00     0.275 HD
ENDBRANCH   1  22
TORSDOF 8
ENDMDL
MODEL 2
REMARK VINA RESULT:      -6.7     10.857     12.514
REMARK  8 active torsions:
REMARK  status: ('A' for Active; 'I' for Inactive)
REMARK    1  A    between atoms: C_1  and  C_8 
REMARK    2  A    between atoms: C_5  and  C_6 
REMARK    3  A    between atoms: C_5  and  C_8 
REMARK    4  A    between atoms: C_5  and  N_25 
REMARK       I    between atoms: C_6  and  N_21 
REMARK    5  A    between atoms: C_11  and  C_12 
REMARK    6  A    between atoms: C_12  and  C_13 
REMARK    7  A    between atoms: C_12  and  N_21 
REMARK    8  A    between atoms: C_13  and  C_17 
ROOT
HETATM    1  C           1     -25.027  -6.810 -19.227  0.00  0.00     0.261 C 
ENDROOT
BRANCH   1   2
HETATM    2  C           1     -26.241  -6.478 -18.395  0.00  0.00     0.130 C 
HETATM    3  N           1     -27.495  -6.638 -18.920  0.00  0.00    -0.359 N 
HETATM    4  H           1     -27.609  -6.979 -19.866  0.00  0.00     0.162 HD
HETATM    5  O           1     -26.106  -6.071 -17.266  0.00  0.00    -0.397 OA
BRANCH   3   6
HETATM    6  C           1     -28.661  -6.320 -18.120  0.00  0.00     0.184 C 
BRANCH   6   7
HETATM    7  C           1     -29.575  -7.521 -18.063  0.00  0.00     0.196 C 
HETATM    8  O           1     -30.437  -7.694 -18.952  0.00  0.00    -0.646 OA
HETATM    9  O           1     -29.469  -8.342 -17.127  0.00  0.00    -0.646 OA
ENDBRANCH   6   7
BRANCH   6  10
HETATM   10  C           1     -29.404  -5.148 -18.747  0.00  0.00     0.040 C 
BRANCH  10  11
HETATM   11  C           1     -29.750  -4.129 -17.669  0.00  0.00    -0.018 C 
HETATM   12  C           1     -28.472  -3.663 -16.984  0.00  0.00     0.289 C 
HETATM   13  C           1     -30.672  -4.771 -16.642  0.00  0.00     0.009 C 
ENDBRANCH  10  11
ENDBRANCH   6  10
ENDBRANCH   3   6
ENDBRANCH   1   2
BRANCH   1  14
HETATM   14  C           1     -25.454  -7.604 -20.454  0.00  0.00     0.099 C 
BRANCH  14  15
HETATM   15  C           1     -24.245  -7.977 -21.254  0.00  0.00     0.028 A 
HETATM   16  C           1     -24.058  -7.665 -22.580  0.00  0.00     0.114 A 
HETATM   17  N           1     -22.837  -8.192 -22.899  0.00  0.00    -0.360 N 
HETATM   18  C           1     -22.342  -8.789 -21.775  0.00  0.00     0.180 A 
HETATM   19  H           1     -22.366  -8.144 -23.836  0.00  0.00     0.166 HD
HETATM   20  N           1     -23.172  -8.676 -20.765  0.00  0.00    -0.355 N 
ATOM     21  HN          1     -23.045  -9.032 -19.817  1.00  0.00     0.166 HD
ENDBRANCH  14  15
ENDBRANCH   1  14
BRANCH   1  22
HETATM   22  N           1     -24.071  -7.628 -18.411  0.00  0.00    -0.067 N 
HETATM   23  H           1     -24.571  -8.029 -17.586  0.00  0.00     0.275 HD
HETATM   24  H           1     -23.286  -7.022 -18.081  0.00  0.00     0.275 HD
HETATM   25  H           1     -23.687  -8.404 -18.998  0.00  0.00     0.275 HD
ENDBRANCH   1  22
TORSDOF 8
ENDMDL
MODEL 3
REMARK VINA RESULT:      -6.3     10.968     12.715
REMARK  8 active torsions:
REMARK  status: ('A' for Active; 'I' for Inactive)
REMARK    1  A    between atoms: C_1  and  C_8 
REMARK    2  A    between atoms: C_5  and  C_6 
REMARK    3  A    between atoms: C_5  and  C_8 
REMARK    4  A    between atoms: C_5  and  N_25 
REMARK       I    between atoms: C_6  and  N_21 
REMARK    5  A    between atoms: C_11  and  C_12 
REMARK    6  A    between atoms: C_12  and  C_13 
REMARK    7  A    between atoms: C_12  and  N_21 
REMARK    8  A    between atoms: C_13  and  C_17 
ROOT
HETATM    1  C           1     -25.181  -6.791 -19.881  0.00  0.00     0.261 C 
ENDROOT
BRANCH   1   2
HETATM    2  C           1     -26.532  -6.347 -19.375  0.00  0.00     0.130 C 
HETATM    3  N           1     -26.776  -6.298 -18.029  0.00  0.00    -0.359 N 
HETATM    4  H           1     -26.051  -6.559 -17.373  0.00  0.00     0.162 HD
HETATM    5  O           1     -27.397  -6.034 -20.158  0.00  0.00    -0.397 OA
BRANCH   3   6
HETATM    6  C           1     -28.073  -5.871 -17.543  0.00  0.00     0.184 C 
BRANCH   6   7
HETATM    7  C           1     -27.891  -4.784 -16.511  0.00  0.00     0.196 C 
HETATM    8  O           1     -27.943  -3.582 -16.853  0.00  0.00    -0.646 OA
HETATM    9  O           1     -27.688  -5.085 -15.315  0.00  0.00    -0.646 OA
ENDBRANCH   6   7
BRANCH   6  10
HETATM   10  C           1     -28.794  -7.054 -16.910  0.00  0.00     0.040 C 
BRANCH  10  11
HETATM   11  C           1     -30.213  -7.137 -17.458  0.00  0.00    -0.018 C 
HETATM   12  C           1     -30.229  -8.028 -18.692  0.00  0.00     0.289 C 
HETATM   13  C           1     -30.694  -5.741 -17.833  0.00  0.00     0.009 C 
ENDBRANCH  10  11
ENDBRANCH   6  10
ENDBRANCH   3   6
ENDBRANCH   1   2
BRANCH   1  14
HETATM   14  C           1     -25.367  -7.804 -21.002  0.00  0.00     0.099 C 
BRANCH  14  15
HETATM   15  C           1     -24.029  -8.201 -21.543  0.00  0.00     0.028 A 
HETATM   16  C           1     -23.609  -7.977 -22.832  0.00  0.00     0.114 A 
HETATM   17  N           1     -22.344  -8.495 -22.888  0.00  0.00    -0.360 N 
HETATM   18  C           1     -22.054  -9.002 -21.654  0.00  0.00     0.180 A 
HETATM   19  H           1     -21.712  -8.500 -23.726  0.00  0.00     0.166 HD
HETATM   20  N           1     -23.054  -8.839 -20.820  0.00  0.00    -0.355 N 
ATOM     21  HN          1     -23.097  -9.126 -19.842  1.00  0.00     0.166 HD
ENDBRANCH  14  15
ENDBRANCH   1  14
BRANCH   1  22
HETATM   22  N           1     -24.411  -7.423 -18.759  0.00  0.00    -0.067 N 
HETATM   23  H           1     -24.438  -6.798 -17.922  0.00  0.00     0.275 HD
HETATM   24  H           1     -23.419  -7.568 -19.054  0.00  0.00     0.275 HD
HETATM   25  H           1     -24.840  -8.345 -18.519  0.00  0.00     0.275 HD
ENDBRANCH   1  22
TORSDOF 8
ENDMDL
MODEL 4
REMARK VINA RESULT:      -6.3     13.309     16.144
REMARK  8 active torsions:
REMARK  status: ('A' for Active; 'I' for Inactive)
REMARK    1  A    between atoms: C_1  and  C_8 
REMARK    2  A    between atoms: C_5  and  C_6 
REMARK    3  A    between atoms: C_5  and  C_8 
REMARK    4  A    between atoms: C_5  and  N_25 
REMARK       I    between atoms: C_6  and  N_21 
REMARK    5  A    between atoms: C_11  and  C_12 
REMARK    6  A    between atoms: C_12  and  C_13 
REMARK    7  A    between atoms: C_12  and  N_21 
REMARK    8  A    between atoms: C_13  and  C_17 
ROOT
HETATM    1  C           1     -21.095  -4.273  -7.588  0.00  0.00     0.261 C 
ENDROOT
BRANCH   1   2
HETATM    2  C           1     -20.691  -5.050  -6.359  0.00  0.00     0.130 C 
HETATM    3  N           1     -20.958  -6.390  -6.279  0.00  0.00    -0.359 N 
HETATM    4  H           1     -21.426  -6.861  -7.043  0.00  0.00     0.162 HD
HETATM    5  O           1     -20.133  -4.488  -5.447  0.00  0.00    -0.397 OA
BRANCH   3   6
HETATM    6  C           1     -20.569  -7.136  -5.098  0.00  0.00     0.184 C 
BRANCH   6   7
HETATM    7  C           1     -20.162  -8.533  -5.498  0.00  0.00     0.196 C 
HETATM    8  O           1     -21.026  -9.430  -5.607  0.00  0.00    -0.646 OA
HETATM    9  O           1     -18.960  -8.794  -5.721  0.00  0.00    -0.646 OA
ENDBRANCH   6   7
BRANCH   6  10
HETATM   10  C           1     -21.745  -7.208  -4.132  0.00  0.00     0.040 C 
BRANCH  10  11
HETATM   11  C           1     -21.241  -7.034  -2.705  0.00  0.00    -0.018 C 
HETATM   12  C           1     -21.188  -8.392  -2.017  0.00  0.00     0.289 C 
HETATM   13  C           1     -22.188  -6.116  -1.943  0.00  0.00     0.009 C 
ENDBRANCH  10  11
ENDBRANCH   6  10
ENDBRANCH   3   6
ENDBRANCH   1   2
BRANCH   1  14
HETATM   14  C           1     -21.763  -5.211  -8.585  0.00  0.00     0.099 C 
BRANCH  14  15
HETATM   15  C           1     -22.958  -4.537  -9.183  0.00  0.00     0.028 A 
HETATM   16  C           1     -23.369  -4.684 -10.486  0.00  0.00     0.114 A 
HETATM   17  N           1     -24.484  -3.901 -10.597  0.00  0.00    -0.360 N 
HETATM   18  C           1     -24.702  -3.322  -9.379  0.00  0.00     0.180 A 
HETATM   19  H           1     -25.068  -3.770 -11.460  0.00  0.00     0.166 HD
HETATM   20  N           1     -23.795  -3.688  -8.504  0.00  0.00    -0.355 N 
ATOM     21  HN          1     -23.727  -3.402  -7.527  1.00  0.00     0.166 HD
ENDBRANCH  14  15
ENDBRANCH   1  14
BRANCH   1  22
HETATM   22  N           1     -19.877  -3.663  -8.216  0.00  0.00    -0.067 N 
HETATM   23  H           1     -20.027  -3.565  -9.245  0.00  0.00     0.275 HD
HETATM   24  H           1     -19.049  -4.277  -8.042  0.00  0.00     0.275 HD
HETATM   25  H           1     -19.704  -2.721  -7.798  0.00  0.00     0.275 HD
ENDBRANCH   1  22
TORSDOF 8
ENDMDL
MODEL 5
REMARK VINA RESULT:      -6.1      1.796      2.646
REMARK  8 active torsions:
REMARK  status: ('A' for Active; 'I' for Inactive)
REMARK    1  A    between atoms: C_1  and  C_8 
REMARK    2  A    between atoms: C_5  and  C_6 
REMARK    3  A    between atoms: C_5  and  C_8 
REMARK    4  A    between atoms: C_5  and  N_25 
REMARK       I    between atoms: C_6  and  N_21 
REMARK    5  A    between atoms: C_11  and  C_12 
REMARK    6  A    between atoms: C_12  and  C_13 
REMARK    7  A    between atoms: C_12  and  N_21 
REMARK    8  A    between atoms: C_13  and  C_17 
ROOT
HETATM    1  C           1     -34.120  -4.600 -12.133  0.00  0.00     0.261 C 
ENDROOT
BRANCH   1   2
HETATM    2  C           1     -35.031  -3.397 -12.144  0.00  0.00     0.130 C 
HETATM    3  N           1     -34.762  -2.344 -12.976  0.00  0.00    -0.359 N 
HETATM    4  H           1     -33.954  -2.371 -13.584  0.00  0.00     0.162 HD
HETATM    5  O           1     -35.996  -3.364 -11.418  0.00  0.00    -0.397 OA
BRANCH   3   6
HETATM    6  C           1     -35.638  -1.188 -12.986  0.00  0.00     0.184 C 
BRANCH   6   7
HETATM    7  C           1     -35.526  -0.485 -14.317  0.00  0.00     0.196 C 
HETATM    8  O           1     -35.626   0.760 -14.378  0.00  0.00    -0.646 OA
HETATM    9  O           1     -35.333  -1.148 -15.360  0.00  0.00    -0.646 OA
ENDBRANCH   6   7
BRANCH   6  10
HETATM   10  C           1     -35.231  -0.232 -11.873  0.00  0.00     0.040 C 
BRANCH  10  11
HETATM   11  C           1     -36.456   0.138 -11.047  0.00  0.00    -0.018 C 
HETATM   12  C           1     -36.402  -0.587  -9.708  0.00  0.00     0.289 C 
HETATM   13  C           1     -37.716  -0.274 -11.797  0.00  0.00     0.009 C 
ENDBRANCH  10  11
ENDBRANCH   6  10
ENDBRANCH   3   6
ENDBRANCH   1   2
BRANCH   1  14
HETATM   14  C           1     -33.687  -4.897 -10.704  0.00  0.00     0.099 C 
BRANCH  14  15
HETATM   15  C           1     -34.045  -6.307 -10.355  0.00  0.00     0.028 A 
HETATM   16  C           1     -35.154  -6.676  -9.631  0.00  0.00     0.114 A 
HETATM   17  N           1     -35.088  -8.040  -9.551  0.00  0.00    -0.360 N 
HETATM   18  C           1     -33.963  -8.435 -10.218  0.00  0.00     0.180 A 
HETATM   19  H           1     -35.776  -8.667  -9.067  0.00  0.00     0.166 HD
HETATM   20  N           1     -33.313  -7.410 -10.715  0.00  0.00    -0.355 N 
ATOM     21  HN          1     -32.447  -7.428 -11.253  1.00  0.00     0.166 HD
ENDBRANCH  14  15
ENDBRANCH   1  14
BRANCH   1  22
HETATM   22  N           1     -32.910  -4.318 -12.973  0.00  0.00    -0.067 N 
HETATM   23  H           1     -32.574  -5.205 -13.410  0.00  0.00     0.275 HD
HETATM   24  H           1     -32.154  -3.917 -12.373  0.00  0.00     0.275 HD
HETATM   25  H           1     -33.158  -3.633 -13.722  0.00  0.00     0.275 HD
ENDBRANCH   1  22
TORSDOF 8
ENDMDL
MODEL 6
REMARK VINA RESULT:      -5.9     14.817     17.869
REMARK  8 active torsions:
REMARK  status: ('A' for Active; 'I' for Inactive)
REMARK    1  A    between atoms: C_1  and  C_8 
REMARK    2  A    between atoms: C_5  and  C_6 
REMARK    3  A    between atoms: C_5  and  C_8 
REMARK    4  A    between atoms: C_5  and  N_25 
REMARK       I    between atoms: C_6  and  N_21 
REMARK    5  A    between atoms: C_11  and  C_12 
REMARK    6  A    between atoms: C_12  and  C_13 
REMARK    7  A    between atoms: C_12  and  N_21 
REMARK    8  A    between atoms: C_13  and  C_17 
ROOT
HETATM    1  C           1     -21.663  -6.356  -5.049  0.00  0.00     0.261 C 
ENDROOT
BRANCH   1   2
HETATM    2  C           1     -21.234  -6.731  -3.652  0.00  0.00     0.130 C 
HETATM    3  N           1     -20.878  -8.023  -3.370  0.00  0.00    -0.359 N 
HETATM    4  H           1     -20.903  -8.726  -4.097  0.00  0.00     0.162 HD
HETATM    5  O           1     -21.204  -5.892  -2.784  0.00  0.00    -0.397 OA
BRANCH   3   6
HETATM    6  C           1     -20.466  -8.383  -2.027  0.00  0.00     0.184 C 
BRANCH   6   7
HETATM    7  C           1     -19.411  -9.460  -2.098  0.00  0.00     0.196 C 
HETATM    8  O           1     -19.617 -10.574  -1.569  0.00  0.00    -0.646 OA
HETATM    9  O           1     -18.330  -9.239  -2.686  0.00  0.00    -0.646 OA
ENDBRANCH   6   7
BRANCH   6  10
HETATM   10  C           1     -21.667  -8.901  -1.247  0.00  0.00     0.040 C 
BRANCH  10  11
HETATM   11  C           1     -21.812  -8.111   0.047  0.00  0.00    -0.018 C 
HETATM   12  C           1     -21.055  -8.820   1.162  0.00  0.00     0.289 C 
HETATM   13  C           1     -23.286  -8.013   0.417  0.00  0.00     0.009 C 
ENDBRANCH  10  11
ENDBRANCH   6  10
ENDBRANCH   3   6
ENDBRANCH   1   2
BRANCH   1  14
HETATM   14  C           1     -20.907  -5.112  -5.497  0.00  0.00     0.099 C 
BRANCH  14  15
HETATM   15  C           1     -21.305  -4.761  -6.896  0.00  0.00     0.028 A 
HETATM   16  C           1     -20.880  -5.428  -8.021  0.00  0.00     0.114 A 
HETATM   17  N           1     -21.480  -4.780  -9.064  0.00  0.00    -0.360 N 
HETATM   18  C           1     -22.231  -3.766  -8.541  0.00  0.00     0.180 A 
HETATM   19  H           1     -21.382  -5.019 -10.082  0.00  0.00     0.166 HD
HETATM   20  N           1     -22.145  -3.730  -7.232  0.00  0.00    -0.355 N 
ATOM     21  HN          1     -22.604  -3.075  -6.599  1.00  0.00     0.166 HD
ENDBRANCH  14  15
ENDBRANCH   1  14
BRANCH   1  22
HETATM   22  N           1     -23.137  -6.076  -5.061  0.00  0.00    -0.067 N 
HETATM   23  H           1     -23.365  -5.384  -4.312  0.00  0.00     0.275 HD
HETATM   24  H           1     -23.663  -6.962  -4.888  0.00  0.00     0.275 HD
HETATM   25  H           1     -23.410  -5.686  -5.991  0.00  0.00     0.275 HD
ENDBRANCH   1  22
TORSDOF 8
ENDMDL
MODEL 7
REMARK VINA RESULT:      -5.9     13.925     16.722
REMARK  8 active torsions:
REMARK  status: ('A' for Active; 'I' for Inactive)
REMARK    1  A    between atoms: C_1  and  C_8 
REMARK    2  A    between atoms: C_5  and  C_6 
REMARK    3  A    between atoms: C_5  and  C_8 
REMARK    4  A    between atoms: C_5  and  N_25 
REMARK       I    between atoms: C_6  and  N_21 
REMARK    5  A    between atoms: C_11  and  C_12 
REMARK    6  A    between atoms: C_12  and  C_13 
REMARK    7  A    between atoms: C_12  and  N_21 
REMARK    8  A    between atoms: C_13  and  C_17 
ROOT
HETATM    1  C           1     -22.157  -5.072  -7.037  0.00  0.00     0.261 C 
ENDROOT
BRANCH   1   2
HETATM    2  C           1     -21.379  -5.606  -5.859  0.00  0.00     0.130 C 
HETATM    3  N           1     -21.548  -6.905  -5.461  0.00  0.00    -0.359 N 
HETATM    4  H           1     -22.194  -7.507  -5.955  0.00  0.00     0.162 HD
HETATM    5  O           1     -20.608  -4.888  -5.270  0.00  0.00    -0.397 OA
BRANCH   3   6
HETATM    6  C           1     -20.800  -7.418  -4.330  0.00  0.00     0.184 C 
BRANCH   6   7
HETATM    7  C           1     -19.644  -8.251  -4.829  0.00  0.00     0.196 C 
HETATM    8  O           1     -18.963  -8.923  -4.023  0.00  0.00    -0.646 OA
HETATM    9  O           1     -19.367  -8.269  -6.048  0.00  0.00    -0.646 OA
ENDBRANCH   6   7
BRANCH   6  10
HETATM   10  C           1     -21.710  -8.281  -3.467  0.00  0.00     0.040 C 
BRANCH  10  11
HETATM   11  C           1     -21.849  -7.652  -2.087  0.00  0.00    -0.018 C 
HETATM   12  C           1     -21.874  -6.135  -2.221  0.00  0.00     0.289 C 
HETATM   13  C           1     -20.666  -8.065  -1.220  0.00  0.00     0.009 C 
ENDBRANCH  10  11
ENDBRANCH   6  10
ENDBRANCH   3   6
ENDBRANCH   1   2
BRANCH   1  14
HETATM   14  C           1     -21.423  -3.878  -7.632  0.00  0.00     0.099 C 
BRANCH  14  15
HETATM   15  C           1     -21.391  -4.003  -9.123  0.00  0.00     0.028 A 
HETATM   16  C           1     -20.272  -4.317  -9.858  0.00  0.00     0.114 A 
HETATM   17  N           1     -20.692  -4.324 -11.158  0.00  0.00    -0.360 N 
HETATM   18  C           1     -22.024  -4.021 -11.160  0.00  0.00     0.180 A 
HETATM   19  H           1     -20.100  -4.526 -12.001  0.00  0.00     0.166 HD
HETATM   20  N           1     -22.474  -3.822  -9.944  0.00  0.00    -0.355 N 
ATOM     21  HN          1     -23.427  -3.583  -9.668  1.00  0.00     0.166 HD
ENDBRANCH  14  15
ENDBRANCH   1  14
BRANCH   1  22
HETATM   22  N           1     -23.521  -4.642  -6.581  0.00  0.00    -0.067 N 
HETATM   23  H           1     -23.690  -3.653  -6.871  0.00  0.00     0.275 HD
HETATM   24  H           1     -23.580  -4.714  -5.539  0.00  0.00     0.275 HD
HETATM   25  H           1     -24.243  -5.261  -7.013  0.00  0.00     0.275 HD
ENDBRANCH   1  22
TORSDOF 8
ENDMDL
MODEL 8
REMARK VINA RESULT:      -5.9     13.156     15.147
REMARK  8 active torsions:
REMARK  status: ('A' for Active; 'I' for Inactive)
REMARK    1  A    between atoms: C_1  and  C_8 
REMARK    2  A    between atoms: C_5  and  C_6 
REMARK    3  A    between atoms: C_5  and  C_8 
REMARK    4  A    between atoms: C_5  and  N_25 
REMARK       I    between atoms: C_6  and  N_21 
REMARK    5  A    between atoms: C_11  and  C_12 
REMARK    6  A    between atoms: C_12  and  C_13 
REMARK    7  A    between atoms: C_12  and  N_21 
REMARK    8  A    between atoms: C_13  and  C_17 
ROOT
HETATM    1  C           1     -20.665  -5.935  -5.232  0.00  0.00     0.261 C 
ENDROOT
BRANCH   1   2
HETATM    2  C           1     -20.768  -5.808  -6.732  0.00  0.00     0.130 C 
HETATM    3  N           1     -21.546  -4.826  -7.283  0.00  0.00    -0.359 N 
HETATM    4  H           1     -22.052  -4.185  -6.685  0.00  0.00     0.162 HD
HETATM    5  O           1     -20.163  -6.573  -7.445  0.00  0.00    -0.397 OA
BRANCH   3   6
HETATM    6  C           1     -21.644  -4.703  -8.724  0.00  0.00     0.184 C 
BRANCH   6   7
HETATM    7  C           1     -20.309  -4.276  -9.284  0.00  0.00     0.196 C 
HETATM    8  O           1     -19.951  -4.667 -10.417  0.00  0.00    -0.646 OA
HETATM    9  O           1     -19.560  -3.531  -8.616  0.00  0.00    -0.646 OA
ENDBRANCH   6   7
BRANCH   6  10
HETATM   10  C           1     -22.697  -3.661  -9.076  0.00  0.00     0.040 C 
BRANCH  10  11
HETATM   11  C           1     -23.904  -4.348  -9.702  0.00  0.00    -0.018 C 
HETATM   12  C           1     -23.538  -4.846 -11.094  0.00  0.00     0.289 C 
HETATM   13  C           1     -25.055  -3.357  -9.804  0.00  0.00     0.009 C 
ENDBRANCH  10  11
ENDBRANCH   6  10
ENDBRANCH   3   6
ENDBRANCH   1   2
BRANCH   1  14
HETATM   14  C           1     -22.033  -6.273  -4.655  0.00  0.00     0.099 C 
BRANCH  14  15
HETATM   15  C           1     -21.891  -6.642  -3.212  0.00  0.00     0.028 A 
HETATM   16  C           1     -21.131  -7.687  -2.743  0.00  0.00     0.114 A 
HETATM   17  N           1     -21.287  -7.657  -1.385  0.00  0.00    -0.360 N 
HETATM   18  C           1     -22.118  -6.614  -1.090  0.00  0.00     0.180 A 
HETATM   19  H           1     -20.847  -8.316  -0.695  0.00  0.00     0.166 HD
HETATM   20  N           1     -22.499  -5.981  -2.175  0.00  0.00    -0.355 N 
ATOM     21  HN          1     -23.116  -5.172  -2.234  1.00  0.00     0.166 HD
ENDBRANCH  14  15
ENDBRANCH   1  14
BRANCH   1  22
HETATM   22  N           1     -20.186  -4.637  -4.652  0.00  0.00    -0.067 N 
HETATM   23  H           1     -20.556  -4.531  -3.681  0.00  0.00     0.275 HD
HETATM   24  H           1     -20.527  -3.844  -5.242  0.00  0.00     0.275 HD
HETATM   25  H           1     -19.141  -4.629  -4.631  0.00  0.00     0.275 HD
ENDBRANCH   1  22
TORSDOF 8
ENDMDL
MODEL 9
REMARK VINA RESULT:      -5.7     16.247     18.348
REMARK  8 active torsions:
REMARK  status: ('A' for Active; 'I' for Inactive)
REMARK    1  A    between atoms: C_1  and  C_8 
REMARK    2  A    between atoms: C_5  and  C_6 
REMARK    3  A    between atoms: C_5  and  C_8 
REMARK    4  A    between atoms: C_5  and  N_25 
REMARK       I    between atoms: C_6  and  N_21 
REMARK    5  A    between atoms: C_11  and  C_12 
REMARK    6  A    between atoms: C_12  and  C_13 
REMARK    7  A    between atoms: C_12  and  N_21 
REMARK    8  A    between atoms: C_13  and  C_17 
ROOT
HETATM    1  C           1     -19.638  -8.641  -4.823  0.00  0.00     0.261 C 
ENDROOT
BRANCH   1   2
HETATM    2  C           1     -19.541  -9.033  -3.369  0.00  0.00     0.130 C 
HETATM    3  N           1     -20.679  -9.299  -2.655  0.00  0.00    -0.359 N 
HETATM    4  H           1     -21.584  -9.232  -3.102  0.00  0.00     0.162 HD
HETATM    5  O           1     -18.460  -9.113  -2.836  0.00  0.00    -0.397 OA
BRANCH   3   6
HETATM    6  C           1     -20.585  -9.676  -1.258  0.00  0.00     0.184 C 
BRANCH   6   7
HETATM    7  C           1     -21.552 -10.800  -0.976  0.00  0.00     0.196 C 
HETATM    8  O           1     -22.283 -11.241  -1.890  0.00  0.00    -0.646 OA
HETATM    9  O           1     -21.622 -11.291   0.171  0.00  0.00    -0.646 OA
ENDBRANCH   6   7
BRANCH   6  10
HETATM   10  C           1     -20.931  -8.479  -0.383  0.00  0.00     0.040 C 
BRANCH  10  11
HETATM   11  C           1     -22.336  -7.994  -0.717  0.00  0.00    -0.018 C 
HETATM   12  C           1     -22.264  -6.582  -1.283  0.00  0.00     0.289 C 
HETATM   13  C           1     -23.184  -7.991   0.548  0.00  0.00     0.009 C 
ENDBRANCH  10  11
ENDBRANCH   6  10
ENDBRANCH   3   6
ENDBRANCH   1   2
BRANCH   1  14
HETATM   14  C           1     -21.016  -8.054  -5.100  0.00  0.00     0.099 C 
BRANCH  14  15
HETATM   15  C           1     -20.867  -6.716  -5.753  0.00  0.00     0.028 A 
HETATM   16  C           1     -20.780  -5.521  -5.078  0.00  0.00     0.114 A 
HETATM   17  N           1     -20.656  -4.571  -6.054  0.00  0.00    -0.360 N 
HETATM   18  C           1     -20.672  -5.215  -7.258  0.00  0.00     0.180 A 
HETATM   19  H           1     -20.564  -3.536  -5.904  0.00  0.00     0.166 HD
HETATM   20  N           1     -20.800  -6.513  -7.108  0.00  0.00    -0.355 N 
ATOM     21  HN          1     -20.839  -7.220  -7.842  1.00  0.00     0.166 HD
ENDBRANCH  14  15
ENDBRANCH   1  14
BRANCH   1  22
HETATM   22  N           1     -19.430  -9.853  -5.682  0.00  0.00    -0.067 N 
HETATM   23  H           1     -20.095  -9.828  -6.487  0.00  0.00     0.275 HD
HETATM   24  H           1     -19.600 -10.715  -5.117  0.00  0.00     0.275 HD
HETATM   25  H           1     -18.448  -9.860  -6.041  0.00  0.00     0.275 HD
ENDBRANCH   1  22
TORSDOF 8
ENDMDL
