MODEL 1
REMARK VINA RESULT:      -6.4      0.000      0.000
REMARK  7 active torsions:
REMARK  status: ('A' for Active; 'I' for Inactive)
REMARK    1  A    between atoms: N_2  and  C_12 
REMARK    2  A    between atoms: C_5  and  C_19 
REMARK    3  A    between atoms: C_5  and  C_13 
REMARK    4  A    between atoms: C_10  and  C_13 
REMARK    5  A    between atoms: C_11  and  C_12 
REMARK    6  A    between atoms: C_12  and  C_14 
REMARK    7  A    between atoms: C_13  and  N_18 
REMARK       I    between atoms: C_14  and  N_18 
ROOT
HETATM    1  H           1     -36.441  -2.297 -13.231  0.00  0.00     0.163 HD
HETATM    2  C           1     -34.707  -2.289 -12.103  0.00  0.00     0.249 C 
HETATM    3  O           1     -33.964  -1.611 -11.432  0.00  0.00    -0.271 OA
HETATM    4  N           1     -35.820  -1.729 -12.670  0.00  0.00    -0.345 N 
ENDROOT
BRANCH   2   5
HETATM    5  C           1     -34.406  -3.753 -12.314  0.00  0.00     0.278 C 
BRANCH   5   6
HETATM    6  N           1     -33.858  -3.954 -13.696  0.00  0.00    -0.066 N 
HETATM    7  H           1     -34.605  -3.758 -14.400  0.00  0.00     0.275 HD
HETATM    8  H           1     -33.055  -3.303 -13.851  0.00  0.00     0.275 HD
HETATM    9  H           1     -33.531  -4.942 -13.801  0.00  0.00     0.275 HD
ENDBRANCH   5   6
BRANCH   5  10
HETATM   10  C           1     -33.380  -4.215 -11.289  0.00  0.00     0.017 C 
HETATM   11  C           1     -32.120  -4.679 -12.007  0.00  0.00     0.012 C 
HETATM   12  C           1     -33.955  -5.368 -10.478  0.00  0.00     0.012 C 
ENDBRANCH   5  10
ENDBRANCH   2   5
BRANCH   4  13
HETATM   13  C           1     -36.108  -0.323 -12.466  0.00  0.00     0.185 C 
BRANCH  13  14
HETATM   14  C           1     -36.847   0.225 -13.681  0.00  0.00     0.040 C 
BRANCH  14  15
HETATM   15  C           1     -35.841   0.791 -14.674  0.00  0.00    -0.020 C 
HETATM   16  C           1     -34.560   1.163 -13.941  0.00  0.00     0.009 C 
HETATM   17  C           1     -35.533  -0.257 -15.736  0.00  0.00     0.009 C 
ENDBRANCH  14  15
ENDBRANCH  13  14
BRANCH  13  18
HETATM   18  C           1     -36.968  -0.158 -11.237  0.00  0.00     0.196 C 
HETATM   19  O           1     -38.075  -0.734 -11.169  0.00  0.00    -0.646 OA
HETATM   20  O           1     -36.574   0.554 -10.289  0.00  0.00    -0.646 OA
ENDBRANCH  13  18
ENDBRANCH   4  13
TORSDOF 7
ENDMDL
MODEL 2
REMARK VINA RESULT:      -6.0      1.788      5.023
REMARK  7 active torsions:
REMARK  status: ('A' for Active; 'I' for Inactive)
REMARK    1  A    between atoms: N_2  and  C_12 
REMARK    2  A    between atoms: C_5  and  C_19 
REMARK    3  A    between atoms: C_5  and  C_13 
REMARK    4  A    between atoms: C_10  and  C_13 
REMARK    5  A    between atoms: C_11  and  C_12 
REMARK    6  A    between atoms: C_12  and  C_14 
REMARK    7  A    between atoms: C_13  and  N_18 
REMARK       I    between atoms: C_14  and  N_18 
ROOT
HETATM    1  H           1     -34.247   0.013 -11.920  0.00  0.00     0.163 HD
HETATM    2  C           1     -35.929  -0.373 -13.061  0.00  0.00     0.249 C 
HETATM    3  O           1     -36.931  -1.042 -13.154  0.00  0.00    -0.271 OA
HETATM    4  N           1     -35.086  -0.547 -11.997  0.00  0.00    -0.345 N 
ENDROOT
BRANCH   2   5
HETATM    5  C           1     -35.608   0.654 -14.119  0.00  0.00     0.278 C 
BRANCH   5   6
HETATM    6  N           1     -34.152   0.572 -14.469  0.00  0.00    -0.066 N 
HETATM    7  H           1     -33.700  -0.185 -13.907  0.00  0.00     0.275 HD
HETATM    8  H           1     -34.050   0.356 -15.486  0.00  0.00     0.275 HD
HETATM    9  H           1     -33.691   1.486 -14.258  0.00  0.00     0.275 HD
ENDBRANCH   5   6
BRANCH   5  10
HETATM   10  C           1     -36.445   0.384 -15.362  0.00  0.00     0.017 C 
HETATM   11  C           1     -35.740  -0.647 -16.233  0.00  0.00     0.012 C 
HETATM   12  C           1     -36.621   1.677 -16.147  0.00  0.00     0.012 C 
ENDBRANCH   5  10
ENDBRANCH   2   5
BRANCH   4  13
HETATM   13  C           1     -35.396  -1.535 -10.981  0.00  0.00     0.185 C 
BRANCH  13  14
HETATM   14  C           1     -34.101  -2.044 -10.359  0.00  0.00     0.040 C 
BRANCH  14  15
HETATM   15  C           1     -33.954  -3.533 -10.640  0.00  0.00    -0.020 C 
HETATM   16  C           1     -35.270  -4.079 -11.177  0.00  0.00     0.009 C 
HETATM   17  C           1     -32.855  -3.748 -11.673  0.00  0.00     0.009 C 
ENDBRANCH  14  15
ENDBRANCH  13  14
BRANCH  13  18
HETATM   18  C           1     -36.254  -0.905  -9.913  0.00  0.00     0.196 C 
HETATM   19  O           1     -35.720  -0.363  -8.922  0.00  0.00    -0.646 OA
HETATM   20  O           1     -37.499  -0.927 -10.018  0.00  0.00    -0.646 OA
ENDBRANCH  13  18
ENDBRANCH   4  13
TORSDOF 7
ENDMDL
MODEL 3
REMARK VINA RESULT:      -5.9      2.263      3.887
REMARK  7 active torsions:
REMARK  status: ('A' for Active; 'I' for Inactive)
REMARK    1  A    between atoms: N_2  and  C_12 
REMARK    2  A    between atoms: C_5  and  C_19 
REMARK    3  A    between atoms: C_5  and  C_13 
REMARK    4  A    between atoms: C_10  and  C_13 
REMARK    5  A    between atoms: C_11  and  C_12 
REMARK    6  A    between atoms: C_12  and  C_14 
REMARK    7  A    between atoms: C_13  and  N_18 
REMARK       I    between atoms: C_14  and  N_18 
ROOT
HETATM    1  H           1     -34.319  -1.519 -10.496  0.00  0.00     0.163 HD
HETATM    2  C           1     -35.298  -3.337 -10.629  0.00  0.00     0.249 C 
HETATM    3  O           1     -36.377  -3.882 -10.652  0.00  0.00    -0.271 OA
HETATM    4  N           1     -35.222  -1.975 -10.516  0.00  0.00    -0.345 N 
ENDROOT
BRANCH   2   5
HETATM    5  C           1     -34.036  -4.159 -10.725  0.00  0.00     0.278 C 
BRANCH   5   6
HETATM    6  N           1     -34.395  -5.613 -10.818  0.00  0.00    -0.066 N 
HETATM    7  H           1     -35.415  -5.708 -11.023  0.00  0.00     0.275 HD
HETATM    8  H           1     -33.843  -6.059 -11.586  0.00  0.00     0.275 HD
HETATM    9  H           1     -34.176  -6.084  -9.911  0.00  0.00     0.275 HD
ENDBRANCH   5   6
BRANCH   5  10
HETATM   10  C           1     -33.255  -3.749 -11.966  0.00  0.00     0.017 C 
HETATM   11  C           1     -34.135  -3.914 -13.197  0.00  0.00     0.012 C 
HETATM   12  C           1     -32.021  -4.630 -12.104  0.00  0.00     0.012 C 
ENDBRANCH   5  10
ENDBRANCH   2   5
BRANCH   4  13
HETATM   13  C           1     -36.435  -1.186 -10.423  0.00  0.00     0.185 C 
BRANCH  13  14
HETATM   14  C           1     -36.379  -0.315  -9.174  0.00  0.00     0.040 C 
BRANCH  14  15
HETATM   15  C           1     -37.791   0.093  -8.776  0.00  0.00    -0.020 C 
HETATM   16  C           1     -38.055  -0.336  -7.339  0.00  0.00     0.009 C 
HETATM   17  C           1     -37.934   1.605  -8.890  0.00  0.00     0.009 C 
ENDBRANCH  14  15
ENDBRANCH  13  14
BRANCH  13  18
HETATM   18  C           1     -36.559  -0.309 -11.644  0.00  0.00     0.196 C 
HETATM   19  O           1     -35.657   0.511 -11.917  0.00  0.00    -0.646 OA
HETATM   20  O           1     -37.564  -0.400 -12.381  0.00  0.00    -0.646 OA
ENDBRANCH  13  18
ENDBRANCH   4  13
TORSDOF 7
ENDMDL
MODEL 4
REMARK VINA RESULT:      -5.8      2.903      5.054
REMARK  7 active torsions:
REMARK  status: ('A' for Active; 'I' for Inactive)
REMARK    1  A    between atoms: N_2  and  C_12 
REMARK    2  A    between atoms: C_5  and  C_19 
REMARK    3  A    between atoms: C_5  and  C_13 
REMARK    4  A    between atoms: C_10  and  C_13 
REMARK    5  A    between atoms: C_11  and  C_12 
REMARK    6  A    between atoms: C_12  and  C_14 
REMARK    7  A    between atoms: C_13  and  N_18 
REMARK       I    between atoms: C_14  and  N_18 
ROOT
HETATM    1  H           1     -35.038  -0.632  -9.595  0.00  0.00     0.163 HD
HETATM    2  C           1     -36.835   0.359  -9.861  0.00  0.00     0.249 C 
HETATM    3  O           1     -37.798   0.490 -10.580  0.00  0.00    -0.271 OA
HETATM    4  N           1     -35.844  -0.523 -10.197  0.00  0.00    -0.345 N 
ENDROOT
BRANCH   2   5
HETATM    5  C           1     -36.727   1.168  -8.591  0.00  0.00     0.278 C 
BRANCH   5   6
HETATM    6  N           1     -37.822   2.194  -8.560  0.00  0.00    -0.066 N 
HETATM    7  H           1     -38.688   1.792  -8.985  0.00  0.00     0.275 HD
HETATM    8  H           1     -38.015   2.466  -7.570  0.00  0.00     0.275 HD
HETATM    9  H           1     -37.525   3.037  -9.103  0.00  0.00     0.275 HD
ENDBRANCH   5   6
BRANCH   5  10
HETATM   10  C           1     -36.861   0.247  -7.387  0.00  0.00     0.017 C 
HETATM   11  C           1     -38.075  -0.654  -7.570  0.00  0.00     0.012 C 
HETATM   12  C           1     -37.035   1.081  -6.125  0.00  0.00     0.012 C 
ENDBRANCH   5  10
ENDBRANCH   2   5
BRANCH   4  13
HETATM   13  C           1     -35.949  -1.299 -11.417  0.00  0.00     0.185 C 
BRANCH  13  14
HETATM   14  C           1     -34.966  -0.758 -12.449  0.00  0.00     0.040 C 
BRANCH  14  15
HETATM   15  C           1     -35.632   0.350 -13.252  0.00  0.00    -0.020 C 
HETATM   16  C           1     -34.571   1.120 -14.029  0.00  0.00     0.009 C 
HETATM   17  C           1     -36.632  -0.259 -14.225  0.00  0.00     0.009 C 
ENDBRANCH  14  15
ENDBRANCH  13  14
BRANCH  13  18
HETATM   18  C           1     -35.626  -2.744 -11.124  0.00  0.00     0.196 C 
HETATM   19  O           1     -36.455  -3.458 -10.521  0.00  0.00    -0.646 OA
HETATM   20  O           1     -34.530  -3.225 -11.482  0.00  0.00    -0.646 OA
ENDBRANCH  13  18
ENDBRANCH   4  13
TORSDOF 7
ENDMDL
MODEL 5
REMARK VINA RESULT:      -5.6     15.312     17.643
REMARK  7 active torsions:
REMARK  status: ('A' for Active; 'I' for Inactive)
REMARK    1  A    between atoms: N_2  and  C_12 
REMARK    2  A    between atoms: C_5  and  C_19 
REMARK    3  A    between atoms: C_5  and  C_13 
REMARK    4  A    between atoms: C_10  and  C_13 
REMARK    5  A    between atoms: C_11  and  C_12 
REMARK    6  A    between atoms: C_12  and  C_14 
REMARK    7  A    between atoms: C_13  and  N_18 
REMARK       I    between atoms: C_14  and  N_18 
ROOT
HETATM    1  H           1     -21.086  -7.599  -6.842  0.00  0.00     0.163 HD
HETATM    2  C           1     -20.934  -5.639  -6.197  0.00  0.00     0.249 C 
HETATM    3  O           1     -20.615  -4.920  -5.279  0.00  0.00    -0.271 OA
HETATM    4  N           1     -20.819  -6.997  -6.074  0.00  0.00    -0.345 N 
ENDROOT
BRANCH   2   5
HETATM    5  C           1     -21.459  -5.038  -7.478  0.00  0.00     0.278 C 
BRANCH   5   6
HETATM    6  N           1     -21.944  -3.644  -7.212  0.00  0.00    -0.066 N 
HETATM    7  H           1     -22.266  -3.210  -8.107  0.00  0.00     0.275 HD
HETATM    8  H           1     -22.741  -3.676  -6.536  0.00  0.00     0.275 HD
HETATM    9  H           1     -21.166  -3.075  -6.808  0.00  0.00     0.275 HD
ENDBRANCH   5   6
BRANCH   5  10
HETATM   10  C           1     -20.346  -4.998  -8.515  0.00  0.00     0.017 C 
HETATM   11  C           1     -19.187  -4.165  -7.984  0.00  0.00     0.012 C 
HETATM   12  C           1     -20.871  -4.374  -9.801  0.00  0.00     0.012 C 
ENDBRANCH   5  10
ENDBRANCH   2   5
BRANCH   4  13
HETATM   13  C           1     -20.314  -7.573  -4.842  0.00  0.00     0.185 C 
BRANCH  13  14
HETATM   14  C           1     -21.470  -7.787  -3.872  0.00  0.00     0.040 C 
BRANCH  14  15
HETATM   15  C           1     -21.106  -7.205  -2.513  0.00  0.00    -0.020 C 
HETATM   16  C           1     -22.146  -6.167  -2.112  0.00  0.00     0.009 C 
HETATM   17  C           1     -21.075  -8.320  -1.476  0.00  0.00     0.009 C 
ENDBRANCH  14  15
ENDBRANCH  13  14
BRANCH  13  18
HETATM   18  C           1     -19.654  -8.897  -5.139  0.00  0.00     0.196 C 
HETATM   19  O           1     -18.719  -8.957  -5.965  0.00  0.00    -0.646 OA
HETATM   20  O           1     -20.044  -9.933  -4.559  0.00  0.00    -0.646 OA
ENDBRANCH  13  18
ENDBRANCH   4  13
TORSDOF 7
ENDMDL
MODEL 6
REMARK VINA RESULT:      -5.4     15.484     18.681
REMARK  7 active torsions:
REMARK  status: ('A' for Active; 'I' for Inactive)
REMARK    1  A    between atoms: N_2  and  C_12 
REMARK    2  A    between atoms: C_5  and  C_19 
REMARK    3  A    between atoms: C_5  and  C_13 
REMARK    4  A    between atoms: C_10  and  C_13 
REMARK    5  A    between atoms: C_11  and  C_12 
REMARK    6  A    between atoms: C_12  and  C_14 
REMARK    7  A    between atoms: C_13  and  N_18 
REMARK       I    between atoms: C_14  and  N_18 
ROOT
HETATM    1  H           1     -21.551  -8.872  -3.995  0.00  0.00     0.163 HD
HETATM    2  C           1     -21.433  -6.812  -3.839  0.00  0.00     0.249 C 
HETATM    3  O           1     -21.102  -5.889  -3.132  0.00  0.00    -0.271 OA
HETATM    4  N           1     -21.275  -8.100  -3.403  0.00  0.00    -0.345 N 
ENDROOT
BRANCH   2   5
HETATM    5  C           1     -22.020  -6.543  -5.203  0.00  0.00     0.278 C 
BRANCH   5   6
HETATM    6  N           1     -23.453  -6.124  -5.056  0.00  0.00    -0.066 N 
HETATM    7  H           1     -24.018  -6.932  -4.708  0.00  0.00     0.275 HD
HETATM    8  H           1     -23.516  -5.336  -4.372  0.00  0.00     0.275 HD
HETATM    9  H           1     -23.822  -5.813  -5.983  0.00  0.00     0.275 HD
ENDBRANCH   5   6
BRANCH   5  10
HETATM   10  C           1     -21.234  -5.432  -5.886  0.00  0.00     0.017 C 
HETATM   11  C           1     -22.122  -4.739  -6.911  0.00  0.00     0.012 C 
HETATM   12  C           1     -20.018  -6.025  -6.585  0.00  0.00     0.012 C 
ENDBRANCH   5  10
ENDBRANCH   2   5
BRANCH   4  13
HETATM   13  C           1     -20.710  -8.356  -2.092  0.00  0.00     0.185 C 
BRANCH  13  14
HETATM   14  C           1     -21.791  -8.921  -1.177  0.00  0.00     0.040 C 
BRANCH  14  15
HETATM   15  C           1     -21.897  -8.060   0.074  0.00  0.00    -0.020 C 
HETATM   16  C           1     -23.355  -7.971   0.505  0.00  0.00     0.009 C 
HETATM   17  C           1     -21.074  -8.686   1.192  0.00  0.00     0.009 C 
ENDBRANCH  14  15
ENDBRANCH  13  14
BRANCH  13  18
HETATM   18  C           1     -19.584  -9.353  -2.215  0.00  0.00     0.196 C 
HETATM   19  O           1     -19.617 -10.415  -1.558  0.00  0.00    -0.646 OA
HETATM   20  O           1     -18.619  -9.115  -2.973  0.00  0.00    -0.646 OA
ENDBRANCH  13  18
ENDBRANCH   4  13
TORSDOF 7
ENDMDL
MODEL 7
REMARK VINA RESULT:      -5.4     16.623     18.795
REMARK  7 active torsions:
REMARK  status: ('A' for Active; 'I' for Inactive)
REMARK    1  A    between atoms: N_2  and  C_12 
REMARK    2  A    between atoms: C_5  and  C_19 
REMARK    3  A    between atoms: C_5  and  C_13 
REMARK    4  A    between atoms: C_10  and  C_13 
REMARK    5  A    between atoms: C_11  and  C_12 
REMARK    6  A    between atoms: C_12  and  C_14 
REMARK    7  A    between atoms: C_13  and  N_18 
REMARK       I    between atoms: C_14  and  N_18 
ROOT
HETATM    1  H           1     -19.900  -7.408  -3.055  0.00  0.00     0.163 HD
HETATM    2  C           1     -21.287  -8.652  -2.155  0.00  0.00     0.249 C 
HETATM    3  O           1     -21.940  -9.661  -2.279  0.00  0.00    -0.271 OA
HETATM    4  N           1     -20.446  -8.253  -3.159  0.00  0.00    -0.345 N 
ENDROOT
BRANCH   2   5
HETATM    5  C           1     -21.398  -7.833  -0.892  0.00  0.00     0.278 C 
BRANCH   5   6
HETATM    6  N           1     -22.293  -6.654  -1.139  0.00  0.00    -0.066 N 
HETATM    7  H           1     -23.250  -6.990  -1.392  0.00  0.00     0.275 HD
HETATM    8  H           1     -22.347  -6.071  -0.274  0.00  0.00     0.275 HD
HETATM    9  H           1     -21.906  -6.081  -1.923  0.00  0.00     0.275 HD
ENDBRANCH   5   6
BRANCH   5  10
HETATM   10  C           1     -21.984  -8.690   0.221  0.00  0.00     0.017 C 
HETATM   11  C           1     -23.323  -8.110   0.656  0.00  0.00     0.012 C 
HETATM   12  C           1     -21.029  -8.705   1.408  0.00  0.00     0.012 C 
ENDBRANCH   5  10
ENDBRANCH   2   5
BRANCH   4  13
HETATM   13  C           1     -20.341  -9.041  -4.371  0.00  0.00     0.185 C 
BRANCH  13  14
HETATM   14  C           1     -21.059  -8.322  -5.507  0.00  0.00     0.040 C 
BRANCH  14  15
HETATM   15  C           1     -20.966  -6.817  -5.295  0.00  0.00    -0.020 C 
HETATM   16  C           1     -20.205  -6.188  -6.454  0.00  0.00     0.009 C 
HETATM   17  C           1     -22.368  -6.227  -5.228  0.00  0.00     0.009 C 
ENDBRANCH  14  15
ENDBRANCH  13  14
BRANCH  13  18
HETATM   18  C           1     -18.886  -9.221  -4.729  0.00  0.00     0.196 C 
HETATM   19  O           1     -18.022  -9.266  -3.828  0.00  0.00    -0.646 OA
HETATM   20  O           1     -18.545  -9.323  -5.927  0.00  0.00    -0.646 OA
ENDBRANCH  13  18
ENDBRANCH   4  13
TORSDOF 7
ENDMDL
MODEL 8
REMARK VINA RESULT:      -5.4     16.179     18.272
REMARK  7 active torsions:
REMARK  status: ('A' for Active; 'I' for Inactive)
REMARK    1  A    between atoms: N_2  and  C_12 
REMARK    2  A    between atoms: C_5  and  C_19 
REMARK    3  A    between atoms: C_5  and  C_13 
REMARK    4  A    between atoms: C_10  and  C_13 
REMARK    5  A    between atoms: C_11  and  C_12 
REMARK    6  A    between atoms: C_12  and  C_14 
REMARK    7  A    between atoms: C_13  and  N_18 
REMARK       I    between atoms: C_14  and  N_18 
ROOT
HETATM    1  H           1     -22.061  -7.483  -3.707  0.00  0.00     0.163 HD
HETATM    2  C           1     -20.608  -7.683  -5.165  0.00  0.00     0.249 C 
HETATM    3  O           1     -19.563  -8.217  -5.457  0.00  0.00    -0.271 OA
HETATM    4  N           1     -21.187  -7.930  -3.950  0.00  0.00    -0.345 N 
ENDROOT
BRANCH   2   5
HETATM    5  C           1     -21.273  -6.745  -6.143  0.00  0.00     0.278 C 
BRANCH   5   6
HETATM    6  N           1     -22.339  -5.962  -5.435  0.00  0.00    -0.066 N 
HETATM    7  H           1     -22.515  -6.382  -4.495  0.00  0.00     0.275 HD
HETATM    8  H           1     -22.024  -4.972  -5.320  0.00  0.00     0.275 HD
HETATM    9  H           1     -23.220  -5.985  -5.998  0.00  0.00     0.275 HD
ENDBRANCH   5   6
BRANCH   5  10
HETATM   10  C           1     -20.236  -5.789  -6.716  0.00  0.00     0.017 C 
HETATM   11  C           1     -19.994  -4.654  -5.731  0.00  0.00     0.012 C 
HETATM   12  C           1     -20.746  -5.217  -8.033  0.00  0.00     0.012 C 
ENDBRANCH   5  10
ENDBRANCH   2   5
BRANCH   4  13
HETATM   13  C           1     -20.547  -8.832  -3.012  0.00  0.00     0.185 C 
BRANCH  13  14
HETATM   14  C           1     -20.510  -8.185  -1.633  0.00  0.00     0.040 C 
BRANCH  14  15
HETATM   15  C           1     -21.929  -7.872  -1.181  0.00  0.00    -0.020 C 
HETATM   16  C           1     -22.090  -8.254   0.285  0.00  0.00     0.009 C 
HETATM   17  C           1     -22.198  -6.382  -1.350  0.00  0.00     0.009 C 
ENDBRANCH  14  15
ENDBRANCH  13  14
BRANCH  13  18
HETATM   18  C           1     -21.326 -10.122  -2.943  0.00  0.00     0.196 C 
HETATM   19  O           1     -20.964 -11.028  -2.162  0.00  0.00    -0.646 OA
HETATM   20  O           1     -22.332 -10.285  -3.666  0.00  0.00    -0.646 OA
ENDBRANCH  13  18
ENDBRANCH   4  13
TORSDOF 7
ENDMDL
MODEL 9
REMARK VINA RESULT:      -5.4      2.109      3.257
REMARK  7 active torsions:
REMARK  status: ('A' for Active; 'I' for Inactive)
REMARK    1  A    between atoms: N_2  and  C_12 
REMARK    2  A    between atoms: C_5  and  C_19 
REMARK    3  A    between atoms: C_5  and  C_13 
REMARK    4  A    between atoms: C_10  and  C_13 
REMARK    5  A    between atoms: C_11  and  C_12 
REMARK    6  A    between atoms: C_12  and  C_14 
REMARK    7  A    between atoms: C_13  and  N_18 
REMARK       I    between atoms: C_14  and  N_18 
ROOT
HETATM    1  H           1     -34.626  -1.173 -11.461  0.00  0.00     0.163 HD
HETATM    2  C           1     -34.425  -2.661 -12.884  0.00  0.00     0.249 C 
HETATM    3  O           1     -34.740  -3.020 -13.994  0.00  0.00    -0.271 OA
HETATM    4  N           1     -34.890  -1.473 -12.390  0.00  0.00    -0.345 N 
ENDROOT
BRANCH   2   5
HETATM    5  C           1     -33.517  -3.526 -12.043  0.00  0.00     0.278 C 
BRANCH   5   6
HETATM    6  N           1     -33.216  -2.824 -10.752  0.00  0.00    -0.066 N 
HETATM    7  H           1     -34.057  -2.859 -10.131  0.00  0.00     0.275 HD
HETATM    8  H           1     -32.414  -3.297 -10.277  0.00  0.00     0.275 HD
HETATM    9  H           1     -32.968  -1.827 -10.947  0.00  0.00     0.275 HD
ENDBRANCH   5   6
BRANCH   5  10
HETATM   10  C           1     -34.204  -4.852 -11.751  0.00  0.00     0.017 C 
HETATM   11  C           1     -35.368  -4.622 -10.798  0.00  0.00     0.012 C 
HETATM   12  C           1     -33.208  -5.811 -11.112  0.00  0.00     0.012 C 
ENDBRANCH   5  10
ENDBRANCH   2   5
BRANCH   4  13
HETATM   13  C           1     -35.762  -0.644 -13.200  0.00  0.00     0.185 C 
BRANCH  13  14
HETATM   14  C           1     -36.779   0.049 -12.301  0.00  0.00     0.040 C 
BRANCH  14  15
HETATM   15  C           1     -36.431  -0.213 -10.843  0.00  0.00    -0.020 C 
HETATM   16  C           1     -36.894   0.962  -9.992  0.00  0.00     0.009 C 
HETATM   17  C           1     -37.128  -1.484 -10.375  0.00  0.00     0.009 C 
ENDBRANCH  14  15
ENDBRANCH  13  14
BRANCH  13  18
HETATM   18  C           1     -34.940   0.395 -13.923  0.00  0.00     0.196 C 
HETATM   19  O           1     -34.587   1.436 -13.329  0.00  0.00    -0.646 OA
HETATM   20  O           1     -34.613   0.214 -15.115  0.00  0.00    -0.646 OA
ENDBRANCH  13  18
ENDBRANCH   4  13
TORSDOF 7
ENDMDL
