MODEL 1
REMARK VINA RESULT:      -5.3      0.000      0.000
REMARK  4 active torsions:
REMARK  status: ('A' for Active; 'I' for Inactive)
REMARK    1  A    between atoms: C_8  and  C_10 
REMARK    2  A    between atoms: C_10  and  C_11 
REMARK    3  A    between atoms: C_10  and  N_14 
REMARK       I    between atoms: N_14  and  C_15 
REMARK    4  A    between atoms: C_15  and  C_18 
ROOT
HETATM    1  H           1     -35.362  -2.222 -13.190  0.00  0.00     0.163 HD
HETATM    2  O           1     -33.246  -2.558 -10.899  0.00  0.00    -0.271 OA
HETATM    3  N           1     -34.886  -2.027 -12.319  0.00  0.00    -0.344 N 
HETATM    4  C           1     -33.815  -2.791 -11.939  0.00  0.00     0.249 C 
ENDROOT
BRANCH   4   5
HETATM    5  C           1     -33.346  -3.924 -12.819  0.00  0.00     0.274 C 
HETATM    6  N           1     -32.305  -4.723 -12.092  0.00  0.00    -0.067 N 
HETATM    7  H           1     -31.979  -5.507 -12.700  0.00  0.00     0.275 HD
HETATM    8  H           1     -31.494  -4.104 -11.858  0.00  0.00     0.275 HD
HETATM    9  H           1     -32.714  -5.110 -11.211  0.00  0.00     0.275 HD
HETATM   10 Se           1     -33.768  -6.428 -10.934  0.00  0.00     0.000 Se
HETATM   11  C           1     -35.123  -5.391 -11.878  0.00  0.00     0.003 C 
HETATM   12  C           1     -34.939  -6.915  -9.454  0.00  0.00     0.000 C 
HETATM   13  C           1     -34.526  -4.825 -13.160  0.00  0.00     0.042 C 
ENDBRANCH   4   5
BRANCH   3  14
HETATM   14  C           1     -35.336  -0.939 -11.474  0.00  0.00     0.189 C 
BRANCH  14  15
HETATM   15  C           1     -35.871   0.191 -12.344  0.00  0.00     0.010 C 
HETATM   16  C           1     -34.756   0.709 -13.244  0.00  0.00     0.012 C 
HETATM   17  C           1     -37.017  -0.329 -13.202  0.00  0.00     0.012 C 
ENDBRANCH  14  15
BRANCH  14  18
HETATM   18  C           1     -36.432  -1.433 -10.561  0.00  0.00     0.197 C 
HETATM   19  O           1     -36.799  -2.627 -10.614  0.00  0.00    -0.646 OA
HETATM   20  O           1     -36.972  -0.648  -9.752  0.00  0.00    -0.646 OA
ENDBRANCH  14  18
ENDBRANCH   3  14
TORSDOF 4
ENDMDL
MODEL 2
REMARK VINA RESULT:      -5.0     17.175     18.189
REMARK  4 active torsions:
REMARK  status: ('A' for Active; 'I' for Inactive)
REMARK    1  A    between atoms: C_8  and  C_10 
REMARK    2  A    between atoms: C_10  and  C_11 
REMARK    3  A    between atoms: C_10  and  N_14 
REMARK       I    between atoms: N_14  and  C_15 
REMARK    4  A    between atoms: C_15  and  C_18 
ROOT
HETATM    1  H           1     -22.334  -8.435  -2.472  0.00  0.00     0.163 HD
HETATM    2  O           1     -19.676 -10.027  -1.982  0.00  0.00    -0.271 OA
HETATM    3  N           1     -21.683  -9.050  -1.999  0.00  0.00    -0.344 N 
HETATM    4  C           1     -20.452  -9.293  -2.547  0.00  0.00     0.249 C 
ENDROOT
BRANCH   4   5
HETATM    5  C           1     -20.065  -8.647  -3.854  0.00  0.00     0.274 C 
HETATM    6  N           1     -18.710  -9.136  -4.271  0.00  0.00    -0.067 N 
HETATM    7  H           1     -18.441  -8.689  -5.177  0.00  0.00     0.275 HD
HETATM    8  H           1     -18.009  -8.884  -3.537  0.00  0.00     0.275 HD
HETATM    9  H           1     -18.735 -10.174  -4.389  0.00  0.00     0.275 HD
HETATM   10 Se           1     -19.360 -11.160  -5.639  0.00  0.00     0.000 Se
HETATM   11  C           1     -21.122 -10.526  -5.097  0.00  0.00     0.003 C 
HETATM   12  C           1     -19.883 -13.035  -5.728  0.00  0.00     0.000 C 
HETATM   13  C           1     -21.086  -9.013  -4.924  0.00  0.00     0.042 C 
ENDBRANCH   4   5
BRANCH   3  14
HETATM   14  C           1     -22.055  -9.671  -0.744  0.00  0.00     0.189 C 
BRANCH  14  15
HETATM   15  C           1     -22.376  -8.591   0.281  0.00  0.00     0.010 C 
HETATM   16  C           1     -21.248  -8.509   1.301  0.00  0.00     0.012 C 
HETATM   17  C           1     -22.522  -7.250  -0.425  0.00  0.00     0.012 C 
ENDBRANCH  14  15
BRANCH  14  18
HETATM   18  C           1     -23.270 -10.542  -0.955  0.00  0.00     0.197 C 
HETATM   19  O           1     -23.431 -11.136  -2.043  0.00  0.00    -0.646 OA
HETATM   20  O           1     -24.114 -10.669  -0.042  0.00  0.00    -0.646 OA
ENDBRANCH  14  18
ENDBRANCH   3  14
TORSDOF 4
ENDMDL
MODEL 3
REMARK VINA RESULT:      -5.0      2.675      3.943
REMARK  4 active torsions:
REMARK  status: ('A' for Active; 'I' for Inactive)
REMARK    1  A    between atoms: C_8  and  C_10 
REMARK    2  A    between atoms: C_10  and  C_11 
REMARK    3  A    between atoms: C_10  and  N_14 
REMARK       I    between atoms: N_14  and  C_15 
REMARK    4  A    between atoms: C_15  and  C_18 
ROOT
HETATM    1  H           1     -34.009  -0.957 -13.207  0.00  0.00     0.163 HD
HETATM    2  O           1     -37.062  -1.116 -12.501  0.00  0.00    -0.271 OA
HETATM    3  N           1     -35.010  -0.934 -13.362  0.00  0.00    -0.344 N 
HETATM    4  C           1     -35.868  -1.144 -12.316  0.00  0.00     0.249 C 
ENDROOT
BRANCH   4   5
HETATM    5  C           1     -35.324  -1.411 -10.934  0.00  0.00     0.274 C 
HETATM    6  N           1     -36.225  -2.375 -10.221  0.00  0.00    -0.067 N 
HETATM    7  H           1     -35.850  -2.560  -9.263  0.00  0.00     0.275 HD
HETATM    8  H           1     -37.184  -1.963 -10.145  0.00  0.00     0.275 HD
HETATM    9  H           1     -36.272  -3.271 -10.756  0.00  0.00     0.275 HD
HETATM   10 Se           1     -35.166  -4.568 -10.895  0.00  0.00     0.000 Se
HETATM   11  C           1     -33.995  -3.317 -11.824  0.00  0.00     0.003 C 
HETATM   12  C           1     -34.941  -5.999 -12.199  0.00  0.00     0.000 C 
HETATM   13  C           1     -33.928  -2.010 -11.044  0.00  0.00     0.042 C 
ENDBRANCH   4   5
BRANCH   3  14
HETATM   14  C           1     -35.531  -0.678 -14.689  0.00  0.00     0.189 C 
BRANCH  14  15
HETATM   15  C           1     -35.056   0.687 -15.167  0.00  0.00     0.010 C 
HETATM   16  C           1     -36.230   1.453 -15.764  0.00  0.00     0.012 C 
HETATM   17  C           1     -34.487   1.466 -13.989  0.00  0.00     0.012 C 
ENDBRANCH  14  15
BRANCH  14  18
HETATM   18  C           1     -35.036  -1.744 -15.637  0.00  0.00     0.197 C 
HETATM   19  O           1     -34.963  -1.506 -16.862  0.00  0.00    -0.646 OA
HETATM   20  O           1     -34.700  -2.864 -15.197  0.00  0.00    -0.646 OA
ENDBRANCH  14  18
ENDBRANCH   3  14
TORSDOF 4
ENDMDL
MODEL 4
REMARK VINA RESULT:      -4.8     17.372     18.921
REMARK  4 active torsions:
REMARK  status: ('A' for Active; 'I' for Inactive)
REMARK    1  A    between atoms: C_8  and  C_10 
REMARK    2  A    between atoms: C_10  and  C_11 
REMARK    3  A    between atoms: C_10  and  N_14 
REMARK       I    between atoms: N_14  and  C_15 
REMARK    4  A    between atoms: C_15  and  C_18 
ROOT
HETATM    1  H           1     -19.721  -8.362  -0.990  0.00  0.00     0.163 HD
HETATM    2  O           1     -20.858 -10.822  -2.570  0.00  0.00    -0.271 OA
HETATM    3  N           1     -20.407  -8.935  -1.465  0.00  0.00    -0.344 N 
HETATM    4  C           1     -20.038 -10.138  -2.003  0.00  0.00     0.249 C 
ENDROOT
BRANCH   4   5
HETATM    5  C           1     -18.610 -10.611  -1.889  0.00  0.00     0.274 C 
HETATM    6  N           1     -18.525 -12.049  -2.307  0.00  0.00    -0.067 N 
HETATM    7  H           1     -17.536 -12.377  -2.228  0.00  0.00     0.275 HD
HETATM    8  H           1     -19.134 -12.628  -1.684  0.00  0.00     0.275 HD
HETATM    9  H           1     -18.846 -12.144  -3.297  0.00  0.00     0.275 HD
HETATM   10 Se           1     -18.078 -11.776  -4.780  0.00  0.00     0.000 Se
HETATM   11  C           1     -18.189  -9.907  -4.239  0.00  0.00     0.003 C 
HETATM   12  C           1     -18.739 -11.462  -6.586  0.00  0.00     0.000 C 
HETATM   13  C           1     -17.722  -9.768  -2.796  0.00  0.00     0.042 C 
ENDBRANCH   4   5
BRANCH   3  14
HETATM   14  C           1     -21.779  -8.480  -1.574  0.00  0.00     0.189 C 
BRANCH  14  15
HETATM   15  C           1     -22.445  -8.544  -0.206  0.00  0.00     0.010 C 
HETATM   16  C           1     -23.243  -9.837  -0.091  0.00  0.00     0.012 C 
HETATM   17  C           1     -21.378  -8.506   0.879  0.00  0.00     0.012 C 
ENDBRANCH  14  15
BRANCH  14  18
HETATM   18  C           1     -21.798  -7.057  -2.078  0.00  0.00     0.197 C 
HETATM   19  O           1     -21.068  -6.724  -3.037  0.00  0.00    -0.646 OA
HETATM   20  O           1     -22.544  -6.213  -1.537  0.00  0.00    -0.646 OA
ENDBRANCH  14  18
ENDBRANCH   3  14
TORSDOF 4
ENDMDL
MODEL 5
REMARK VINA RESULT:      -4.8     12.532     14.248
REMARK  4 active torsions:
REMARK  status: ('A' for Active; 'I' for Inactive)
REMARK    1  A    between atoms: C_8  and  C_10 
REMARK    2  A    between atoms: C_10  and  C_11 
REMARK    3  A    between atoms: C_10  and  N_14 
REMARK       I    between atoms: N_14  and  C_15 
REMARK    4  A    between atoms: C_15  and  C_18 
ROOT
HETATM    1  H           1     -22.664  -3.249  -8.632  0.00  0.00     0.163 HD
HETATM    2  O           1     -20.609  -5.608  -8.405  0.00  0.00    -0.271 OA
HETATM    3  N           1     -22.086  -4.022  -8.940  0.00  0.00    -0.344 N 
HETATM    4  C           1     -21.298  -4.686  -8.038  0.00  0.00     0.249 C 
ENDROOT
BRANCH   4   5
HETATM    5  C           1     -21.290  -4.268  -6.589  0.00  0.00     0.274 C 
HETATM    6  N           1     -22.497  -4.833  -5.900  0.00  0.00    -0.067 N 
HETATM    7  H           1     -22.492  -4.544  -4.896  0.00  0.00     0.275 HD
HETATM    8  H           1     -23.362  -4.471  -6.362  0.00  0.00     0.275 HD
HETATM    9  H           1     -22.478  -5.876  -5.962  0.00  0.00     0.275 HD
HETATM   10 Se           1     -21.570  -7.048  -5.108  0.00  0.00     0.000 Se
HETATM   11  C           1     -20.001  -6.315  -6.004  0.00  0.00     0.003 C 
HETATM   12  C           1     -21.109  -8.907  -5.470  0.00  0.00     0.000 C 
HETATM   13  C           1     -20.030  -4.794  -5.915  0.00  0.00     0.042 C 
ENDBRANCH   4   5
BRANCH   3  14
HETATM   14  C           1     -22.094  -4.423 -10.332  0.00  0.00     0.189 C 
BRANCH  14  15
HETATM   15  C           1     -23.499  -4.266 -10.898  0.00  0.00     0.010 C 
HETATM   16  C           1     -23.698  -5.250 -12.043  0.00  0.00     0.012 C 
HETATM   17  C           1     -24.520  -4.546  -9.803  0.00  0.00     0.012 C 
ENDBRANCH  14  15
BRANCH  14  18
HETATM   18  C           1     -21.137  -3.553 -11.111  0.00  0.00     0.197 C 
HETATM   19  O           1     -19.943  -3.900 -11.244  0.00  0.00    -0.646 OA
HETATM   20  O           1     -21.538  -2.486 -11.622  0.00  0.00    -0.646 OA
ENDBRANCH  14  18
ENDBRANCH   3  14
TORSDOF 4
ENDMDL
MODEL 6
REMARK VINA RESULT:      -4.8     17.371     18.544
REMARK  4 active torsions:
REMARK  status: ('A' for Active; 'I' for Inactive)
REMARK    1  A    between atoms: C_8  and  C_10 
REMARK    2  A    between atoms: C_10  and  C_11 
REMARK    3  A    between atoms: C_10  and  N_14 
REMARK       I    between atoms: N_14  and  C_15 
REMARK    4  A    between atoms: C_15  and  C_18 
ROOT
HETATM    1  H           1     -22.610  -9.814  -1.831  0.00  0.00     0.163 HD
HETATM    2  O           1     -19.922  -8.713  -3.015  0.00  0.00    -0.271 OA
HETATM    3  N           1     -21.698  -9.374  -1.835  0.00  0.00    -0.344 N 
HETATM    4  C           1     -21.010  -9.238  -3.011  0.00  0.00     0.249 C 
ENDROOT
BRANCH   4   5
HETATM    5  C           1     -21.609  -9.745  -4.299  0.00  0.00     0.274 C 
HETATM    6  N           1     -20.698  -9.404  -5.441  0.00  0.00    -0.067 N 
HETATM    7  H           1     -21.112  -9.754  -6.334  0.00  0.00     0.275 HD
HETATM    8  H           1     -20.582  -8.366  -5.495  0.00  0.00     0.275 HD
HETATM    9  H           1     -19.766  -9.852  -5.290  0.00  0.00     0.275 HD
HETATM   10 Se           1     -19.238 -11.467  -5.486  0.00  0.00     0.000 Se
HETATM   11  C           1     -20.421 -11.911  -4.002  0.00  0.00     0.003 C 
HETATM   12  C           1     -17.720 -12.471  -4.790  0.00  0.00     0.000 C 
HETATM   13  C           1     -21.779 -11.256  -4.222  0.00  0.00     0.042 C 
ENDBRANCH   4   5
BRANCH   3  14
HETATM   14  C           1     -21.123  -8.888  -0.596  0.00  0.00     0.189 C 
BRANCH  14  15
HETATM   15  C           1     -22.030  -7.819  -0.001  0.00  0.00     0.010 C 
HETATM   16  C           1     -22.270  -6.725  -1.032  0.00  0.00     0.012 C 
HETATM   17  C           1     -23.360  -8.447   0.395  0.00  0.00     0.012 C 
ENDBRANCH  14  15
BRANCH  14  18
HETATM   18  C           1     -20.987 -10.033   0.378  0.00  0.00     0.197 C 
HETATM   19  O           1     -20.528  -9.829   1.523  0.00  0.00    -0.646 OA
HETATM   20  O           1     -21.332 -11.185   0.039  0.00  0.00    -0.646 OA
ENDBRANCH  14  18
ENDBRANCH   3  14
TORSDOF 4
ENDMDL
MODEL 7
REMARK VINA RESULT:      -4.8     16.885     18.144
REMARK  4 active torsions:
REMARK  status: ('A' for Active; 'I' for Inactive)
REMARK    1  A    between atoms: C_8  and  C_10 
REMARK    2  A    between atoms: C_10  and  C_11 
REMARK    3  A    between atoms: C_10  and  N_14 
REMARK       I    between atoms: N_14  and  C_15 
REMARK    4  A    between atoms: C_15  and  C_18 
ROOT
HETATM    1  H           1     -22.811  -9.452  -2.259  0.00  0.00     0.163 HD
HETATM    2  O           1     -21.173  -9.453   0.416  0.00  0.00    -0.271 OA
HETATM    3  N           1     -22.105  -9.166  -1.593  0.00  0.00    -0.344 N 
HETATM    4  C           1     -22.016  -9.795  -0.380  0.00  0.00     0.249 C 
ENDROOT
BRANCH   4   5
HETATM    5  C           1     -22.969 -10.913  -0.036  0.00  0.00     0.274 C 
HETATM    6  N           1     -23.891 -11.156  -1.194  0.00  0.00    -0.067 N 
HETATM    7  H           1     -24.551 -11.930  -0.957  0.00  0.00     0.275 HD
HETATM    8  H           1     -24.433 -10.285  -1.395  0.00  0.00     0.275 HD
HETATM    9  H           1     -23.331 -11.421  -2.036  0.00  0.00     0.275 HD
HETATM   10 Se           1     -22.563 -12.885  -2.475  0.00  0.00     0.000 Se
HETATM   11  C           1     -21.364 -12.569  -0.971  0.00  0.00     0.003 C 
HETATM   12  C           1     -21.138 -13.323  -3.730  0.00  0.00     0.000 C 
HETATM   13  C           1     -22.179 -12.182   0.257  0.00  0.00     0.042 C 
ENDBRANCH   4   5
BRANCH   3  14
HETATM   14  C           1     -21.190  -8.092  -1.923  0.00  0.00     0.189 C 
BRANCH  14  15
HETATM   15  C           1     -20.590  -8.342  -3.301  0.00  0.00     0.010 C 
HETATM   16  C           1     -19.237  -9.023  -3.148  0.00  0.00     0.012 C 
HETATM   17  C           1     -21.523  -9.237  -4.104  0.00  0.00     0.012 C 
ENDBRANCH  14  15
BRANCH  14  18
HETATM   18  C           1     -21.937  -6.780  -1.929  0.00  0.00     0.197 C 
HETATM   19  O           1     -21.812  -5.994  -2.893  0.00  0.00    -0.646 OA
HETATM   20  O           1     -22.680  -6.480  -0.970  0.00  0.00    -0.646 OA
ENDBRANCH  14  18
ENDBRANCH   3  14
TORSDOF 4
ENDMDL
MODEL 8
REMARK VINA RESULT:      -4.7     17.450     18.684
REMARK  4 active torsions:
REMARK  status: ('A' for Active; 'I' for Inactive)
REMARK    1  A    between atoms: C_8  and  C_10 
REMARK    2  A    between atoms: C_10  and  C_11 
REMARK    3  A    between atoms: C_10  and  N_14 
REMARK       I    between atoms: N_14  and  C_15 
REMARK    4  A    between atoms: C_15  and  C_18 
ROOT
HETATM    1  H           1     -22.946 -10.107  -0.984  0.00  0.00     0.163 HD
HETATM    2  O           1     -20.482  -9.539  -2.841  0.00  0.00    -0.271 OA
HETATM    3  N           1     -22.046  -9.734  -1.259  0.00  0.00    -0.344 N 
HETATM    4  C           1     -21.556  -9.985  -2.513  0.00  0.00     0.249 C 
ENDROOT
BRANCH   4   5
HETATM    5  C           1     -22.357 -10.817  -3.484  0.00  0.00     0.274 C 
HETATM    6  N           1     -21.595 -10.955  -4.769  0.00  0.00    -0.067 N 
HETATM    7  H           1     -22.149 -11.532  -5.442  0.00  0.00     0.275 HD
HETATM    8  H           1     -21.428 -10.007  -5.178  0.00  0.00     0.275 HD
HETATM    9  H           1     -20.678 -11.421  -4.583  0.00  0.00     0.275 HD
HETATM   10 Se           1     -20.276 -13.057  -4.289  0.00  0.00     0.000 Se
HETATM   11  C           1     -21.265 -12.879  -2.619  0.00  0.00     0.003 C 
HETATM   12  C           1     -18.736 -13.930  -3.474  0.00  0.00     0.000 C 
HETATM   13  C           1     -22.600 -12.198  -2.890  0.00  0.00     0.042 C 
ENDBRANCH   4   5
BRANCH   3  14
HETATM   14  C           1     -21.277  -8.934  -0.326  0.00  0.00     0.189 C 
BRANCH  14  15
HETATM   15  C           1     -22.089  -7.713   0.084  0.00  0.00     0.010 C 
HETATM   16  C           1     -22.238  -6.779  -1.109  0.00  0.00     0.012 C 
HETATM   17  C           1     -23.466  -8.157   0.559  0.00  0.00     0.012 C 
ENDBRANCH  14  15
BRANCH  14  18
HETATM   18  C           1     -20.956  -9.760   0.896  0.00  0.00     0.197 C 
HETATM   19  O           1     -21.104 -11.001   0.869  0.00  0.00    -0.646 OA
HETATM   20  O           1     -20.542  -9.203   1.935  0.00  0.00    -0.646 OA
ENDBRANCH  14  18
ENDBRANCH   3  14
TORSDOF 4
ENDMDL
MODEL 9
REMARK VINA RESULT:      -4.7     17.167     18.321
REMARK  4 active torsions:
REMARK  status: ('A' for Active; 'I' for Inactive)
REMARK    1  A    between atoms: C_8  and  C_10 
REMARK    2  A    between atoms: C_10  and  C_11 
REMARK    3  A    between atoms: C_10  and  N_14 
REMARK       I    between atoms: N_14  and  C_15 
REMARK    4  A    between atoms: C_15  and  C_18 
ROOT
HETATM    1  H           1     -20.405 -10.395  -1.783  0.00  0.00     0.163 HD
HETATM    2  O           1     -21.387  -7.494  -2.458  0.00  0.00    -0.271 OA
HETATM    3  N           1     -20.973  -9.560  -1.719  0.00  0.00    -0.344 N 
HETATM    4  C           1     -20.709  -8.491  -2.533  0.00  0.00     0.249 C 
ENDROOT
BRANCH   4   5
HETATM    5  C           1     -19.572  -8.558  -3.523  0.00  0.00     0.274 C 
HETATM    6  N           1     -18.940  -9.917  -3.466  0.00  0.00    -0.067 N 
HETATM    7  H           1     -18.152  -9.964  -4.151  0.00  0.00     0.275 HD
HETATM    8  H           1     -18.573 -10.089  -2.501  0.00  0.00     0.275 HD
HETATM    9  H           1     -19.652 -10.643  -3.703  0.00  0.00     0.275 HD
HETATM   10 Se           1     -20.321 -11.132  -5.200  0.00  0.00     0.000 Se
HETATM   11  C           1     -21.144  -9.366  -5.275  0.00  0.00     0.003 C 
HETATM   12  C           1     -21.945 -12.090  -5.690  0.00  0.00     0.000 C 
HETATM   13  C           1     -20.106  -8.307  -4.927  0.00  0.00     0.042 C 
ENDBRANCH   4   5
BRANCH   3  14
HETATM   14  C           1     -22.065  -9.496  -0.769  0.00  0.00     0.189 C 
BRANCH  14  15
HETATM   15  C           1     -22.829 -10.814  -0.784  0.00  0.00     0.010 C 
HETATM   16  C           1     -24.139 -10.649  -0.025  0.00  0.00     0.012 C 
HETATM   17  C           1     -23.121 -11.213  -2.224  0.00  0.00     0.012 C 
ENDBRANCH  14  15
BRANCH  14  18
HETATM   18  C           1     -21.512  -9.250   0.615  0.00  0.00     0.197 C 
HETATM   19  O           1     -21.771  -8.181   1.210  0.00  0.00    -0.646 OA
HETATM   20  O           1     -20.797 -10.114   1.164  0.00  0.00    -0.646 OA
ENDBRANCH  14  18
ENDBRANCH   3  14
TORSDOF 4
ENDMDL
