MODEL 1
REMARK VINA RESULT:      -6.6      0.000      0.000
REMARK  8 active torsions:
REMARK  status: ('A' for Active; 'I' for Inactive)
REMARK    1  A    between atoms: C_1  and  C_12 
REMARK       I    between atoms: C_1  and  N_9 
REMARK    2  A    between atoms: N_6  and  C_13 
REMARK       I    between atoms: C_7  and  N_21 
REMARK    3  A    between atoms: C_7  and  C_13 
REMARK    4  A    between atoms: C_12  and  C_13 
REMARK    5  A    between atoms: C_14  and  C_22 
REMARK    6  A    between atoms: C_14  and  C_15 
REMARK    7  A    between atoms: C_15  and  C_16 
REMARK    8  A    between atoms: C_15  and  N_21 
ROOT
HETATM    1  O           1     -37.449  -0.738 -13.145  0.00  0.00    -0.271 OA
HETATM    2  C           1     -36.325  -0.312 -13.025  0.00  0.00     0.249 C 
HETATM    3  H           1     -34.633  -0.300 -11.833  0.00  0.00     0.163 HD
HETATM    4  N           1     -35.575  -0.657 -11.933  0.00  0.00    -0.344 N 
ENDROOT
BRANCH   2   5
HETATM    5  C           1     -35.747   0.600 -14.080  0.00  0.00     0.283 C 
BRANCH   5   6
HETATM    6  N           1     -34.400   1.087 -13.637  0.00  0.00    -0.066 N 
HETATM    7  H           1     -34.286   2.090 -13.903  0.00  0.00     0.275 HD
HETATM    8  H           1     -34.318   0.990 -12.599  0.00  0.00     0.275 HD
HETATM    9  H           1     -33.655   0.517 -14.100  0.00  0.00     0.275 HD
ENDBRANCH   5   6
BRANCH   5  10
HETATM   10  C           1     -35.605  -0.165 -15.390  0.00  0.00     0.145 C 
BRANCH  10  11
HETATM   11  C           1     -36.882  -0.046 -16.184  0.00  0.00     0.217 C 
HETATM   12  N           1     -37.743   0.992 -15.943  0.00  0.00    -0.370 N 
HETATM   13  H           1     -38.600   1.071 -16.475  0.00  0.00     0.159 HD
HETATM   14  H           1     -37.522   1.677 -15.233  0.00  0.00     0.159 HD
HETATM   15  O           1     -37.145  -0.865 -17.031  0.00  0.00    -0.274 OA
ENDBRANCH  10  11
ENDBRANCH   5  10
ENDBRANCH   2   5
BRANCH   4  16
HETATM   16  C           1     -36.130  -1.533 -10.920  0.00  0.00     0.189 C 
BRANCH  16  17
HETATM   17  C           1     -35.064  -2.522 -10.466  0.00  0.00     0.014 C 
HETATM   18  C           1     -35.460  -3.927 -10.900  0.00  0.00     0.012 C 
BRANCH  17  19
HETATM   19  C           1     -33.729  -2.153 -11.097  0.00  0.00     0.002 C 
HETATM   20  C           1     -32.984  -3.422 -11.490  0.00  0.00     0.005 C 
ENDBRANCH  17  19
ENDBRANCH  16  17
BRANCH  16  21
HETATM   21  C           1     -36.588  -0.710  -9.741  0.00  0.00     0.197 C 
HETATM   22  O           1     -35.762  -0.334  -8.882  0.00  0.00    -0.646 OA
HETATM   23  O           1     -37.794  -0.404  -9.623  0.00  0.00    -0.646 OA
ENDBRANCH  16  21
ENDBRANCH   4  16
TORSDOF 8
ENDMDL
MODEL 2
REMARK VINA RESULT:      -6.2      9.594     11.137
REMARK  8 active torsions:
REMARK  status: ('A' for Active; 'I' for Inactive)
REMARK    1  A    between atoms: C_1  and  C_12 
REMARK       I    between atoms: C_1  and  N_9 
REMARK    2  A    between atoms: N_6  and  C_13 
REMARK       I    between atoms: C_7  and  N_21 
REMARK    3  A    between atoms: C_7  and  C_13 
REMARK    4  A    between atoms: C_12  and  C_13 
REMARK    5  A    between atoms: C_14  and  C_22 
REMARK    6  A    between atoms: C_14  and  C_15 
REMARK    7  A    between atoms: C_15  and  C_16 
REMARK    8  A    between atoms: C_15  and  N_21 
ROOT
HETATM    1  O           1     -29.138  -6.940 -16.818  0.00  0.00    -0.271 OA
HETATM    2  C           1     -28.821  -5.815 -17.119  0.00  0.00     0.249 C 
HETATM    3  H           1     -27.260  -4.597 -17.726  0.00  0.00     0.163 HD
HETATM    4  N           1     -27.527  -5.541 -17.473  0.00  0.00    -0.344 N 
ENDROOT
BRANCH   2   5
HETATM    5  C           1     -29.850  -4.711 -17.107  0.00  0.00     0.283 C 
BRANCH   5   6
HETATM    6  N           1     -29.688  -3.863 -18.333  0.00  0.00    -0.066 N 
HETATM    7  H           1     -28.798  -3.320 -18.267  0.00  0.00     0.275 HD
HETATM    8  H           1     -29.661  -4.475 -19.180  0.00  0.00     0.275 HD
HETATM    9  H           1     -30.494  -3.202 -18.407  0.00  0.00     0.275 HD
ENDBRANCH   5   6
BRANCH   5  10
HETATM   10  C           1     -31.246  -5.319 -17.092  0.00  0.00     0.145 C 
BRANCH  10  11
HETATM   11  C           1     -32.263  -4.238 -16.818  0.00  0.00     0.217 C 
HETATM   12  N           1     -33.154  -4.382 -15.787  0.00  0.00    -0.370 N 
HETATM   13  H           1     -33.836  -3.658 -15.604  0.00  0.00     0.159 HD
HETATM   14  H           1     -33.130  -5.213 -15.211  0.00  0.00     0.159 HD
HETATM   15  O           1     -32.291  -3.247 -17.506  0.00  0.00    -0.274 OA
ENDBRANCH  10  11
ENDBRANCH   5  10
ENDBRANCH   2   5
BRANCH   4  16
HETATM   16  C           1     -26.538  -6.601 -17.485  0.00  0.00     0.189 C 
BRANCH  16  17
HETATM   17  C           1     -25.575  -6.383 -18.645  0.00  0.00     0.014 C 
HETATM   18  C           1     -24.352  -7.271 -18.462  0.00  0.00     0.012 C 
BRANCH  17  19
HETATM   19  C           1     -26.269  -6.737 -19.953  0.00  0.00     0.002 C 
HETATM   20  C           1     -25.330  -7.566 -20.818  0.00  0.00     0.005 C 
ENDBRANCH  17  19
ENDBRANCH  16  17
BRANCH  16  21
HETATM   21  C           1     -25.772  -6.588 -16.185  0.00  0.00     0.197 C 
HETATM   22  O           1     -25.857  -7.556 -15.400  0.00  0.00    -0.646 OA
HETATM   23  O           1     -25.053  -5.609 -15.893  0.00  0.00    -0.646 OA
ENDBRANCH  16  21
ENDBRANCH   4  16
TORSDOF 8
ENDMDL
MODEL 3
REMARK VINA RESULT:      -6.2     11.417     12.966
REMARK  8 active torsions:
REMARK  status: ('A' for Active; 'I' for Inactive)
REMARK    1  A    between atoms: C_1  and  C_12 
REMARK       I    between atoms: C_1  and  N_9 
REMARK    2  A    between atoms: N_6  and  C_13 
REMARK       I    between atoms: C_7  and  N_21 
REMARK    3  A    between atoms: C_7  and  C_13 
REMARK    4  A    between atoms: C_12  and  C_13 
REMARK    5  A    between atoms: C_14  and  C_22 
REMARK    6  A    between atoms: C_14  and  C_15 
REMARK    7  A    between atoms: C_15  and  C_16 
REMARK    8  A    between atoms: C_15  and  N_21 
ROOT
HETATM    1  O           1     -27.406  -5.667 -20.387  0.00  0.00    -0.271 OA
HETATM    2  C           1     -27.021  -6.580 -19.697  0.00  0.00     0.249 C 
HETATM    3  H           1     -27.100  -7.432 -17.812  0.00  0.00     0.163 HD
HETATM    4  N           1     -27.421  -6.666 -18.391  0.00  0.00    -0.344 N 
ENDROOT
BRANCH   2   5
HETATM    5  C           1     -26.100  -7.627 -20.275  0.00  0.00     0.283 C 
BRANCH   5   6
HETATM    6  N           1     -26.872  -8.511 -21.208  0.00  0.00    -0.066 N 
HETATM    7  H           1     -27.347  -7.926 -21.931  0.00  0.00     0.275 HD
HETATM    8  H           1     -26.217  -9.179 -21.676  0.00  0.00     0.275 HD
HETATM    9  H           1     -27.588  -9.047 -20.667  0.00  0.00     0.275 HD
ENDBRANCH   5   6
BRANCH   5  10
HETATM   10  C           1     -24.972  -6.946 -21.038  0.00  0.00     0.145 C 
BRANCH  10  11
HETATM   11  C           1     -24.128  -7.990 -21.726  0.00  0.00     0.217 C 
HETATM   12  N           1     -23.173  -8.673 -21.021  0.00  0.00    -0.370 N 
HETATM   13  H           1     -22.607  -9.372 -21.483  0.00  0.00     0.159 HD
HETATM   14  H           1     -23.034  -8.476 -20.039  0.00  0.00     0.159 HD
HETATM   15  O           1     -24.295  -8.224 -22.899  0.00  0.00    -0.274 OA
ENDBRANCH  10  11
ENDBRANCH   5  10
ENDBRANCH   2   5
BRANCH   4  16
HETATM   16  C           1     -28.306  -5.660 -17.835  0.00  0.00     0.189 C 
BRANCH  16  17
HETATM   17  C           1     -29.428  -6.342 -17.063  0.00  0.00     0.014 C 
HETATM   18  C           1     -30.724  -5.569 -17.264  0.00  0.00     0.012 C 
BRANCH  17  19
HETATM   19  C           1     -29.601  -7.766 -17.573  0.00  0.00     0.002 C 
HETATM   20  C           1     -30.610  -7.779 -18.714  0.00  0.00     0.005 C 
ENDBRANCH  17  19
ENDBRANCH  16  17
BRANCH  16  21
HETATM   21  C           1     -27.527  -4.764 -16.906  0.00  0.00     0.197 C 
HETATM   22  O           1     -27.950  -3.618 -16.641  0.00  0.00    -0.646 OA
HETATM   23  O           1     -26.457  -5.166 -16.400  0.00  0.00    -0.646 OA
ENDBRANCH  16  21
ENDBRANCH   4  16
TORSDOF 8
ENDMDL
MODEL 4
REMARK VINA RESULT:      -6.0     10.166     11.733
REMARK  8 active torsions:
REMARK  status: ('A' for Active; 'I' for Inactive)
REMARK    1  A    between atoms: C_1  and  C_12 
REMARK       I    between atoms: C_1  and  N_9 
REMARK    2  A    between atoms: N_6  and  C_13 
REMARK       I    between atoms: C_7  and  N_21 
REMARK    3  A    between atoms: C_7  and  C_13 
REMARK    4  A    between atoms: C_12  and  C_13 
REMARK    5  A    between atoms: C_14  and  C_22 
REMARK    6  A    between atoms: C_14  and  C_15 
REMARK    7  A    between atoms: C_15  and  C_16 
REMARK    8  A    between atoms: C_15  and  N_21 
ROOT
HETATM    1  O           1     -28.731  -7.630 -16.802  0.00  0.00    -0.271 OA
HETATM    2  C           1     -28.650  -6.545 -17.325  0.00  0.00     0.249 C 
HETATM    3  H           1     -27.370  -5.179 -18.209  0.00  0.00     0.163 HD
HETATM    4  N           1     -27.439  -6.088 -17.770  0.00  0.00    -0.344 N 
ENDROOT
BRANCH   2   5
HETATM    5  C           1     -29.885  -5.693 -17.492  0.00  0.00     0.283 C 
BRANCH   5   6
HETATM    6  N           1     -30.391  -5.276 -16.143  0.00  0.00    -0.066 N 
HETATM    7  H           1     -29.583  -5.041 -15.524  0.00  0.00     0.275 HD
HETATM    8  H           1     -31.006  -4.438 -16.246  0.00  0.00     0.275 HD
HETATM    9  H           1     -30.937  -6.060 -15.719  0.00  0.00     0.275 HD
ENDBRANCH   5   6
BRANCH   5  10
HETATM   10  C           1     -29.541  -4.455 -18.309  0.00  0.00     0.145 C 
BRANCH  10  11
HETATM   11  C           1     -29.082  -3.353 -17.386  0.00  0.00     0.217 C 
HETATM   12  N           1     -29.708  -2.135 -17.410  0.00  0.00    -0.370 N 
HETATM   13  H           1     -29.400  -1.396 -16.792  0.00  0.00     0.159 HD
HETATM   14  H           1     -30.476  -1.974 -18.048  0.00  0.00     0.159 HD
HETATM   15  O           1     -28.164  -3.546 -16.626  0.00  0.00    -0.274 OA
ENDBRANCH  10  11
ENDBRANCH   5  10
ENDBRANCH   2   5
BRANCH   4  16
HETATM   16  C           1     -26.252  -6.907 -17.611  0.00  0.00     0.189 C 
BRANCH  16  17
HETATM   17  C           1     -25.233  -6.536 -18.680  0.00  0.00     0.014 C 
HETATM   18  C           1     -23.969  -7.362 -18.482  0.00  0.00     0.012 C 
BRANCH  17  19
HETATM   19  C           1     -25.816  -6.820 -20.057  0.00  0.00     0.002 C 
HETATM   20  C           1     -24.888  -7.757 -20.818  0.00  0.00     0.005 C 
ENDBRANCH  17  19
ENDBRANCH  16  17
BRANCH  16  21
HETATM   21  C           1     -25.658  -6.670 -16.244  0.00  0.00     0.197 C 
HETATM   22  O           1     -25.125  -5.572 -15.976  0.00  0.00    -0.646 OA
HETATM   23  O           1     -25.700  -7.571 -15.379  0.00  0.00    -0.646 OA
ENDBRANCH  16  21
ENDBRANCH   4  16
TORSDOF 8
ENDMDL
MODEL 5
REMARK VINA RESULT:      -5.8      1.630      2.333
REMARK  8 active torsions:
REMARK  status: ('A' for Active; 'I' for Inactive)
REMARK    1  A    between atoms: C_1  and  C_12 
REMARK       I    between atoms: C_1  and  N_9 
REMARK    2  A    between atoms: N_6  and  C_13 
REMARK       I    between atoms: C_7  and  N_21 
REMARK    3  A    between atoms: C_7  and  C_13 
REMARK    4  A    between atoms: C_12  and  C_13 
REMARK    5  A    between atoms: C_14  and  C_22 
REMARK    6  A    between atoms: C_14  and  C_15 
REMARK    7  A    between atoms: C_15  and  C_16 
REMARK    8  A    between atoms: C_15  and  N_21 
ROOT
HETATM    1  O           1     -36.713  -1.008 -12.270  0.00  0.00    -0.271 OA
HETATM    2  C           1     -35.762  -0.859 -13.001  0.00  0.00     0.249 C 
HETATM    3  H           1     -33.909  -1.602 -13.547  0.00  0.00     0.163 HD
HETATM    4  N           1     -34.705  -1.726 -12.934  0.00  0.00    -0.344 N 
ENDROOT
BRANCH   2   5
HETATM    5  C           1     -35.742   0.281 -13.989  0.00  0.00     0.283 C 
BRANCH   5   6
HETATM    6  N           1     -34.552   1.154 -13.720  0.00  0.00    -0.066 N 
HETATM    7  H           1     -33.678   0.588 -13.797  0.00  0.00     0.275 HD
HETATM    8  H           1     -34.526   1.932 -14.419  0.00  0.00     0.275 HD
HETATM    9  H           1     -34.625   1.554 -12.757  0.00  0.00     0.275 HD
ENDBRANCH   5   6
BRANCH   5  10
HETATM   10  C           1     -35.653  -0.274 -15.405  0.00  0.00     0.145 C 
BRANCH  10  11
HETATM   11  C           1     -36.977  -0.085 -16.103  0.00  0.00     0.217 C 
HETATM   12  N           1     -37.752   1.008 -15.817  0.00  0.00    -0.370 N 
HETATM   13  H           1     -38.640   1.134 -16.285  0.00  0.00     0.159 HD
HETATM   14  H           1     -37.436   1.687 -15.137  0.00  0.00     0.159 HD
HETATM   15  O           1     -37.353  -0.897 -16.914  0.00  0.00    -0.274 OA
ENDBRANCH  10  11
ENDBRANCH   5  10
ENDBRANCH   2   5
BRANCH   4  16
HETATM   16  C           1     -34.725  -2.823 -11.985  0.00  0.00     0.189 C 
BRANCH  16  17
HETATM   17  C           1     -34.047  -4.039 -12.601  0.00  0.00     0.014 C 
HETATM   18  C           1     -32.631  -4.160 -12.055  0.00  0.00     0.012 C 
BRANCH  17  19
HETATM   19  C           1     -34.836  -5.292 -12.251  0.00  0.00     0.002 C 
HETATM   20  C           1     -34.107  -6.063 -11.158  0.00  0.00     0.005 C 
ENDBRANCH  17  19
ENDBRANCH  16  17
BRANCH  16  21
HETATM   21  C           1     -33.990  -2.416 -10.733  0.00  0.00     0.197 C 
HETATM   22  O           1     -34.154  -3.060  -9.674  0.00  0.00    -0.646 OA
HETATM   23  O           1     -33.216  -1.435 -10.752  0.00  0.00    -0.646 OA
ENDBRANCH  16  21
ENDBRANCH   4  16
TORSDOF 8
ENDMDL
MODEL 6
REMARK VINA RESULT:      -5.8     14.663     16.929
REMARK  8 active torsions:
REMARK  status: ('A' for Active; 'I' for Inactive)
REMARK    1  A    between atoms: C_1  and  C_12 
REMARK       I    between atoms: C_1  and  N_9 
REMARK    2  A    between atoms: N_6  and  C_13 
REMARK       I    between atoms: C_7  and  N_21 
REMARK    3  A    between atoms: C_7  and  C_13 
REMARK    4  A    between atoms: C_12  and  C_13 
REMARK    5  A    between atoms: C_14  and  C_22 
REMARK    6  A    between atoms: C_14  and  C_15 
REMARK    7  A    between atoms: C_15  and  C_16 
REMARK    8  A    between atoms: C_15  and  N_21 
ROOT
HETATM    1  O           1     -19.939  -5.152  -6.322  0.00  0.00    -0.271 OA
HETATM    2  C           1     -21.132  -5.267  -6.174  0.00  0.00     0.249 C 
HETATM    3  H           1     -22.627  -6.299  -5.182  0.00  0.00     0.163 HD
HETATM    4  N           1     -21.627  -6.203  -5.307  0.00  0.00    -0.344 N 
ENDROOT
BRANCH   2   5
HETATM    5  C           1     -22.077  -4.377  -6.943  0.00  0.00     0.283 C 
BRANCH   5   6
HETATM    6  N           1     -21.483  -3.006  -7.070  0.00  0.00    -0.066 N 
HETATM    7  H           1     -20.750  -2.875  -6.338  0.00  0.00     0.275 HD
HETATM    8  H           1     -21.054  -2.898  -8.017  0.00  0.00     0.275 HD
HETATM    9  H           1     -22.234  -2.289  -6.944  0.00  0.00     0.275 HD
ENDBRANCH   5   6
BRANCH   5  10
HETATM   10  C           1     -22.307  -4.960  -8.332  0.00  0.00     0.145 C 
BRANCH  10  11
HETATM   11  C           1     -23.050  -3.959  -9.182  0.00  0.00     0.217 C 
HETATM   12  N           1     -24.359  -3.665  -8.907  0.00  0.00    -0.370 N 
HETATM   13  H           1     -24.857  -2.994  -9.477  0.00  0.00     0.159 HD
HETATM   14  H           1     -24.827  -4.120  -8.134  0.00  0.00     0.159 HD
HETATM   15  O           1     -22.490  -3.416 -10.104  0.00  0.00    -0.274 OA
ENDBRANCH  10  11
ENDBRANCH   5  10
ENDBRANCH   2   5
BRANCH   4  16
HETATM   16  C           1     -20.718  -7.058  -4.567  0.00  0.00     0.189 C 
BRANCH  16  17
HETATM   17  C           1     -21.384  -7.505  -3.272  0.00  0.00     0.014 C 
HETATM   18  C           1     -20.367  -8.234  -2.405  0.00  0.00     0.012 C 
BRANCH  17  19
HETATM   19  C           1     -21.909  -6.287  -2.525  0.00  0.00     0.002 C 
HETATM   20  C           1     -22.326  -6.694  -1.118  0.00  0.00     0.005 C 
ENDBRANCH  17  19
ENDBRANCH  16  17
BRANCH  16  21
HETATM   21  C           1     -20.376  -8.268  -5.401  0.00  0.00     0.197 C 
HETATM   22  O           1     -21.279  -9.047  -5.772  0.00  0.00    -0.646 OA
HETATM   23  O           1     -19.189  -8.490  -5.722  0.00  0.00    -0.646 OA
ENDBRANCH  16  21
ENDBRANCH   4  16
TORSDOF 8
ENDMDL
MODEL 7
REMARK VINA RESULT:      -5.2     17.766     19.510
REMARK  8 active torsions:
REMARK  status: ('A' for Active; 'I' for Inactive)
REMARK    1  A    between atoms: C_1  and  C_12 
REMARK       I    between atoms: C_1  and  N_9 
REMARK    2  A    between atoms: N_6  and  C_13 
REMARK       I    between atoms: C_7  and  N_21 
REMARK    3  A    between atoms: C_7  and  C_13 
REMARK    4  A    between atoms: C_12  and  C_13 
REMARK    5  A    between atoms: C_14  and  C_22 
REMARK    6  A    between atoms: C_14  and  C_15 
REMARK    7  A    between atoms: C_15  and  C_16 
REMARK    8  A    between atoms: C_15  and  N_21 
ROOT
HETATM    1  O           1     -20.666  -7.034  -2.095  0.00  0.00    -0.271 OA
HETATM    2  C           1     -21.257  -7.873  -2.731  0.00  0.00     0.249 C 
HETATM    3  H           1     -22.072  -9.775  -2.684  0.00  0.00     0.163 HD
HETATM    4  N           1     -21.576  -9.072  -2.152  0.00  0.00    -0.344 N 
ENDROOT
BRANCH   2   5
HETATM    5  C           1     -21.646  -7.600  -4.163  0.00  0.00     0.283 C 
BRANCH   5   6
HETATM    6  N           1     -22.416  -6.316  -4.237  0.00  0.00    -0.066 N 
HETATM    7  H           1     -23.039  -6.234  -3.403  0.00  0.00     0.275 HD
HETATM    8  H           1     -21.750  -5.510  -4.254  0.00  0.00     0.275 HD
HETATM    9  H           1     -22.995  -6.307  -5.107  0.00  0.00     0.275 HD
ENDBRANCH   5   6
BRANCH   5  10
HETATM   10  C           1     -20.389  -7.488  -5.018  0.00  0.00     0.145 C 
BRANCH  10  11
HETATM   11  C           1     -20.479  -6.257  -5.886  0.00  0.00     0.217 C 
HETATM   12  N           1     -20.927  -6.360  -7.176  0.00  0.00    -0.370 N 
HETATM   13  H           1     -20.987  -5.535  -7.758  0.00  0.00     0.159 HD
HETATM   14  H           1     -21.197  -7.262  -7.547  0.00  0.00     0.159 HD
HETATM   15  O           1     -20.157  -5.181  -5.443  0.00  0.00    -0.274 OA
ENDBRANCH  10  11
ENDBRANCH   5  10
ENDBRANCH   2   5
BRANCH   4  16
HETATM   16  C           1     -21.203  -9.334  -0.775  0.00  0.00     0.189 C 
BRANCH  16  17
HETATM   17  C           1     -22.457  -9.599   0.048  0.00  0.00     0.014 C 
HETATM   18  C           1     -23.117  -8.274   0.405  0.00  0.00     0.012 C 
BRANCH  17  19
HETATM   19  C           1     -23.426 -10.448  -0.763  0.00  0.00     0.002 C 
HETATM   20  C           1     -23.776 -11.707   0.019  0.00  0.00     0.005 C 
ENDBRANCH  17  19
ENDBRANCH  16  17
BRANCH  16  21
HETATM   21  C           1     -20.300 -10.541  -0.721  0.00  0.00     0.197 C 
HETATM   22  O           1     -20.107 -11.129   0.365  0.00  0.00    -0.646 OA
HETATM   23  O           1     -19.745 -10.954  -1.762  0.00  0.00    -0.646 OA
ENDBRANCH  16  21
ENDBRANCH   4  16
TORSDOF 8
ENDMDL
MODEL 8
REMARK VINA RESULT:      -5.2     10.694     12.766
REMARK  8 active torsions:
REMARK  status: ('A' for Active; 'I' for Inactive)
REMARK    1  A    between atoms: C_1  and  C_12 
REMARK       I    between atoms: C_1  and  N_9 
REMARK    2  A    between atoms: N_6  and  C_13 
REMARK       I    between atoms: C_7  and  N_21 
REMARK    3  A    between atoms: C_7  and  C_13 
REMARK    4  A    between atoms: C_12  and  C_13 
REMARK    5  A    between atoms: C_14  and  C_22 
REMARK    6  A    between atoms: C_14  and  C_15 
REMARK    7  A    between atoms: C_15  and  C_16 
REMARK    8  A    between atoms: C_15  and  N_21 
ROOT
HETATM    1  O           1     -28.688  -5.151 -19.324  0.00  0.00    -0.271 OA
HETATM    2  C           1     -28.183  -5.876 -18.502  0.00  0.00     0.249 C 
HETATM    3  H           1     -26.887  -7.463 -18.207  0.00  0.00     0.163 HD
HETATM    4  N           1     -27.312  -6.856 -18.896  0.00  0.00    -0.344 N 
ENDROOT
BRANCH   2   5
HETATM    5  C           1     -28.510  -5.702 -17.039  0.00  0.00     0.283 C 
BRANCH   5   6
HETATM    6  N           1     -29.283  -4.432 -16.847  0.00  0.00    -0.066 N 
HETATM    7  H           1     -29.358  -3.927 -17.758  0.00  0.00     0.275 HD
HETATM    8  H           1     -30.242  -4.657 -16.494  0.00  0.00     0.275 HD
HETATM    9  H           1     -28.790  -3.826 -16.152  0.00  0.00     0.275 HD
ENDBRANCH   5   6
BRANCH   5  10
HETATM   10  C           1     -29.346  -6.882 -16.561  0.00  0.00     0.145 C 
BRANCH  10  11
HETATM   11  C           1     -30.585  -6.999 -17.414  0.00  0.00     0.217 C 
HETATM   12  N           1     -30.619  -7.894 -18.452  0.00  0.00    -0.370 N 
HETATM   13  H           1     -31.450  -7.972 -19.024  0.00  0.00     0.159 HD
HETATM   14  H           1     -29.814  -8.474 -18.645  0.00  0.00     0.159 HD
HETATM   15  O           1     -31.545  -6.306 -17.183  0.00  0.00    -0.274 OA
ENDBRANCH  10  11
ENDBRANCH   5  10
ENDBRANCH   2   5
BRANCH   4  16
HETATM   16  C           1     -26.997  -7.023 -20.302  0.00  0.00     0.189 C 
BRANCH  16  17
HETATM   17  C           1     -25.486  -7.086 -20.479  0.00  0.00     0.014 C 
HETATM   18  C           1     -25.053  -6.053 -21.510  0.00  0.00     0.012 C 
BRANCH  17  19
HETATM   19  C           1     -24.807  -6.793 -19.149  0.00  0.00     0.002 C 
HETATM   20  C           1     -23.373  -7.304 -19.186  0.00  0.00     0.005 C 
ENDBRANCH  17  19
ENDBRANCH  16  17
BRANCH  16  21
HETATM   21  C           1     -27.617  -8.302 -20.807  0.00  0.00     0.197 C 
HETATM   22  O           1     -27.025  -8.988 -21.667  0.00  0.00    -0.646 OA
HETATM   23  O           1     -28.724  -8.677 -20.364  0.00  0.00    -0.646 OA
ENDBRANCH  16  21
ENDBRANCH   4  16
TORSDOF 8
ENDMDL
MODEL 9
REMARK VINA RESULT:      -5.1     17.222     19.446
REMARK  8 active torsions:
REMARK  status: ('A' for Active; 'I' for Inactive)
REMARK    1  A    between atoms: C_1  and  C_12 
REMARK       I    between atoms: C_1  and  N_9 
REMARK    2  A    between atoms: N_6  and  C_13 
REMARK       I    between atoms: C_7  and  N_21 
REMARK    3  A    between atoms: C_7  and  C_13 
REMARK    4  A    between atoms: C_12  and  C_13 
REMARK    5  A    between atoms: C_14  and  C_22 
REMARK    6  A    between atoms: C_14  and  C_15 
REMARK    7  A    between atoms: C_15  and  C_16 
REMARK    8  A    between atoms: C_15  and  N_21 
ROOT
HETATM    1  O           1     -19.908 -10.374  -3.411  0.00  0.00    -0.271 OA
HETATM    2  C           1     -20.598  -9.393  -3.270  0.00  0.00     0.249 C 
HETATM    3  H           1     -22.107  -8.528  -2.148  0.00  0.00     0.163 HD
HETATM    4  N           1     -21.528  -9.350  -2.267  0.00  0.00    -0.344 N 
ENDROOT
BRANCH   2   5
HETATM    5  C           1     -20.433  -8.215  -4.198  0.00  0.00     0.283 C 
BRANCH   5   6
HETATM    6  N           1     -21.019  -8.546  -5.538  0.00  0.00    -0.066 N 
HETATM    7  H           1     -21.259  -9.562  -5.572  0.00  0.00     0.275 HD
HETATM    8  H           1     -21.883  -7.978  -5.691  0.00  0.00     0.275 HD
HETATM    9  H           1     -20.321  -8.328  -6.285  0.00  0.00     0.275 HD
ENDBRANCH   5   6
BRANCH   5  10
HETATM   10  C           1     -21.153  -7.005  -3.615  0.00  0.00     0.145 C 
BRANCH  10  11
HETATM   11  C           1     -21.518  -6.053  -4.727  0.00  0.00     0.217 C 
HETATM   12  N           1     -20.589  -5.164  -5.199  0.00  0.00    -0.370 N 
HETATM   13  H           1     -20.834  -4.525  -5.944  0.00  0.00     0.159 HD
HETATM   14  H           1     -19.659  -5.146  -4.801  0.00  0.00     0.159 HD
HETATM   15  O           1     -22.628  -6.074  -5.201  0.00  0.00    -0.274 OA
ENDBRANCH  10  11
ENDBRANCH   5  10
ENDBRANCH   2   5
BRANCH   4  16
HETATM   16  C           1     -21.687 -10.483  -1.375  0.00  0.00     0.189 C 
BRANCH  16  17
HETATM   17  C           1     -21.861  -9.983   0.053  0.00  0.00     0.014 C 
HETATM   18  C           1     -20.729 -10.520   0.919  0.00  0.00     0.012 C 
BRANCH  17  19
HETATM   19  C           1     -21.831  -8.461   0.064  0.00  0.00     0.002 C 
HETATM   20  C           1     -23.164  -7.931   0.577  0.00  0.00     0.005 C 
ENDBRANCH  17  19
ENDBRANCH  16  17
BRANCH  16  21
HETATM   21  C           1     -22.903 -11.277  -1.783  0.00  0.00     0.197 C 
HETATM   22  O           1     -22.851 -12.035  -2.775  0.00  0.00    -0.646 OA
HETATM   23  O           1     -23.964 -11.176  -1.130  0.00  0.00    -0.646 OA
ENDBRANCH  16  21
ENDBRANCH   4  16
TORSDOF 8
ENDMDL
