MODEL 1
REMARK VINA RESULT:      -6.4      0.000      0.000
REMARK  6 active torsions:
REMARK  status: ('A' for Active; 'I' for Inactive)
REMARK    1  A    between atoms: C_4  and  C_19 
REMARK    2  A    between atoms: C_4  and  N_20 
REMARK    3  A    between atoms: C_5  and  C_14 
REMARK    4  A    between atoms: N_8  and  C_14 
REMARK       I    between atoms: N_8  and  C_19 
REMARK    5  A    between atoms: C_12  and  C_13 
REMARK    6  A    between atoms: C_13  and  C_14 
ROOT
HETATM    1  C           1     -23.149  -4.434  -9.300  0.00  0.00     0.189 C 
ENDROOT
BRANCH   1   2
HETATM    2  C           1     -24.254  -3.662  -9.980  0.00  0.00     0.197 C 
HETATM    3  O           1     -24.479  -3.834 -11.197  0.00  0.00    -0.646 OA
HETATM    4  O           1     -24.946  -2.853  -9.324  0.00  0.00    -0.646 OA
ENDBRANCH   1   2
BRANCH   1   5
HETATM    5  N           1     -22.232  -4.944 -10.300  0.00  0.00    -0.345 N 
HETATM    6  H           1     -22.474  -5.769 -10.835  0.00  0.00     0.163 HD
HETATM    7  C           1     -21.038  -4.312 -10.520  0.00  0.00     0.243 C 
HETATM    8  O           1     -20.058  -4.635  -9.893  0.00  0.00    -0.272 OA
BRANCH   7   9
HETATM    9  C           1     -20.946  -3.210 -11.546  0.00  0.00     0.332 C 
BRANCH   9  10
HETATM   10  N           1     -21.634  -3.640 -12.808  0.00  0.00    -0.071 N 
HETATM   11  H           1     -20.970  -3.568 -13.611  0.00  0.00     0.274 HD
HETATM   12  H           1     -22.460  -3.023 -12.982  0.00  0.00     0.274 HD
HETATM   13  H           1     -21.953  -4.630 -12.709  0.00  0.00     0.274 HD
ENDBRANCH   9  10
ENDBRANCH   7   9
ENDBRANCH   1   5
BRANCH   1  14
HETATM   14  C           1     -22.398  -3.512  -8.348  0.00  0.00     0.074 C 
BRANCH  14  15
HETATM   15  C           1     -21.909  -4.300  -7.173  0.00  0.00    -0.056 A 
HETATM   16  C           1     -20.645  -4.045  -6.641  0.00  0.00     0.007 A 
HETATM   17  C           1     -20.188  -4.780  -5.545  0.00  0.00     0.001 A 
HETATM   18  C           1     -20.995  -5.769  -4.985  0.00  0.00     0.000 A 
HETATM   19  C           1     -22.258  -6.025  -5.518  0.00  0.00     0.001 A 
HETATM   20  C           1     -22.715  -5.290  -6.612  0.00  0.00     0.007 A 
ENDBRANCH  14  15
ENDBRANCH   1  14
TORSDOF 6
ENDMDL
MODEL 2
REMARK VINA RESULT:      -6.4     13.102     15.580
REMARK  6 active torsions:
REMARK  status: ('A' for Active; 'I' for Inactive)
REMARK    1  A    between atoms: C_4  and  C_19 
REMARK    2  A    between atoms: C_4  and  N_20 
REMARK    3  A    between atoms: C_5  and  C_14 
REMARK    4  A    between atoms: N_8  and  C_14 
REMARK       I    between atoms: N_8  and  C_19 
REMARK    5  A    between atoms: C_12  and  C_13 
REMARK    6  A    between atoms: C_13  and  C_14 
ROOT
HETATM    1  C           1     -36.292  -0.091 -10.721  0.00  0.00     0.189 C 
ENDROOT
BRANCH   1   2
HETATM    2  C           1     -36.942   0.772  -9.668  0.00  0.00     0.197 C 
HETATM    3  O           1     -36.348   0.997  -8.591  0.00  0.00    -0.646 OA
HETATM    4  O           1     -38.074   1.261  -9.872  0.00  0.00    -0.646 OA
ENDBRANCH   1   2
BRANCH   1   5
HETATM    5  N           1     -35.814  -1.318 -10.113  0.00  0.00    -0.345 N 
HETATM    6  H           1     -36.245  -1.664  -9.266  0.00  0.00     0.163 HD
HETATM    7  C           1     -34.779  -2.007 -10.685  0.00  0.00     0.243 C 
HETATM    8  O           1     -33.640  -1.762 -10.367  0.00  0.00    -0.272 OA
BRANCH   7   9
HETATM    9  C           1     -35.061  -3.073 -11.715  0.00  0.00     0.332 C 
BRANCH   9  10
HETATM   10  N           1     -34.346  -2.740 -12.990  0.00  0.00    -0.071 N 
HETATM   11  H           1     -33.366  -2.451 -12.777  0.00  0.00     0.274 HD
HETATM   12  H           1     -34.843  -1.958 -13.474  0.00  0.00     0.274 HD
HETATM   13  H           1     -34.333  -3.581 -13.611  0.00  0.00     0.274 HD
ENDBRANCH   9  10
ENDBRANCH   7   9
ENDBRANCH   1   5
BRANCH   1  14
HETATM   14  C           1     -37.311  -0.426 -11.804  0.00  0.00     0.074 C 
BRANCH  14  15
HETATM   15  C           1     -36.790   0.021 -13.134  0.00  0.00    -0.056 A 
HETATM   16  C           1     -37.597  -0.078 -14.267  0.00  0.00     0.007 A 
HETATM   17  C           1     -37.112   0.338 -15.508  0.00  0.00     0.001 A 
HETATM   18  C           1     -35.821   0.853 -15.614  0.00  0.00     0.000 A 
HETATM   19  C           1     -35.013   0.951 -14.481  0.00  0.00     0.001 A 
HETATM   20  C           1     -35.498   0.536 -13.241  0.00  0.00     0.007 A 
ENDBRANCH  14  15
ENDBRANCH   1  14
TORSDOF 6
ENDMDL
MODEL 3
REMARK VINA RESULT:      -6.3     10.486     12.285
REMARK  6 active torsions:
REMARK  status: ('A' for Active; 'I' for Inactive)
REMARK    1  A    between atoms: C_4  and  C_19 
REMARK    2  A    between atoms: C_4  and  N_20 
REMARK    3  A    between atoms: C_5  and  C_14 
REMARK    4  A    between atoms: N_8  and  C_14 
REMARK       I    between atoms: N_8  and  C_19 
REMARK    5  A    between atoms: C_12  and  C_13 
REMARK    6  A    between atoms: C_13  and  C_14 
ROOT
HETATM    1  C           1     -27.777  -6.178 -17.451  0.00  0.00     0.189 C 
ENDROOT
BRANCH   1   2
HETATM    2  C           1     -28.145  -4.836 -16.865  0.00  0.00     0.197 C 
HETATM    3  O           1     -28.604  -3.937 -17.603  0.00  0.00    -0.646 OA
HETATM    4  O           1     -27.991  -4.625 -15.643  0.00  0.00    -0.646 OA
ENDBRANCH   1   2
BRANCH   1   5
HETATM    5  N           1     -28.720  -7.179 -16.992  0.00  0.00    -0.345 N 
HETATM    6  H           1     -28.558  -7.665 -16.119  0.00  0.00     0.163 HD
HETATM    7  C           1     -29.829  -7.470 -17.741  0.00  0.00     0.243 C 
HETATM    8  O           1     -29.781  -8.336 -18.581  0.00  0.00    -0.272 OA
BRANCH   7   9
HETATM    9  C           1     -31.111  -6.707 -17.516  0.00  0.00     0.332 C 
BRANCH   9  10
HETATM   10  N           1     -30.952  -5.795 -16.337  0.00  0.00    -0.071 N 
HETATM   11  H           1     -31.371  -6.241 -15.490  0.00  0.00     0.274 HD
HETATM   12  H           1     -31.437  -4.889 -16.529  0.00  0.00     0.274 HD
HETATM   13  H           1     -29.936  -5.617 -16.169  0.00  0.00     0.274 HD
ENDBRANCH   9  10
ENDBRANCH   7   9
ENDBRANCH   1   5
BRANCH   1  14
HETATM   14  C           1     -27.824  -6.098 -18.972  0.00  0.00     0.074 C 
BRANCH  14  15
HETATM   15  C           1     -26.593  -6.730 -19.543  0.00  0.00    -0.056 A 
HETATM   16  C           1     -26.660  -7.415 -20.756  0.00  0.00     0.007 A 
HETATM   17  C           1     -25.513  -8.005 -21.288  0.00  0.00     0.001 A 
HETATM   18  C           1     -24.301  -7.911 -20.606  0.00  0.00     0.000 A 
HETATM   19  C           1     -24.234  -7.227 -19.392  0.00  0.00     0.001 A 
HETATM   20  C           1     -25.380  -6.637 -18.861  0.00  0.00     0.007 A 
ENDBRANCH  14  15
ENDBRANCH   1  14
TORSDOF 6
ENDMDL
MODEL 4
REMARK VINA RESULT:      -6.2      3.503      5.847
REMARK  6 active torsions:
REMARK  status: ('A' for Active; 'I' for Inactive)
REMARK    1  A    between atoms: C_4  and  C_19 
REMARK    2  A    between atoms: C_4  and  N_20 
REMARK    3  A    between atoms: C_5  and  C_14 
REMARK    4  A    between atoms: N_8  and  C_14 
REMARK       I    between atoms: N_8  and  C_19 
REMARK    5  A    between atoms: C_12  and  C_13 
REMARK    6  A    between atoms: C_13  and  C_14 
ROOT
HETATM    1  C           1     -21.534  -5.484  -6.959  0.00  0.00     0.189 C 
ENDROOT
BRANCH   1   2
HETATM    2  C           1     -20.047  -5.589  -6.722  0.00  0.00     0.197 C 
HETATM    3  O           1     -19.455  -6.668  -6.941  0.00  0.00    -0.646 OA
HETATM    4  O           1     -19.408  -4.598  -6.307  0.00  0.00    -0.646 OA
ENDBRANCH   1   2
BRANCH   1   5
HETATM    5  N           1     -22.237  -5.659  -5.703  0.00  0.00    -0.345 N 
HETATM    6  H           1     -23.121  -5.193  -5.548  0.00  0.00     0.163 HD
HETATM    7  C           1     -21.702  -6.454  -4.725  0.00  0.00     0.243 C 
HETATM    8  O           1     -20.961  -5.979  -3.897  0.00  0.00    -0.272 OA
BRANCH   7   9
HETATM    9  C           1     -22.037  -7.924  -4.681  0.00  0.00     0.332 C 
BRANCH   9  10
HETATM   10  N           1     -21.018  -8.694  -5.467  0.00  0.00    -0.071 N 
HETATM   11  H           1     -21.118  -8.471  -6.483  0.00  0.00     0.274 HD
HETATM   12  H           1     -21.165  -9.718  -5.319  0.00  0.00     0.274 HD
HETATM   13  H           1     -20.059  -8.430  -5.146  0.00  0.00     0.274 HD
ENDBRANCH   9  10
ENDBRANCH   7   9
ENDBRANCH   1   5
BRANCH   1  14
HETATM   14  C           1     -21.860  -4.111  -7.534  0.00  0.00     0.074 C 
BRANCH  14  15
HETATM   15  C           1     -21.839  -4.179  -9.029  0.00  0.00    -0.056 A 
HETATM   16  C           1     -23.003  -4.495  -9.730  0.00  0.00     0.007 A 
HETATM   17  C           1     -22.983  -4.559 -11.124  0.00  0.00     0.001 A 
HETATM   18  C           1     -21.799  -4.308 -11.816  0.00  0.00     0.000 A 
HETATM   19  C           1     -20.634  -3.994 -11.116  0.00  0.00     0.001 A 
HETATM   20  C           1     -20.654  -3.929  -9.723  0.00  0.00     0.007 A 
ENDBRANCH  14  15
ENDBRANCH   1  14
TORSDOF 6
ENDMDL
MODEL 5
REMARK VINA RESULT:      -6.2      9.514     11.488
REMARK  6 active torsions:
REMARK  status: ('A' for Active; 'I' for Inactive)
REMARK    1  A    between atoms: C_4  and  C_19 
REMARK    2  A    between atoms: C_4  and  N_20 
REMARK    3  A    between atoms: C_5  and  C_14 
REMARK    4  A    between atoms: N_8  and  C_14 
REMARK       I    between atoms: N_8  and  C_19 
REMARK    5  A    between atoms: C_12  and  C_13 
REMARK    6  A    between atoms: C_13  and  C_14 
ROOT
HETATM    1  C           1     -26.579  -6.223 -17.665  0.00  0.00     0.189 C 
ENDROOT
BRANCH   1   2
HETATM    2  C           1     -26.900  -6.290 -16.191  0.00  0.00     0.197 C 
HETATM    3  O           1     -26.814  -7.378 -15.582  0.00  0.00    -0.646 OA
HETATM    4  O           1     -27.252  -5.257 -15.581  0.00  0.00    -0.646 OA
ENDBRANCH   1   2
BRANCH   1   5
HETATM    5  N           1     -25.496  -7.140 -17.964  0.00  0.00    -0.345 N 
HETATM    6  H           1     -25.348  -7.955 -17.383  0.00  0.00     0.163 HD
HETATM    7  C           1     -24.674  -6.902 -19.033  0.00  0.00     0.243 C 
HETATM    8  O           1     -23.673  -6.242 -18.890  0.00  0.00    -0.272 OA
BRANCH   7   9
HETATM    9  C           1     -25.020  -7.463 -20.390  0.00  0.00     0.332 C 
BRANCH   9  10
HETATM   10  N           1     -23.977  -8.461 -20.800  0.00  0.00    -0.071 N 
HETATM   11  H           1     -23.034  -8.120 -20.509  0.00  0.00     0.274 HD
HETATM   12  H           1     -23.999  -8.580 -21.839  0.00  0.00     0.274 HD
HETATM   13  H           1     -24.173  -9.378 -20.340  0.00  0.00     0.274 HD
ENDBRANCH   9  10
ENDBRANCH   7   9
ENDBRANCH   1   5
BRANCH   1  14
HETATM   14  C           1     -27.811  -6.613 -18.471  0.00  0.00     0.074 C 
BRANCH  14  15
HETATM   15  C           1     -28.984  -5.806 -18.011  0.00  0.00    -0.056 A 
HETATM   16  C           1     -30.048  -6.431 -17.360  0.00  0.00     0.007 A 
HETATM   17  C           1     -31.143  -5.679 -16.931  0.00  0.00     0.001 A 
HETATM   18  C           1     -31.173  -4.303 -17.154  0.00  0.00     0.000 A 
HETATM   19  C           1     -30.110  -3.677 -17.805  0.00  0.00     0.001 A 
HETATM   20  C           1     -29.016  -4.429 -18.233  0.00  0.00     0.007 A 
ENDBRANCH  14  15
ENDBRANCH   1  14
TORSDOF 6
ENDMDL
MODEL 6
REMARK VINA RESULT:      -6.2     11.818     14.310
REMARK  6 active torsions:
REMARK  status: ('A' for Active; 'I' for Inactive)
REMARK    1  A    between atoms: C_4  and  C_19 
REMARK    2  A    between atoms: C_4  and  N_20 
REMARK    3  A    between atoms: C_5  and  C_14 
REMARK    4  A    between atoms: N_8  and  C_14 
REMARK       I    between atoms: N_8  and  C_19 
REMARK    5  A    between atoms: C_12  and  C_13 
REMARK    6  A    between atoms: C_13  and  C_14 
ROOT
HETATM    1  C           1     -34.524  -1.717 -11.234  0.00  0.00     0.189 C 
ENDROOT
BRANCH   1   2
HETATM    2  C           1     -35.811  -1.650 -10.449  0.00  0.00     0.197 C 
HETATM    3  O           1     -35.994  -0.726  -9.628  0.00  0.00    -0.646 OA
HETATM    4  O           1     -36.694  -2.518 -10.621  0.00  0.00    -0.646 OA
ENDBRANCH   1   2
BRANCH   1   5
HETATM    5  N           1     -33.620  -2.656 -10.599  0.00  0.00    -0.345 N 
HETATM    6  H           1     -33.160  -2.409  -9.732  0.00  0.00     0.163 HD
HETATM    7  C           1     -33.388  -3.877 -11.172  0.00  0.00     0.243 C 
HETATM    8  O           1     -32.487  -4.011 -11.965  0.00  0.00    -0.272 OA
BRANCH   7   9
HETATM    9  C           1     -34.259  -5.056 -10.814  0.00  0.00     0.332 C 
BRANCH   9  10
HETATM   10  N           1     -34.559  -5.851 -12.050  0.00  0.00    -0.071 N 
HETATM   11  H           1     -34.438  -6.869 -11.848  0.00  0.00     0.274 HD
HETATM   12  H           1     -33.904  -5.568 -12.814  0.00  0.00     0.274 HD
HETATM   13  H           1     -35.543  -5.671 -12.349  0.00  0.00     0.274 HD
ENDBRANCH   9  10
ENDBRANCH   7   9
ENDBRANCH   1   5
BRANCH   1  14
HETATM   14  C           1     -34.819  -2.180 -12.655  0.00  0.00     0.074 C 
BRANCH  14  15
HETATM   15  C           1     -35.039  -0.988 -13.532  0.00  0.00    -0.056 A 
HETATM   16  C           1     -34.633   0.276 -13.105  0.00  0.00     0.007 A 
HETATM   17  C           1     -34.839   1.389 -13.923  0.00  0.00     0.001 A 
HETATM   18  C           1     -35.450   1.235 -15.166  0.00  0.00     0.000 A 
HETATM   19  C           1     -35.857  -0.029 -15.594  0.00  0.00     0.001 A 
HETATM   20  C           1     -35.651  -1.140 -14.777  0.00  0.00     0.007 A 
ENDBRANCH  14  15
ENDBRANCH   1  14
TORSDOF 6
ENDMDL
MODEL 7
REMARK VINA RESULT:      -6.0      4.132      6.574
REMARK  6 active torsions:
REMARK  status: ('A' for Active; 'I' for Inactive)
REMARK    1  A    between atoms: C_4  and  C_19 
REMARK    2  A    between atoms: C_4  and  N_20 
REMARK    3  A    between atoms: C_5  and  C_14 
REMARK    4  A    between atoms: N_8  and  C_14 
REMARK       I    between atoms: N_8  and  C_19 
REMARK    5  A    between atoms: C_12  and  C_13 
REMARK    6  A    between atoms: C_13  and  C_14 
ROOT
HETATM    1  C           1     -21.055  -5.788  -5.218  0.00  0.00     0.189 C 
ENDROOT
BRANCH   1   2
HETATM    2  C           1     -20.636  -7.077  -5.883  0.00  0.00     0.197 C 
HETATM    3  O           1     -19.438  -7.261  -6.189  0.00  0.00    -0.646 OA
HETATM    4  O           1     -21.487  -7.960  -6.127  0.00  0.00    -0.646 OA
ENDBRANCH   1   2
BRANCH   1   5
HETATM    5  N           1     -20.615  -5.793  -3.837  0.00  0.00    -0.345 N 
HETATM    6  H           1     -19.883  -5.162  -3.536  0.00  0.00     0.163 HD
HETATM    7  C           1     -21.189  -6.652  -2.939  0.00  0.00     0.243 C 
HETATM    8  O           1     -20.723  -7.755  -2.775  0.00  0.00    -0.272 OA
BRANCH   7   9
HETATM    9  C           1     -22.403  -6.222  -2.154  0.00  0.00     0.332 C 
BRANCH   9  10
HETATM   10  N           1     -22.407  -6.908  -0.820  0.00  0.00    -0.071 N 
HETATM   11  H           1     -23.380  -7.207  -0.584  0.00  0.00     0.274 HD
HETATM   12  H           1     -22.059  -6.248  -0.088  0.00  0.00     0.274 HD
HETATM   13  H           1     -21.785  -7.746  -0.858  0.00  0.00     0.274 HD
ENDBRANCH   9  10
ENDBRANCH   7   9
ENDBRANCH   1   5
BRANCH   1  14
HETATM   14  C           1     -20.420  -4.611  -5.948  0.00  0.00     0.074 C 
BRANCH  14  15
HETATM   15  C           1     -21.052  -4.461  -7.296  0.00  0.00    -0.056 A 
HETATM   16  C           1     -22.433  -4.300  -7.405  0.00  0.00     0.007 A 
HETATM   17  C           1     -23.022  -4.161  -8.663  0.00  0.00     0.001 A 
HETATM   18  C           1     -22.230  -4.183  -9.810  0.00  0.00     0.000 A 
HETATM   19  C           1     -20.849  -4.345  -9.701  0.00  0.00     0.001 A 
HETATM   20  C           1     -20.260  -4.484  -8.445  0.00  0.00     0.007 A 
ENDBRANCH  14  15
ENDBRANCH   1  14
TORSDOF 6
ENDMDL
MODEL 8
REMARK VINA RESULT:      -6.0     12.899     14.265
REMARK  6 active torsions:
REMARK  status: ('A' for Active; 'I' for Inactive)
REMARK    1  A    between atoms: C_4  and  C_19 
REMARK    2  A    between atoms: C_4  and  N_20 
REMARK    3  A    between atoms: C_5  and  C_14 
REMARK    4  A    between atoms: N_8  and  C_14 
REMARK       I    between atoms: N_8  and  C_19 
REMARK    5  A    between atoms: C_12  and  C_13 
REMARK    6  A    between atoms: C_13  and  C_14 
ROOT
HETATM    1  C           1     -35.003  -0.903 -11.669  0.00  0.00     0.189 C 
ENDROOT
BRANCH   1   2
HETATM    2  C           1     -35.407  -0.744 -13.115  0.00  0.00     0.197 C 
HETATM    3  O           1     -36.460  -1.273 -13.531  0.00  0.00    -0.646 OA
HETATM    4  O           1     -34.688  -0.083 -13.895  0.00  0.00    -0.646 OA
ENDBRANCH   1   2
BRANCH   1   5
HETATM    5  N           1     -36.048  -1.607 -10.951  0.00  0.00    -0.345 N 
HETATM    6  H           1     -36.024  -2.616 -10.883  0.00  0.00     0.163 HD
HETATM    7  C           1     -37.069  -0.906 -10.368  0.00  0.00     0.243 C 
HETATM    8  O           1     -38.075  -0.670 -10.993  0.00  0.00    -0.272 OA
BRANCH   7   9
HETATM    9  C           1     -36.936  -0.427  -8.944  0.00  0.00     0.332 C 
BRANCH   9  10
HETATM   10  N           1     -36.487   1.004  -8.935  0.00  0.00    -0.071 N 
HETATM   11  H           1     -36.308   1.320  -9.914  0.00  0.00     0.274 HD
HETATM   12  H           1     -35.609   1.090  -8.375  0.00  0.00     0.274 HD
HETATM   13  H           1     -37.232   1.600  -8.509  0.00  0.00     0.274 HD
ENDBRANCH   9  10
ENDBRANCH   7   9
ENDBRANCH   1   5
BRANCH   1  14
HETATM   14  C           1     -33.708  -1.702 -11.589  0.00  0.00     0.074 C 
BRANCH  14  15
HETATM   15  C           1     -34.025  -3.164 -11.562  0.00  0.00    -0.056 A 
HETATM   16  C           1     -34.418  -3.814 -12.732  0.00  0.00     0.007 A 
HETATM   17  C           1     -34.714  -5.178 -12.707  0.00  0.00     0.001 A 
HETATM   18  C           1     -34.617  -5.890 -11.513  0.00  0.00     0.000 A 
HETATM   19  C           1     -34.225  -5.241 -10.342  0.00  0.00     0.001 A 
HETATM   20  C           1     -33.929  -3.878 -10.367  0.00  0.00     0.007 A 
ENDBRANCH  14  15
ENDBRANCH   1  14
TORSDOF 6
ENDMDL
MODEL 9
REMARK VINA RESULT:      -5.9      5.438      7.441
REMARK  6 active torsions:
REMARK  status: ('A' for Active; 'I' for Inactive)
REMARK    1  A    between atoms: C_4  and  C_19 
REMARK    2  A    between atoms: C_4  and  N_20 
REMARK    3  A    between atoms: C_5  and  C_14 
REMARK    4  A    between atoms: N_8  and  C_14 
REMARK       I    between atoms: N_8  and  C_19 
REMARK    5  A    between atoms: C_12  and  C_13 
REMARK    6  A    between atoms: C_13  and  C_14 
ROOT
HETATM    1  C           1     -21.038  -7.875  -4.185  0.00  0.00     0.189 C 
ENDROOT
BRANCH   1   2
HETATM    2  C           1     -21.720  -7.032  -5.235  0.00  0.00     0.197 C 
HETATM    3  O           1     -21.319  -7.064  -6.418  0.00  0.00    -0.646 OA
HETATM    4  O           1     -22.685  -6.303  -4.921  0.00  0.00    -0.646 OA
ENDBRANCH   1   2
BRANCH   1   5
HETATM    5  N           1     -19.702  -8.217  -4.633  0.00  0.00    -0.345 N 
HETATM    6  H           1     -19.028  -7.485  -4.818  0.00  0.00     0.163 HD
HETATM    7  C           1     -19.353  -9.529  -4.806  0.00  0.00     0.243 C 
HETATM    8  O           1     -19.522 -10.063  -5.877  0.00  0.00    -0.272 OA
BRANCH   7   9
HETATM    9  C           1     -18.758 -10.309  -3.660  0.00  0.00     0.332 C 
BRANCH   9  10
HETATM   10  N           1     -17.983  -9.382  -2.771  0.00  0.00    -0.071 N 
HETATM   11  H           1     -17.902  -9.799  -1.817  0.00  0.00     0.274 HD
HETATM   12  H           1     -18.479  -8.463  -2.708  0.00  0.00     0.274 HD
HETATM   13  H           1     -17.029  -9.236  -3.169  0.00  0.00     0.274 HD
ENDBRANCH   9  10
ENDBRANCH   7   9
ENDBRANCH   1   5
BRANCH   1  14
HETATM   14  C           1     -20.951  -7.091  -2.882  0.00  0.00     0.074 C 
BRANCH  14  15
HETATM   15  C           1     -21.698  -7.819  -1.810  0.00  0.00    -0.056 A 
HETATM   16  C           1     -22.286  -7.108  -0.763  0.00  0.00     0.007 A 
HETATM   17  C           1     -22.983  -7.787   0.237  0.00  0.00     0.001 A 
HETATM   18  C           1     -23.091  -9.177   0.191  0.00  0.00     0.000 A 
HETATM   19  C           1     -22.502  -9.888  -0.855  0.00  0.00     0.001 A 
HETATM   20  C           1     -21.807  -9.210  -1.855  0.00  0.00     0.007 A 
ENDBRANCH  14  15
ENDBRANCH   1  14
TORSDOF 6
ENDMDL
