MODEL 1
REMARK VINA RESULT:      -5.6      0.000      0.000
REMARK  10 active torsions:
REMARK  status: ('A' for Active; 'I' for Inactive)
REMARK    1  A    between atoms: N_1  and  C_11 
REMARK       I    between atoms: N_1  and  C_4 
REMARK    2  A    between atoms: C_4  and  C_8 
REMARK    3  A    between atoms: C_5  and  S_13 
REMARK    4  A    between atoms: C_5  and  C_6 
REMARK    5  A    between atoms: C_6  and  C_11 
REMARK    6  A    between atoms: C_8  and  C_19 
REMARK    7  A    between atoms: C_8  and  N_21 
REMARK    8  A    between atoms: C_11  and  C_12 
REMARK    9  A    between atoms: S_16  and  C_17 
REMARK   10  A    between atoms: C_17  and  C_19 
ROOT
HETATM    1  N           1     -35.026  -1.827 -12.302  0.00  0.00    -0.345 N 
HETATM    2  C           1     -34.121  -2.596 -11.622  0.00  0.00     0.249 C 
HETATM    3  H           1     -35.631  -2.251 -12.993  0.00  0.00     0.163 HD
HETATM    4  O           1     -33.398  -2.089 -10.797  0.00  0.00    -0.271 OA
ENDROOT
BRANCH   2   5
HETATM    5  C           1     -34.024  -4.075 -11.903  0.00  0.00     0.275 C 
BRANCH   5   6
HETATM    6  C           1     -34.272  -4.854 -10.618  0.00  0.00     0.053 C 
BRANCH   6   7
HETATM    7  C           1     -33.852  -6.305 -10.814  0.00  0.00     0.076 C 
BRANCH   7   8
HETATM    8  S           1     -34.901  -7.384  -9.801  0.00  0.00    -0.173 SA
HETATM    9  C           1     -33.817  -8.837  -9.868  0.00  0.00     0.089 C 
ENDBRANCH   7   8
ENDBRANCH   6   7
ENDBRANCH   5   6
BRANCH   5  10
HETATM   10  N           1     -32.655  -4.396 -12.425  0.00  0.00    -0.066 N 
HETATM   11  H           1     -32.687  -4.458 -13.468  0.00  0.00     0.275 HD
HETATM   12  H           1     -31.989  -3.644 -12.140  0.00  0.00     0.275 HD
HETATM   13  H           1     -32.337  -5.311 -12.031  0.00  0.00     0.275 HD
ENDBRANCH   5  10
ENDBRANCH   2   5
BRANCH   1  14
HETATM   14  C           1     -35.119  -0.406 -12.032  0.00  0.00     0.186 C 
BRANCH  14  15
HETATM   15  C           1     -35.199   0.356 -13.348  0.00  0.00     0.046 C 
BRANCH  15  16
HETATM   16  C           1     -35.537  -0.611 -14.476  0.00  0.00     0.076 C 
BRANCH  16  17
HETATM   17  S           1     -36.391   0.284 -15.804  0.00  0.00    -0.173 SA
HETATM   18  C           1     -38.075  -0.166 -15.296  0.00  0.00     0.089 C 
ENDBRANCH  16  17
ENDBRANCH  15  16
ENDBRANCH  14  15
BRANCH  14  19
HETATM   19  C           1     -36.357  -0.130 -11.214  0.00  0.00     0.196 C 
HETATM   20  O           1     -36.354   0.789 -10.367  0.00  0.00    -0.646 OA
HETATM   21  O           1     -37.385  -0.822 -11.383  0.00  0.00    -0.646 OA
ENDBRANCH  14  19
ENDBRANCH   1  14
TORSDOF 10
ENDMDL
MODEL 2
REMARK VINA RESULT:      -5.5      4.387      6.437
REMARK  10 active torsions:
REMARK  status: ('A' for Active; 'I' for Inactive)
REMARK    1  A    between atoms: N_1  and  C_11 
REMARK       I    between atoms: N_1  and  C_4 
REMARK    2  A    between atoms: C_4  and  C_8 
REMARK    3  A    between atoms: C_5  and  S_13 
REMARK    4  A    between atoms: C_5  and  C_6 
REMARK    5  A    between atoms: C_6  and  C_11 
REMARK    6  A    between atoms: C_8  and  C_19 
REMARK    7  A    between atoms: C_8  and  N_21 
REMARK    8  A    between atoms: C_11  and  C_12 
REMARK    9  A    between atoms: S_16  and  C_17 
REMARK   10  A    between atoms: C_17  and  C_19 
ROOT
HETATM    1  N           1     -33.426  -3.920 -14.317  0.00  0.00    -0.345 N 
HETATM    2  C           1     -33.983  -4.496 -15.427  0.00  0.00     0.249 C 
HETATM    3  H           1     -32.543  -3.432 -14.391  0.00  0.00     0.163 HD
HETATM    4  O           1     -35.037  -5.080 -15.339  0.00  0.00    -0.271 OA
ENDROOT
BRANCH   2   5
HETATM    5  C           1     -33.280  -4.404 -16.759  0.00  0.00     0.275 C 
BRANCH   5   6
HETATM    6  C           1     -31.796  -4.691 -16.572  0.00  0.00     0.053 C 
BRANCH   6   7
HETATM    7  C           1     -30.983  -3.760 -17.462  0.00  0.00     0.076 C 
BRANCH   7   8
HETATM    8  S           1     -29.520  -4.636 -18.082  0.00  0.00    -0.173 SA
HETATM    9  C           1     -28.341  -3.913 -16.907  0.00  0.00     0.089 C 
ENDBRANCH   7   8
ENDBRANCH   6   7
ENDBRANCH   5   6
BRANCH   5  10
HETATM   10  N           1     -33.455  -3.024 -17.321  0.00  0.00    -0.066 N 
HETATM   11  H           1     -34.438  -2.908 -17.656  0.00  0.00     0.275 HD
HETATM   12  H           1     -33.254  -2.318 -16.578  0.00  0.00     0.275 HD
HETATM   13  H           1     -32.796  -2.887 -18.120  0.00  0.00     0.275 HD
ENDBRANCH   5  10
ENDBRANCH   2   5
BRANCH   1  14
HETATM   14  C           1     -34.101  -4.009 -13.037  0.00  0.00     0.186 C 
BRANCH  14  15
HETATM   15  C           1     -33.070  -4.201 -11.933  0.00  0.00     0.046 C 
BRANCH  15  16
HETATM   16  C           1     -33.181  -5.614 -11.374  0.00  0.00     0.076 C 
BRANCH  16  17
HETATM   17  S           1     -34.687  -5.752 -10.370  0.00  0.00    -0.173 SA
HETATM   18  C           1     -34.634  -7.556 -10.179  0.00  0.00     0.089 C 
ENDBRANCH  16  17
ENDBRANCH  15  16
ENDBRANCH  14  15
BRANCH  14  19
HETATM   19  C           1     -34.874  -2.737 -12.789  0.00  0.00     0.196 C 
HETATM   20  O           1     -35.716  -2.688 -11.865  0.00  0.00    -0.646 OA
HETATM   21  O           1     -34.674  -1.733 -13.507  0.00  0.00    -0.646 OA
ENDBRANCH  14  19
ENDBRANCH   1  14
TORSDOF 10
ENDMDL
MODEL 3
REMARK VINA RESULT:      -5.4      2.600      3.462
REMARK  10 active torsions:
REMARK  status: ('A' for Active; 'I' for Inactive)
REMARK    1  A    between atoms: N_1  and  C_11 
REMARK       I    between atoms: N_1  and  C_4 
REMARK    2  A    between atoms: C_4  and  C_8 
REMARK    3  A    between atoms: C_5  and  S_13 
REMARK    4  A    between atoms: C_5  and  C_6 
REMARK    5  A    between atoms: C_6  and  C_11 
REMARK    6  A    between atoms: C_8  and  C_19 
REMARK    7  A    between atoms: C_8  and  N_21 
REMARK    8  A    between atoms: C_11  and  C_12 
REMARK    9  A    between atoms: S_16  and  C_17 
REMARK   10  A    between atoms: C_17  and  C_19 
ROOT
HETATM    1  N           1     -35.282  -0.971 -12.057  0.00  0.00    -0.345 N 
HETATM    2  C           1     -34.493  -2.059 -12.314  0.00  0.00     0.249 C 
HETATM    3  H           1     -35.105  -0.401 -11.240  0.00  0.00     0.163 HD
HETATM    4  O           1     -34.703  -2.741 -13.289  0.00  0.00    -0.271 OA
ENDROOT
BRANCH   2   5
HETATM    5  C           1     -33.361  -2.409 -11.379  0.00  0.00     0.275 C 
BRANCH   5   6
HETATM    6  C           1     -33.081  -3.904 -11.456  0.00  0.00     0.053 C 
BRANCH   6   7
HETATM    7  C           1     -34.018  -4.645 -10.511  0.00  0.00     0.076 C 
BRANCH   7   8
HETATM    8  S           1     -34.673  -6.121 -11.338  0.00  0.00    -0.173 SA
HETATM    9  C           1     -34.801  -7.146  -9.847  0.00  0.00     0.089 C 
ENDBRANCH   7   8
ENDBRANCH   6   7
ENDBRANCH   5   6
BRANCH   5  10
HETATM   10  N           1     -33.742  -2.044  -9.975  0.00  0.00    -0.066 N 
HETATM   11  H           1     -34.208  -1.108  -9.974  0.00  0.00     0.275 HD
HETATM   12  H           1     -34.399  -2.761  -9.595  0.00  0.00     0.275 HD
HETATM   13  H           1     -32.884  -2.006  -9.379  0.00  0.00     0.275 HD
ENDBRANCH   5  10
ENDBRANCH   2   5
BRANCH   1  14
HETATM   14  C           1     -36.369  -0.635 -12.955  0.00  0.00     0.186 C 
BRANCH  14  15
HETATM   15  C           1     -37.547  -0.104 -12.149  0.00  0.00     0.046 C 
BRANCH  15  16
HETATM   16  C           1     -37.439  -0.593 -10.710  0.00  0.00     0.076 C 
BRANCH  16  17
HETATM   17  S           1     -37.354   0.834  -9.591  0.00  0.00    -0.173 SA
HETATM   18  C           1     -37.873  -0.054  -8.096  0.00  0.00     0.089 C 
ENDBRANCH  16  17
ENDBRANCH  15  16
ENDBRANCH  14  15
BRANCH  14  19
HETATM   19  C           1     -35.907   0.421 -13.929  0.00  0.00     0.196 C 
HETATM   20  O           1     -36.516   0.584 -15.009  0.00  0.00    -0.646 OA
HETATM   21  O           1     -34.916   1.133 -13.656  0.00  0.00    -0.646 OA
ENDBRANCH  14  19
ENDBRANCH   1  14
TORSDOF 10
ENDMDL
MODEL 4
REMARK VINA RESULT:      -5.2      1.631      6.814
REMARK  10 active torsions:
REMARK  status: ('A' for Active; 'I' for Inactive)
REMARK    1  A    between atoms: N_1  and  C_11 
REMARK       I    between atoms: N_1  and  C_4 
REMARK    2  A    between atoms: C_4  and  C_8 
REMARK    3  A    between atoms: C_5  and  S_13 
REMARK    4  A    between atoms: C_5  and  C_6 
REMARK    5  A    between atoms: C_6  and  C_11 
REMARK    6  A    between atoms: C_8  and  C_19 
REMARK    7  A    between atoms: C_8  and  N_21 
REMARK    8  A    between atoms: C_11  and  C_12 
REMARK    9  A    between atoms: S_16  and  C_17 
REMARK   10  A    between atoms: C_17  and  C_19 
ROOT
HETATM    1  N           1     -35.269  -2.906 -11.705  0.00  0.00    -0.345 N 
HETATM    2  C           1     -35.141  -1.654 -11.168  0.00  0.00     0.249 C 
HETATM    3  H           1     -36.032  -3.109 -12.338  0.00  0.00     0.163 HD
HETATM    4  O           1     -34.230  -1.411 -10.413  0.00  0.00    -0.271 OA
ENDROOT
BRANCH   2   5
HETATM    5  C           1     -36.138  -0.576 -11.519  0.00  0.00     0.275 C 
BRANCH   5   6
HETATM    6  C           1     -35.641   0.200 -12.732  0.00  0.00     0.053 C 
BRANCH   6   7
HETATM    7  C           1     -36.609   0.003 -13.892  0.00  0.00     0.076 C 
BRANCH   7   8
HETATM    8  S           1     -35.887   0.690 -15.408  0.00  0.00    -0.173 SA
HETATM    9  C           1     -35.955  -0.844 -16.375  0.00  0.00     0.089 C 
ENDBRANCH   7   8
ENDBRANCH   6   7
ENDBRANCH   5   6
BRANCH   5  10
HETATM   10  N           1     -36.292   0.359 -10.356  0.00  0.00    -0.066 N 
HETATM   11  H           1     -35.504   0.211  -9.685  0.00  0.00     0.275 HD
HETATM   12  H           1     -36.277   1.345 -10.698  0.00  0.00     0.275 HD
HETATM   13  H           1     -37.200   0.170  -9.874  0.00  0.00     0.275 HD
ENDBRANCH   5  10
ENDBRANCH   2   5
BRANCH   1  14
HETATM   14  C           1     -34.312  -3.941 -11.368  0.00  0.00     0.186 C 
BRANCH  14  15
HETATM   15  C           1     -35.037  -5.271 -11.209  0.00  0.00     0.046 C 
BRANCH  15  16
HETATM   16  C           1     -34.066  -6.319 -10.679  0.00  0.00     0.076 C 
BRANCH  16  17
HETATM   17  S           1     -34.973  -7.534  -9.680  0.00  0.00    -0.173 SA
HETATM   18  C           1     -33.818  -8.909  -9.944  0.00  0.00     0.089 C 
ENDBRANCH  16  17
ENDBRANCH  15  16
ENDBRANCH  14  15
BRANCH  14  19
HETATM   19  C           1     -33.287  -4.055 -12.471  0.00  0.00     0.196 C 
HETATM   20  O           1     -33.629  -3.884 -13.661  0.00  0.00    -0.646 OA
HETATM   21  O           1     -32.098  -4.322 -12.194  0.00  0.00    -0.646 OA
ENDBRANCH  14  19
ENDBRANCH   1  14
TORSDOF 10
ENDMDL
MODEL 5
REMARK VINA RESULT:      -5.1     13.883     15.875
REMARK  10 active torsions:
REMARK  status: ('A' for Active; 'I' for Inactive)
REMARK    1  A    between atoms: N_1  and  C_11 
REMARK       I    between atoms: N_1  and  C_4 
REMARK    2  A    between atoms: C_4  and  C_8 
REMARK    3  A    between atoms: C_5  and  S_13 
REMARK    4  A    between atoms: C_5  and  C_6 
REMARK    5  A    between atoms: C_6  and  C_11 
REMARK    6  A    between atoms: C_8  and  C_19 
REMARK    7  A    between atoms: C_8  and  N_21 
REMARK    8  A    between atoms: C_11  and  C_12 
REMARK    9  A    between atoms: S_16  and  C_17 
REMARK   10  A    between atoms: C_17  and  C_19 
ROOT
HETATM    1  N           1     -21.039  -5.333  -5.044  0.00  0.00    -0.345 N 
HETATM    2  C           1     -21.443  -6.373  -4.251  0.00  0.00     0.249 C 
HETATM    3  H           1     -20.603  -4.521  -4.628  0.00  0.00     0.163 HD
HETATM    4  O           1     -21.963  -7.344  -4.748  0.00  0.00    -0.271 OA
ENDROOT
BRANCH   2   5
HETATM    5  C           1     -21.238  -6.308  -2.758  0.00  0.00     0.275 C 
BRANCH   5   6
HETATM    6  C           1     -20.803  -7.674  -2.244  0.00  0.00     0.053 C 
BRANCH   6   7
HETATM    7  C           1     -21.826  -8.188  -1.238  0.00  0.00     0.076 C 
BRANCH   7   8
HETATM    8  S           1     -21.958  -9.992  -1.373  0.00  0.00    -0.173 SA
HETATM    9  C           1     -23.389 -10.170  -0.272  0.00  0.00     0.089 C 
ENDBRANCH   7   8
ENDBRANCH   6   7
ENDBRANCH   5   6
BRANCH   5  10
HETATM   10  N           1     -22.524  -5.912  -2.095  0.00  0.00    -0.066 N 
HETATM   11  H           1     -23.328  -6.184  -2.705  0.00  0.00     0.275 HD
HETATM   12  H           1     -22.606  -6.398  -1.174  0.00  0.00     0.275 HD
HETATM   13  H           1     -22.536  -4.877  -1.945  0.00  0.00     0.275 HD
ENDBRANCH   5  10
ENDBRANCH   2   5
BRANCH   1  14
HETATM   14  C           1     -21.235  -5.396  -6.479  0.00  0.00     0.186 C 
BRANCH  14  15
HETATM   15  C           1     -21.774  -4.061  -6.976  0.00  0.00     0.046 C 
BRANCH  15  16
HETATM   16  C           1     -23.096  -4.285  -7.700  0.00  0.00     0.076 C 
BRANCH  16  17
HETATM   17  S           1     -22.890  -3.914  -9.465  0.00  0.00    -0.173 SA
HETATM   18  C           1     -24.607  -3.410  -9.764  0.00  0.00     0.089 C 
ENDBRANCH  16  17
ENDBRANCH  15  16
ENDBRANCH  14  15
BRANCH  14  19
HETATM   19  C           1     -19.917  -5.690  -7.153  0.00  0.00     0.196 C 
HETATM   20  O           1     -19.317  -4.785  -7.773  0.00  0.00    -0.646 OA
HETATM   21  O           1     -19.426  -6.838  -7.093  0.00  0.00    -0.646 OA
ENDBRANCH  14  19
ENDBRANCH   1  14
TORSDOF 10
ENDMDL
MODEL 6
REMARK VINA RESULT:      -4.8     13.900     16.886
REMARK  10 active torsions:
REMARK  status: ('A' for Active; 'I' for Inactive)
REMARK    1  A    between atoms: N_1  and  C_11 
REMARK       I    between atoms: N_1  and  C_4 
REMARK    2  A    between atoms: C_4  and  C_8 
REMARK    3  A    between atoms: C_5  and  S_13 
REMARK    4  A    between atoms: C_5  and  C_6 
REMARK    5  A    between atoms: C_6  and  C_11 
REMARK    6  A    between atoms: C_8  and  C_19 
REMARK    7  A    between atoms: C_8  and  N_21 
REMARK    8  A    between atoms: C_11  and  C_12 
REMARK    9  A    between atoms: S_16  and  C_17 
REMARK   10  A    between atoms: C_17  and  C_19 
ROOT
HETATM    1  N           1     -20.898  -6.745  -4.745  0.00  0.00    -0.345 N 
HETATM    2  C           1     -21.503  -5.858  -5.593  0.00  0.00     0.249 C 
HETATM    3  H           1     -19.892  -6.856  -4.761  0.00  0.00     0.163 HD
HETATM    4  O           1     -22.703  -5.725  -5.573  0.00  0.00    -0.271 OA
ENDROOT
BRANCH   2   5
HETATM    5  C           1     -20.670  -5.046  -6.555  0.00  0.00     0.275 C 
BRANCH   5   6
HETATM    6  C           1     -21.547  -3.999  -7.228  0.00  0.00     0.053 C 
BRANCH   6   7
HETATM    7  C           1     -21.868  -4.442  -8.650  0.00  0.00     0.076 C 
BRANCH   7   8
HETATM    8  S           1     -23.586  -4.013  -9.047  0.00  0.00    -0.173 SA
HETATM    9  C           1     -23.638  -4.862 -10.650  0.00  0.00     0.089 C 
ENDBRANCH   7   8
ENDBRANCH   6   7
ENDBRANCH   5   6
BRANCH   5  10
HETATM   10  N           1     -20.086  -5.952  -7.598  0.00  0.00    -0.066 N 
HETATM   11  H           1     -19.055  -6.039  -7.445  0.00  0.00     0.275 HD
HETATM   12  H           1     -20.529  -6.895  -7.528  0.00  0.00     0.275 HD
HETATM   13  H           1     -20.265  -5.553  -8.547  0.00  0.00     0.275 HD
ENDBRANCH   5  10
ENDBRANCH   2   5
BRANCH   1  14
HETATM   14  C           1     -21.698  -7.525  -3.820  0.00  0.00     0.186 C 
BRANCH  14  15
HETATM   15  C           1     -21.152  -8.945  -3.750  0.00  0.00     0.046 C 
BRANCH  15  16
HETATM   16  C           1     -20.894  -9.460  -5.161  0.00  0.00     0.076 C 
BRANCH  16  17
HETATM   17  S           1     -19.323 -10.367  -5.197  0.00  0.00    -0.173 SA
HETATM   18  C           1     -18.499  -9.389  -3.909  0.00  0.00     0.089 C 
ENDBRANCH  16  17
ENDBRANCH  15  16
ENDBRANCH  14  15
BRANCH  14  19
HETATM   19  C           1     -21.639  -6.894  -2.450  0.00  0.00     0.196 C 
HETATM   20  O           1     -20.899  -7.383  -1.569  0.00  0.00    -0.646 OA
HETATM   21  O           1     -22.332  -5.885  -2.197  0.00  0.00    -0.646 OA
ENDBRANCH  14  19
ENDBRANCH   1  14
TORSDOF 10
ENDMDL
MODEL 7
REMARK VINA RESULT:      -4.7     13.219     15.866
REMARK  10 active torsions:
REMARK  status: ('A' for Active; 'I' for Inactive)
REMARK    1  A    between atoms: N_1  and  C_11 
REMARK       I    between atoms: N_1  and  C_4 
REMARK    2  A    between atoms: C_4  and  C_8 
REMARK    3  A    between atoms: C_5  and  S_13 
REMARK    4  A    between atoms: C_5  and  C_6 
REMARK    5  A    between atoms: C_6  and  C_11 
REMARK    6  A    between atoms: C_8  and  C_19 
REMARK    7  A    between atoms: C_8  and  N_21 
REMARK    8  A    between atoms: C_11  and  C_12 
REMARK    9  A    between atoms: S_16  and  C_17 
REMARK   10  A    between atoms: C_17  and  C_19 
ROOT
HETATM    1  N           1     -22.306  -5.317  -7.210  0.00  0.00    -0.345 N 
HETATM    2  C           1     -22.483  -4.170  -7.935  0.00  0.00     0.249 C 
HETATM    3  H           1     -22.789  -6.165  -7.479  0.00  0.00     0.163 HD
HETATM    4  O           1     -21.906  -3.158  -7.615  0.00  0.00    -0.271 OA
ENDROOT
BRANCH   2   5
HETATM    5  C           1     -23.399  -4.169  -9.134  0.00  0.00     0.275 C 
BRANCH   5   6
HETATM    6  C           1     -22.758  -3.373 -10.263  0.00  0.00     0.053 C 
BRANCH   6   7
HETATM    7  C           1     -22.182  -4.331 -11.298  0.00  0.00     0.076 C 
BRANCH   7   8
HETATM    8  S           1     -20.429  -3.951 -11.569  0.00  0.00    -0.173 SA
HETATM    9  C           1     -19.809  -4.808 -10.095  0.00  0.00     0.089 C 
ENDBRANCH   7   8
ENDBRANCH   6   7
ENDBRANCH   5   6
BRANCH   5  10
HETATM   10  N           1     -24.709  -3.540  -8.761  0.00  0.00    -0.066 N 
HETATM   11  H           1     -24.537  -2.744  -8.106  0.00  0.00     0.275 HD
HETATM   12  H           1     -25.183  -3.187  -9.622  0.00  0.00     0.275 HD
HETATM   13  H           1     -25.317  -4.251  -8.294  0.00  0.00     0.275 HD
ENDBRANCH   5  10
ENDBRANCH   2   5
BRANCH   1  14
HETATM   14  C           1     -21.426  -5.319  -6.058  0.00  0.00     0.186 C 
BRANCH  14  15
HETATM   15  C           1     -21.921  -6.339  -5.043  0.00  0.00     0.046 C 
BRANCH  15  16
HETATM   16  C           1     -21.292  -6.052  -3.685  0.00  0.00     0.076 C 
BRANCH  16  17
HETATM   17  S           1     -21.388  -7.538  -2.647  0.00  0.00    -0.173 SA
HETATM   18  C           1     -22.258  -6.755  -1.259  0.00  0.00     0.089 C 
ENDBRANCH  16  17
ENDBRANCH  15  16
ENDBRANCH  14  15
BRANCH  14  19
HETATM   19  C           1     -20.027  -5.681  -6.496  0.00  0.00     0.196 C 
HETATM   20  O           1     -19.745  -6.869  -6.765  0.00  0.00    -0.646 OA
HETATM   21  O           1     -19.151  -4.794  -6.587  0.00  0.00    -0.646 OA
ENDBRANCH  14  19
ENDBRANCH   1  14
TORSDOF 10
ENDMDL
MODEL 8
REMARK VINA RESULT:      -4.6     13.664     16.789
REMARK  10 active torsions:
REMARK  status: ('A' for Active; 'I' for Inactive)
REMARK    1  A    between atoms: N_1  and  C_11 
REMARK       I    between atoms: N_1  and  C_4 
REMARK    2  A    between atoms: C_4  and  C_8 
REMARK    3  A    between atoms: C_5  and  S_13 
REMARK    4  A    between atoms: C_5  and  C_6 
REMARK    5  A    between atoms: C_6  and  C_11 
REMARK    6  A    between atoms: C_8  and  C_19 
REMARK    7  A    between atoms: C_8  and  N_21 
REMARK    8  A    between atoms: C_11  and  C_12 
REMARK    9  A    between atoms: S_16  and  C_17 
REMARK   10  A    between atoms: C_17  and  C_19 
ROOT
HETATM    1  N           1     -20.867  -6.546  -4.855  0.00  0.00    -0.345 N 
HETATM    2  C           1     -21.568  -5.680  -5.649  0.00  0.00     0.249 C 
HETATM    3  H           1     -19.855  -6.549  -4.880  0.00  0.00     0.163 HD
HETATM    4  O           1     -22.776  -5.677  -5.620  0.00  0.00    -0.271 OA
ENDROOT
BRANCH   2   5
HETATM    5  C           1     -20.833  -4.729  -6.562  0.00  0.00     0.275 C 
BRANCH   5   6
HETATM    6  C           1     -21.830  -4.028  -7.475  0.00  0.00     0.053 C 
BRANCH   6   7
HETATM    7  C           1     -21.902  -4.762  -8.808  0.00  0.00     0.076 C 
BRANCH   7   8
HETATM    8  S           1     -22.529  -3.638 -10.087  0.00  0.00    -0.173 SA
HETATM    9  C           1     -23.618  -4.844 -10.895  0.00  0.00     0.089 C 
ENDBRANCH   7   8
ENDBRANCH   6   7
ENDBRANCH   5   6
BRANCH   5  10
HETATM   10  N           1     -19.848  -5.496  -7.394  0.00  0.00    -0.066 N 
HETATM   11  H           1     -19.484  -4.881  -8.156  0.00  0.00     0.275 HD
HETATM   12  H           1     -19.056  -5.814  -6.792  0.00  0.00     0.275 HD
HETATM   13  H           1     -20.321  -6.328  -7.815  0.00  0.00     0.275 HD
ENDBRANCH   5  10
ENDBRANCH   2   5
BRANCH   1  14
HETATM   14  C           1     -21.573  -7.460  -3.978  0.00  0.00     0.186 C 
BRANCH  14  15
HETATM   15  C           1     -20.856  -8.804  -3.963  0.00  0.00     0.046 C 
BRANCH  15  16
HETATM   16  C           1     -21.881  -9.924  -3.837  0.00  0.00     0.076 C 
BRANCH  16  17
HETATM   17  S           1     -21.545 -10.886  -2.335  0.00  0.00    -0.173 SA
HETATM   18  C           1     -23.281 -11.182  -1.896  0.00  0.00     0.089 C 
ENDBRANCH  16  17
ENDBRANCH  15  16
ENDBRANCH  14  15
BRANCH  14  19
HETATM   19  C           1     -21.605  -6.890  -2.581  0.00  0.00     0.196 C 
HETATM   20  O           1     -22.418  -5.985  -2.295  0.00  0.00    -0.646 OA
HETATM   21  O           1     -20.818  -7.323  -1.711  0.00  0.00    -0.646 OA
ENDBRANCH  14  19
ENDBRANCH   1  14
TORSDOF 10
ENDMDL
MODEL 9
REMARK VINA RESULT:      -4.5      3.004      6.722
REMARK  10 active torsions:
REMARK  status: ('A' for Active; 'I' for Inactive)
REMARK    1  A    between atoms: N_1  and  C_11 
REMARK       I    between atoms: N_1  and  C_4 
REMARK    2  A    between atoms: C_4  and  C_8 
REMARK    3  A    between atoms: C_5  and  S_13 
REMARK    4  A    between atoms: C_5  and  C_6 
REMARK    5  A    between atoms: C_6  and  C_11 
REMARK    6  A    between atoms: C_8  and  C_19 
REMARK    7  A    between atoms: C_8  and  N_21 
REMARK    8  A    between atoms: C_11  and  C_12 
REMARK    9  A    between atoms: S_16  and  C_17 
REMARK   10  A    between atoms: C_17  and  C_19 
ROOT
HETATM    1  N           1     -35.505  -2.574 -11.538  0.00  0.00    -0.345 N 
HETATM    2  C           1     -35.504  -1.456 -10.749  0.00  0.00     0.249 C 
HETATM    3  H           1     -36.181  -2.664 -12.286  0.00  0.00     0.163 HD
HETATM    4  O           1     -34.697  -1.348  -9.856  0.00  0.00    -0.271 OA
ENDROOT
BRANCH   2   5
HETATM    5  C           1     -36.510  -0.359 -10.993  0.00  0.00     0.275 C 
BRANCH   5   6
HETATM    6  C           1     -36.537   0.582  -9.795  0.00  0.00     0.053 C 
BRANCH   6   7
HETATM    7  C           1     -37.552   0.079  -8.777  0.00  0.00     0.076 C 
BRANCH   7   8
HETATM    8  S           1     -37.946   1.407  -7.605  0.00  0.00    -0.173 SA
HETATM    9  C           1     -37.088   0.679  -6.182  0.00  0.00     0.089 C 
ENDBRANCH   7   8
ENDBRANCH   6   7
ENDBRANCH   5   6
BRANCH   5  10
HETATM   10  N           1     -37.870  -0.962 -11.184  0.00  0.00    -0.066 N 
HETATM   11  H           1     -38.386  -0.951 -10.275  0.00  0.00     0.275 HD
HETATM   12  H           1     -38.401  -0.407 -11.892  0.00  0.00     0.275 HD
HETATM   13  H           1     -37.771  -1.948 -11.517  0.00  0.00     0.275 HD
ENDBRANCH   5  10
ENDBRANCH   2   5
BRANCH   1  14
HETATM   14  C           1     -34.538  -3.629 -11.305  0.00  0.00     0.186 C 
BRANCH  14  15
HETATM   15  C           1     -35.269  -4.922 -10.968  0.00  0.00     0.046 C 
BRANCH  15  16
HETATM   16  C           1     -34.253  -6.027 -10.709  0.00  0.00     0.076 C 
BRANCH  16  17
HETATM   17  S           1     -35.029  -7.344  -9.729  0.00  0.00    -0.173 SA
HETATM   18  C           1     -33.759  -8.602 -10.047  0.00  0.00     0.089 C 
ENDBRANCH  16  17
ENDBRANCH  15  16
ENDBRANCH  14  15
BRANCH  14  19
HETATM   19  C           1     -33.704  -3.829 -12.546  0.00  0.00     0.196 C 
HETATM   20  O           1     -34.219  -3.679 -13.676  0.00  0.00    -0.646 OA
HETATM   21  O           1     -32.499  -4.147 -12.445  0.00  0.00    -0.646 OA
ENDBRANCH  14  19
ENDBRANCH   1  14
TORSDOF 10
ENDMDL
