MODEL 1
REMARK VINA RESULT:      -6.5      0.000      0.000
REMARK  8 active torsions:
REMARK  status: ('A' for Active; 'I' for Inactive)
REMARK       I    between atoms: C_5  and  N_7 
REMARK    1  A    between atoms: C_5  and  C_23 
REMARK    2  A    between atoms: N_8  and  C_22 
REMARK       I    between atoms: N_8  and  C_9 
REMARK    3  A    between atoms: C_9  and  C_10 
REMARK    4  A    between atoms: C_10  and  C_11 
REMARK    5  A    between atoms: C_10  and  N_16 
REMARK    6  A    between atoms: C_11  and  O_15 
REMARK    7  A    between atoms: C_21  and  C_22 
REMARK    8  A    between atoms: C_22  and  C_23 
ROOT
HETATM    1  N           1     -27.604  -6.319 -19.007  0.00  0.00    -0.344 N 
HETATM    2  C           1     -26.310  -6.409 -18.567  0.00  0.00     0.251 C 
HETATM    3  H           1     -27.812  -6.423 -19.992  0.00  0.00     0.163 HD
HETATM    4  O           1     -26.061  -6.283 -17.392  0.00  0.00    -0.271 OA
ENDROOT
BRANCH   1   5
HETATM    5  C           1     -28.675  -6.074 -18.060  0.00  0.00     0.194 C 
BRANCH   5   6
HETATM    6  C           1     -29.666  -7.210 -18.118  0.00  0.00     0.197 C 
HETATM    7  O           1     -29.470  -8.172 -18.892  0.00  0.00    -0.646 OA
HETATM    8  O           1     -30.684  -7.189 -17.393  0.00  0.00    -0.646 OA
ENDBRANCH   5   6
BRANCH   5   9
HETATM    9  C           1     -29.375  -4.769 -18.415  0.00  0.00     0.138 C 
BRANCH   9  10
HETATM   10  C           1     -28.919  -3.680 -17.476  0.00  0.00     0.217 C 
HETATM   11  O           1     -28.012  -3.888 -16.706  0.00  0.00    -0.274 OA
HETATM   12  N           1     -29.531  -2.456 -17.497  0.00  0.00    -0.370 N 
HETATM   13  H           1     -30.290  -2.281 -18.143  0.00  0.00     0.159 HD
HETATM   14  H           1     -29.224  -1.726 -16.868  0.00  0.00     0.159 HD
ENDBRANCH   9  10
ENDBRANCH   5   9
ENDBRANCH   1   5
BRANCH   2  15
HETATM   15  C           1     -25.195  -6.663 -19.552  0.00  0.00     0.302 C 
BRANCH  15  16
HETATM   16  C           1     -25.778  -7.210 -20.848  0.00  0.00     0.153 C 
HETATM   17  C           1     -24.648  -7.707 -21.742  0.00  0.00     0.042 C 
BRANCH  16  18
HETATM   18  O           1     -26.646  -8.273 -20.560  0.00  0.00    -0.393 OA
HETATM   19  H           1     -27.225  -8.361 -21.298  0.00  0.00     0.210 HD
ENDBRANCH  16  18
ENDBRANCH  15  16
BRANCH  15  20
HETATM   20  N           1     -24.238  -7.663 -18.974  0.00  0.00    -0.064 N 
HETATM   21  H           1     -24.126  -8.463 -19.636  0.00  0.00     0.275 HD
HETATM   22  H           1     -23.310  -7.207 -18.819  0.00  0.00     0.275 HD
HETATM   23  H           1     -24.609  -8.016 -18.063  0.00  0.00     0.275 HD
ENDBRANCH  15  20
ENDBRANCH   2  15
TORSDOF 8
ENDMDL
MODEL 2
REMARK VINA RESULT:      -6.5      9.675     11.139
REMARK  8 active torsions:
REMARK  status: ('A' for Active; 'I' for Inactive)
REMARK       I    between atoms: C_5  and  N_7 
REMARK    1  A    between atoms: C_5  and  C_23 
REMARK    2  A    between atoms: N_8  and  C_22 
REMARK       I    between atoms: N_8  and  C_9 
REMARK    3  A    between atoms: C_9  and  C_10 
REMARK    4  A    between atoms: C_10  and  C_11 
REMARK    5  A    between atoms: C_10  and  N_16 
REMARK    6  A    between atoms: C_11  and  O_15 
REMARK    7  A    between atoms: C_21  and  C_22 
REMARK    8  A    between atoms: C_22  and  C_23 
ROOT
HETATM    1  N           1     -34.829  -1.731 -12.892  0.00  0.00    -0.344 N 
HETATM    2  C           1     -34.081  -2.588 -12.131  0.00  0.00     0.251 C 
HETATM    3  H           1     -35.288  -2.066 -13.729  0.00  0.00     0.163 HD
HETATM    4  O           1     -33.532  -2.188 -11.132  0.00  0.00    -0.271 OA
ENDROOT
BRANCH   1   5
HETATM    5  C           1     -34.962  -0.341 -12.498  0.00  0.00     0.194 C 
BRANCH   5   6
HETATM    6  C           1     -36.235  -0.162 -11.708  0.00  0.00     0.197 C 
HETATM    7  O           1     -36.241   0.559 -10.687  0.00  0.00    -0.646 OA
HETATM    8  O           1     -37.283  -0.735 -12.074  0.00  0.00    -0.646 OA
ENDBRANCH   5   6
BRANCH   5   9
HETATM    9  C           1     -35.008   0.536 -13.742  0.00  0.00     0.138 C 
BRANCH   9  10
HETATM   10  C           1     -35.636  -0.234 -14.878  0.00  0.00     0.217 C 
HETATM   11  O           1     -34.951  -0.941 -15.580  0.00  0.00    -0.274 OA
HETATM   12  N           1     -36.980  -0.132 -15.115  0.00  0.00    -0.370 N 
HETATM   13  H           1     -37.554   0.460 -14.528  0.00  0.00     0.159 HD
HETATM   14  H           1     -37.400  -0.649 -15.877  0.00  0.00     0.159 HD
ENDBRANCH   9  10
ENDBRANCH   5   9
ENDBRANCH   1   5
BRANCH   2  15
HETATM   15  C           1     -33.943  -4.034 -12.540  0.00  0.00     0.302 C 
BRANCH  15  16
HETATM   16  C           1     -34.903  -4.888 -11.723  0.00  0.00     0.153 C 
HETATM   17  C           1     -34.119  -5.688 -10.691  0.00  0.00     0.042 C 
BRANCH  16  18
HETATM   18  O           1     -35.825  -4.059 -11.069  0.00  0.00    -0.393 OA
HETATM   19  H           1     -35.855  -4.338 -10.170  0.00  0.00     0.210 HD
ENDBRANCH  16  18
ENDBRANCH  15  16
BRANCH  15  20
HETATM   20  N           1     -32.535  -4.491 -12.293  0.00  0.00    -0.064 N 
HETATM   21  H           1     -32.044  -4.619 -13.206  0.00  0.00     0.275 HD
HETATM   22  H           1     -32.032  -3.773 -11.725  0.00  0.00     0.275 HD
HETATM   23  H           1     -32.549  -5.398 -11.775  0.00  0.00     0.275 HD
ENDBRANCH  15  20
ENDBRANCH   2  15
TORSDOF 8
ENDMDL
MODEL 3
REMARK VINA RESULT:      -6.2      1.631      2.947
REMARK  8 active torsions:
REMARK  status: ('A' for Active; 'I' for Inactive)
REMARK       I    between atoms: C_5  and  N_7 
REMARK    1  A    between atoms: C_5  and  C_23 
REMARK    2  A    between atoms: N_8  and  C_22 
REMARK       I    between atoms: N_8  and  C_9 
REMARK    3  A    between atoms: C_9  and  C_10 
REMARK    4  A    between atoms: C_10  and  C_11 
REMARK    5  A    between atoms: C_10  and  N_16 
REMARK    6  A    between atoms: C_11  and  O_15 
REMARK    7  A    between atoms: C_21  and  C_22 
REMARK    8  A    between atoms: C_22  and  C_23 
ROOT
HETATM    1  N           1     -26.868  -6.404 -18.294  0.00  0.00    -0.344 N 
HETATM    2  C           1     -26.418  -6.419 -19.587  0.00  0.00     0.251 C 
HETATM    3  H           1     -26.236  -6.628 -17.536  0.00  0.00     0.163 HD
HETATM    4  O           1     -27.173  -6.153 -20.492  0.00  0.00    -0.271 OA
ENDROOT
BRANCH   1   5
HETATM    5  C           1     -28.251  -6.069 -18.012  0.00  0.00     0.194 C 
BRANCH   5   6
HETATM    6  C           1     -28.301  -4.852 -17.121  0.00  0.00     0.197 C 
HETATM    7  O           1     -29.380  -4.243 -16.956  0.00  0.00    -0.646 OA
HETATM    8  O           1     -27.265  -4.454 -16.548  0.00  0.00    -0.646 OA
ENDBRANCH   5   6
BRANCH   5   9
HETATM    9  C           1     -28.923  -7.242 -17.310  0.00  0.00     0.138 C 
BRANCH   9  10
HETATM   10  C           1     -30.322  -7.416 -17.848  0.00  0.00     0.217 C 
HETATM   11  O           1     -30.517  -8.136 -18.799  0.00  0.00    -0.274 OA
HETATM   12  N           1     -31.370  -6.760 -17.260  0.00  0.00    -0.370 N 
HETATM   13  H           1     -31.206  -6.158 -16.463  0.00  0.00     0.159 HD
HETATM   14  H           1     -32.307  -6.878 -17.621  0.00  0.00     0.159 HD
ENDBRANCH   9  10
ENDBRANCH   5   9
ENDBRANCH   1   5
BRANCH   2  15
HETATM   15  C           1     -24.980  -6.767 -19.881  0.00  0.00     0.302 C 
BRANCH  15  16
HETATM   16  C           1     -24.908  -7.592 -21.159  0.00  0.00     0.153 C 
HETATM   17  C           1     -23.550  -8.277 -21.245  0.00  0.00     0.042 C 
BRANCH  16  18
HETATM   18  O           1     -25.920  -8.562 -21.148  0.00  0.00    -0.393 OA
HETATM   19  H           1     -25.626  -9.270 -21.695  0.00  0.00     0.210 HD
ENDBRANCH  16  18
ENDBRANCH  15  16
BRANCH  15  20
HETATM   20  N           1     -24.416  -7.563 -18.741  0.00  0.00    -0.064 N 
HETATM   21  H           1     -24.021  -8.460 -19.103  0.00  0.00     0.275 HD
HETATM   22  H           1     -23.660  -7.014 -18.274  0.00  0.00     0.275 HD
HETATM   23  H           1     -25.174  -7.770 -18.052  0.00  0.00     0.275 HD
ENDBRANCH  15  20
ENDBRANCH   2  15
TORSDOF 8
ENDMDL
MODEL 4
REMARK VINA RESULT:      -6.1     11.093     12.402
REMARK  8 active torsions:
REMARK  status: ('A' for Active; 'I' for Inactive)
REMARK       I    between atoms: C_5  and  N_7 
REMARK    1  A    between atoms: C_5  and  C_23 
REMARK    2  A    between atoms: N_8  and  C_22 
REMARK       I    between atoms: N_8  and  C_9 
REMARK    3  A    between atoms: C_9  and  C_10 
REMARK    4  A    between atoms: C_10  and  C_11 
REMARK    5  A    between atoms: C_10  and  N_16 
REMARK    6  A    between atoms: C_11  and  O_15 
REMARK    7  A    between atoms: C_21  and  C_22 
REMARK    8  A    between atoms: C_22  and  C_23 
ROOT
HETATM    1  N           1     -22.464  -4.675  -8.267  0.00  0.00    -0.344 N 
HETATM    2  C           1     -21.667  -4.141  -7.290  0.00  0.00     0.251 C 
HETATM    3  H           1     -22.822  -5.617  -8.170  0.00  0.00     0.163 HD
HETATM    4  O           1     -21.239  -3.017  -7.406  0.00  0.00    -0.271 OA
ENDROOT
BRANCH   1   5
HETATM    5  C           1     -22.793  -3.890  -9.441  0.00  0.00     0.194 C 
BRANCH   5   6
HETATM    6  C           1     -24.293  -3.832  -9.602  0.00  0.00     0.197 C 
HETATM    7  O           1     -24.893  -2.743  -9.476  0.00  0.00    -0.646 OA
HETATM    8  O           1     -24.934  -4.873  -9.860  0.00  0.00    -0.646 OA
ENDBRANCH   5   6
BRANCH   5   9
HETATM    9  C           1     -22.175  -4.538 -10.673  0.00  0.00     0.138 C 
BRANCH   9  10
HETATM   10  C           1     -20.728  -4.125 -10.786  0.00  0.00     0.217 C 
HETATM   11  O           1     -19.869  -4.781 -10.247  0.00  0.00    -0.274 OA
HETATM   12  N           1     -20.388  -3.008 -11.500  0.00  0.00    -0.370 N 
HETATM   13  H           1     -21.108  -2.458 -11.952  0.00  0.00     0.159 HD
HETATM   14  H           1     -19.418  -2.731 -11.576  0.00  0.00     0.159 HD
ENDBRANCH   9  10
ENDBRANCH   5   9
ENDBRANCH   1   5
BRANCH   2  15
HETATM   15  C           1     -21.324  -4.957  -6.067  0.00  0.00     0.302 C 
BRANCH  15  16
HETATM   16  C           1     -20.130  -5.852  -6.373  0.00  0.00     0.153 C 
HETATM   17  C           1     -20.308  -7.192  -5.671  0.00  0.00     0.042 C 
BRANCH  16  18
HETATM   18  O           1     -20.042  -6.058  -7.757  0.00  0.00    -0.393 OA
HETATM   19  H           1     -20.153  -5.218  -8.167  0.00  0.00     0.210 HD
ENDBRANCH  16  18
ENDBRANCH  15  16
BRANCH  15  20
HETATM   20  N           1     -22.500  -5.806  -5.687  0.00  0.00    -0.064 N 
HETATM   21  H           1     -23.148  -5.255  -5.081  0.00  0.00     0.275 HD
HETATM   22  H           1     -23.005  -6.108  -6.551  0.00  0.00     0.275 HD
HETATM   23  H           1     -22.168  -6.648  -5.165  0.00  0.00     0.275 HD
ENDBRANCH  15  20
ENDBRANCH   2  15
TORSDOF 8
ENDMDL
MODEL 5
REMARK VINA RESULT:      -6.1      9.243     11.357
REMARK  8 active torsions:
REMARK  status: ('A' for Active; 'I' for Inactive)
REMARK       I    between atoms: C_5  and  N_7 
REMARK    1  A    between atoms: C_5  and  C_23 
REMARK    2  A    between atoms: N_8  and  C_22 
REMARK       I    between atoms: N_8  and  C_9 
REMARK    3  A    between atoms: C_9  and  C_10 
REMARK    4  A    between atoms: C_10  and  C_11 
REMARK    5  A    between atoms: C_10  and  N_16 
REMARK    6  A    between atoms: C_11  and  O_15 
REMARK    7  A    between atoms: C_21  and  C_22 
REMARK    8  A    between atoms: C_22  and  C_23 
ROOT
HETATM    1  N           1     -34.828  -1.237 -12.986  0.00  0.00    -0.344 N 
HETATM    2  C           1     -35.967  -0.682 -13.504  0.00  0.00     0.251 C 
HETATM    3  H           1     -33.922  -0.953 -13.336  0.00  0.00     0.163 HD
HETATM    4  O           1     -37.049  -1.022 -13.087  0.00  0.00    -0.271 OA
ENDROOT
BRANCH   1   5
HETATM    5  C           1     -34.920  -2.234 -11.936  0.00  0.00     0.194 C 
BRANCH   5   6
HETATM    6  C           1     -34.702  -1.575 -10.597  0.00  0.00     0.197 C 
HETATM    7  O           1     -35.631  -0.939 -10.054  0.00  0.00    -0.646 OA
HETATM    8  O           1     -33.591  -1.663 -10.030  0.00  0.00    -0.646 OA
ENDBRANCH   5   6
BRANCH   5   9
HETATM    9  C           1     -33.857  -3.302 -12.157  0.00  0.00     0.138 C 
BRANCH   9  10
HETATM   10  C           1     -34.298  -4.232 -13.260  0.00  0.00     0.217 C 
HETATM   11  O           1     -34.219  -3.881 -14.413  0.00  0.00    -0.274 OA
HETATM   12  N           1     -34.787  -5.474 -12.955  0.00  0.00    -0.370 N 
HETATM   13  H           1     -34.853  -5.768 -11.989  0.00  0.00     0.159 HD
HETATM   14  H           1     -35.082  -6.097 -13.695  0.00  0.00     0.159 HD
ENDBRANCH   9  10
ENDBRANCH   5   9
ENDBRANCH   1   5
BRANCH   2  15
HETATM   15  C           1     -35.871   0.355 -14.596  0.00  0.00     0.302 C 
BRANCH  15  16
HETATM   16  C           1     -36.427  -0.220 -15.892  0.00  0.00     0.153 C 
HETATM   17  C           1     -35.466  -1.271 -16.434  0.00  0.00     0.042 C 
BRANCH  16  18
HETATM   18  O           1     -37.674  -0.811 -15.646  0.00  0.00    -0.393 OA
HETATM   19  H           1     -37.531  -1.502 -15.022  0.00  0.00     0.210 HD
ENDBRANCH  16  18
ENDBRANCH  15  16
BRANCH  15  20
HETATM   20  N           1     -34.435   0.739 -14.795  0.00  0.00    -0.064 N 
HETATM   21  H           1     -33.966   0.032 -15.406  0.00  0.00     0.275 HD
HETATM   22  H           1     -34.386   1.678 -15.249  0.00  0.00     0.275 HD
HETATM   23  H           1     -33.952   0.773 -13.869  0.00  0.00     0.275 HD
ENDBRANCH  15  20
ENDBRANCH   2  15
TORSDOF 8
ENDMDL
MODEL 6
REMARK VINA RESULT:      -5.9     10.088     11.288
REMARK  8 active torsions:
REMARK  status: ('A' for Active; 'I' for Inactive)
REMARK       I    between atoms: C_5  and  N_7 
REMARK    1  A    between atoms: C_5  and  C_23 
REMARK    2  A    between atoms: N_8  and  C_22 
REMARK       I    between atoms: N_8  and  C_9 
REMARK    3  A    between atoms: C_9  and  C_10 
REMARK    4  A    between atoms: C_10  and  C_11 
REMARK    5  A    between atoms: C_10  and  N_16 
REMARK    6  A    between atoms: C_11  and  O_15 
REMARK    7  A    between atoms: C_21  and  C_22 
REMARK    8  A    between atoms: C_22  and  C_23 
ROOT
HETATM    1  N           1     -35.552  -1.425 -12.887  0.00  0.00    -0.344 N 
HETATM    2  C           1     -34.845  -2.596 -12.924  0.00  0.00     0.251 C 
HETATM    3  H           1     -35.892  -1.066 -12.003  0.00  0.00     0.163 HD
HETATM    4  O           1     -34.441  -3.025 -13.979  0.00  0.00    -0.271 OA
ENDROOT
BRANCH   1   5
HETATM    5  C           1     -35.816  -0.698 -14.114  0.00  0.00     0.194 C 
BRANCH   5   6
HETATM    6  C           1     -34.860   0.464 -14.225  0.00  0.00     0.197 C 
HETATM    7  O           1     -34.811   1.322 -13.317  0.00  0.00    -0.646 OA
HETATM    8  O           1     -34.118   0.570 -15.225  0.00  0.00    -0.646 OA
ENDBRANCH   5   6
BRANCH   5   9
HETATM    9  C           1     -37.247  -0.180 -14.099  0.00  0.00     0.138 C 
BRANCH   9  10
HETATM   10  C           1     -37.698   0.099 -15.511  0.00  0.00     0.217 C 
HETATM   11  O           1     -37.727  -0.795 -16.323  0.00  0.00    -0.274 OA
HETATM   12  N           1     -38.075   1.365 -15.873  0.00  0.00    -0.370 N 
HETATM   13  H           1     -38.051   2.113 -15.193  0.00  0.00     0.159 HD
HETATM   14  H           1     -38.377   1.551 -16.821  0.00  0.00     0.159 HD
ENDBRANCH   9  10
ENDBRANCH   5   9
ENDBRANCH   1   5
BRANCH   2  15
HETATM   15  C           1     -34.571  -3.352 -11.647  0.00  0.00     0.302 C 
BRANCH  15  16
HETATM   16  C           1     -34.132  -4.772 -11.982  0.00  0.00     0.153 C 
HETATM   17  C           1     -33.999  -5.578 -10.696  0.00  0.00     0.042 C 
BRANCH  16  18
HETATM   18  O           1     -35.087  -5.374 -12.813  0.00  0.00    -0.393 OA
HETATM   19  H           1     -34.646  -5.608 -13.612  0.00  0.00     0.210 HD
ENDBRANCH  16  18
ENDBRANCH  15  16
BRANCH  15  20
HETATM   20  N           1     -35.819  -3.399 -10.817  0.00  0.00    -0.064 N 
HETATM   21  H           1     -36.064  -2.434 -10.500  0.00  0.00     0.275 HD
HETATM   22  H           1     -36.603  -3.786 -11.388  0.00  0.00     0.275 HD
HETATM   23  H           1     -35.660  -4.008  -9.983  0.00  0.00     0.275 HD
ENDBRANCH  15  20
ENDBRANCH   2  15
TORSDOF 8
ENDMDL
MODEL 7
REMARK VINA RESULT:      -5.9     10.676     13.723
REMARK  8 active torsions:
REMARK  status: ('A' for Active; 'I' for Inactive)
REMARK       I    between atoms: C_5  and  N_7 
REMARK    1  A    between atoms: C_5  and  C_23 
REMARK    2  A    between atoms: N_8  and  C_22 
REMARK       I    between atoms: N_8  and  C_9 
REMARK    3  A    between atoms: C_9  and  C_10 
REMARK    4  A    between atoms: C_10  and  C_11 
REMARK    5  A    between atoms: C_10  and  N_16 
REMARK    6  A    between atoms: C_11  and  O_15 
REMARK    7  A    between atoms: C_21  and  C_22 
REMARK    8  A    between atoms: C_22  and  C_23 
ROOT
HETATM    1  N           1     -35.717  -0.722 -10.909  0.00  0.00    -0.344 N 
HETATM    2  C           1     -36.936  -0.767 -10.288  0.00  0.00     0.251 C 
HETATM    3  H           1     -34.891  -0.458 -10.386  0.00  0.00     0.163 HD
HETATM    4  O           1     -37.921  -1.082 -10.912  0.00  0.00    -0.271 OA
ENDROOT
BRANCH   1   5
HETATM    5  C           1     -35.608  -1.053 -12.317  0.00  0.00     0.194 C 
BRANCH   5   6
HETATM    6  C           1     -34.596  -2.158 -12.497  0.00  0.00     0.197 C 
HETATM    7  O           1     -33.785  -2.417 -11.582  0.00  0.00    -0.646 OA
HETATM    8  O           1     -34.568  -2.812 -13.561  0.00  0.00    -0.646 OA
ENDBRANCH   5   6
BRANCH   5   9
HETATM    9  C           1     -35.161   0.178 -13.093  0.00  0.00     0.138 C 
BRANCH   9  10
HETATM   10  C           1     -36.025   0.343 -14.319  0.00  0.00     0.217 C 
HETATM   11  O           1     -36.873  -0.478 -14.574  0.00  0.00    -0.274 OA
HETATM   12  N           1     -35.847   1.422 -15.143  0.00  0.00    -0.370 N 
HETATM   13  H           1     -35.136   2.110 -14.929  0.00  0.00     0.159 HD
HETATM   14  H           1     -36.427   1.531 -15.965  0.00  0.00     0.159 HD
ENDBRANCH   9  10
ENDBRANCH   5   9
ENDBRANCH   1   5
BRANCH   2  15
HETATM   15  C           1     -37.049  -0.423  -8.823  0.00  0.00     0.302 C 
BRANCH  15  16
HETATM   16  C           1     -38.075   0.687  -8.639  0.00  0.00     0.153 C 
HETATM   17  C           1     -37.753   1.471  -7.373  0.00  0.00     0.042 C 
BRANCH  16  18
HETATM   18  O           1     -38.034   1.549  -9.745  0.00  0.00    -0.393 OA
HETATM   19  H           1     -38.895   1.922  -9.833  0.00  0.00     0.210 HD
ENDBRANCH  16  18
ENDBRANCH  15  16
BRANCH  15  20
HETATM   20  N           1     -35.716   0.040  -8.314  0.00  0.00    -0.064 N 
HETATM   21  H           1     -35.454  -0.513  -7.467  0.00  0.00     0.275 HD
HETATM   22  H           1     -34.994  -0.098  -9.056  0.00  0.00     0.275 HD
HETATM   23  H           1     -35.771   1.053  -8.065  0.00  0.00     0.275 HD
ENDBRANCH  15  20
ENDBRANCH   2  15
TORSDOF 8
ENDMDL
MODEL 8
REMARK VINA RESULT:      -5.3     11.843     13.285
REMARK  8 active torsions:
REMARK  status: ('A' for Active; 'I' for Inactive)
REMARK       I    between atoms: C_5  and  N_7 
REMARK    1  A    between atoms: C_5  and  C_23 
REMARK    2  A    between atoms: N_8  and  C_22 
REMARK       I    between atoms: N_8  and  C_9 
REMARK    3  A    between atoms: C_9  and  C_10 
REMARK    4  A    between atoms: C_10  and  C_11 
REMARK    5  A    between atoms: C_10  and  N_16 
REMARK    6  A    between atoms: C_11  and  O_15 
REMARK    7  A    between atoms: C_21  and  C_22 
REMARK    8  A    between atoms: C_22  and  C_23 
ROOT
HETATM    1  N           1     -21.881  -5.014  -7.172  0.00  0.00    -0.344 N 
HETATM    2  C           1     -22.138  -4.158  -8.209  0.00  0.00     0.251 C 
HETATM    3  H           1     -22.477  -5.818  -7.019  0.00  0.00     0.163 HD
HETATM    4  O           1     -21.427  -3.199  -8.390  0.00  0.00    -0.271 OA
ENDROOT
BRANCH   1   5
HETATM    5  C           1     -20.755  -4.768  -6.291  0.00  0.00     0.194 C 
BRANCH   5   6
HETATM    6  C           1     -19.501  -5.338  -6.907  0.00  0.00     0.197 C 
HETATM    7  O           1     -18.576  -4.575  -7.261  0.00  0.00    -0.646 OA
HETATM    8  O           1     -19.388  -6.572  -7.065  0.00  0.00    -0.646 OA
ENDBRANCH   5   6
BRANCH   5   9
HETATM    9  C           1     -21.009  -5.436  -4.946  0.00  0.00     0.138 C 
BRANCH   9  10
HETATM   10  C           1     -22.065  -6.502  -5.104  0.00  0.00     0.217 C 
HETATM   11  O           1     -23.235  -6.209  -5.031  0.00  0.00    -0.274 OA
HETATM   12  N           1     -21.698  -7.802  -5.329  0.00  0.00    -0.370 N 
HETATM   13  H           1     -20.719  -8.047  -5.390  0.00  0.00     0.159 HD
HETATM   14  H           1     -22.407  -8.516  -5.435  0.00  0.00     0.159 HD
ENDBRANCH   9  10
ENDBRANCH   5   9
ENDBRANCH   1   5
BRANCH   2  15
HETATM   15  C           1     -23.309  -4.414  -9.125  0.00  0.00     0.302 C 
BRANCH  15  16
HETATM   16  C           1     -22.864  -4.259 -10.574  0.00  0.00     0.153 C 
HETATM   17  C           1     -23.748  -5.117 -11.470  0.00  0.00     0.042 C 
BRANCH  16  18
HETATM   18  O           1     -22.977  -2.915 -10.957  0.00  0.00    -0.393 OA
HETATM   19  H           1     -22.126  -2.526 -10.845  0.00  0.00     0.210 HD
ENDBRANCH  16  18
ENDBRANCH  15  16
BRANCH  15  20
HETATM   20  N           1     -24.399  -3.427  -8.830  0.00  0.00    -0.064 N 
HETATM   21  H           1     -24.929  -3.734  -7.984  0.00  0.00     0.275 HD
HETATM   22  H           1     -23.978  -2.487  -8.654  0.00  0.00     0.275 HD
HETATM   23  H           1     -25.049  -3.371  -9.646  0.00  0.00     0.275 HD
ENDBRANCH  15  20
ENDBRANCH   2  15
TORSDOF 8
ENDMDL
MODEL 9
REMARK VINA RESULT:      -5.3      1.887      4.812
REMARK  8 active torsions:
REMARK  status: ('A' for Active; 'I' for Inactive)
REMARK       I    between atoms: C_5  and  N_7 
REMARK    1  A    between atoms: C_5  and  C_23 
REMARK    2  A    between atoms: N_8  and  C_22 
REMARK       I    between atoms: N_8  and  C_9 
REMARK    3  A    between atoms: C_9  and  C_10 
REMARK    4  A    between atoms: C_10  and  C_11 
REMARK    5  A    between atoms: C_10  and  N_16 
REMARK    6  A    between atoms: C_11  and  O_15 
REMARK    7  A    between atoms: C_21  and  C_22 
REMARK    8  A    between atoms: C_22  and  C_23 
ROOT
HETATM    1  N           1     -27.116  -7.071 -19.094  0.00  0.00    -0.344 N 
HETATM    2  C           1     -27.821  -6.011 -18.590  0.00  0.00     0.251 C 
HETATM    3  H           1     -26.517  -7.615 -18.486  0.00  0.00     0.163 HD
HETATM    4  O           1     -28.535  -5.361 -19.315  0.00  0.00    -0.271 OA
ENDROOT
BRANCH   1   5
HETATM    5  C           1     -27.228  -7.413 -20.499  0.00  0.00     0.194 C 
BRANCH   5   6
HETATM    6  C           1     -28.190  -8.564 -20.661  0.00  0.00     0.197 C 
HETATM    7  O           1     -28.001  -9.414 -21.559  0.00  0.00    -0.646 OA
HETATM    8  O           1     -29.174  -8.668 -19.899  0.00  0.00    -0.646 OA
ENDBRANCH   5   6
BRANCH   5   9
HETATM    9  C           1     -25.859  -7.814 -21.033  0.00  0.00     0.138 C 
BRANCH   9  10
HETATM   10  C           1     -24.783  -7.140 -20.218  0.00  0.00     0.217 C 
HETATM   11  O           1     -24.768  -5.937 -20.115  0.00  0.00    -0.274 OA
HETATM   12  N           1     -23.822  -7.892 -19.596  0.00  0.00    -0.370 N 
HETATM   13  H           1     -23.835  -8.900 -19.683  0.00  0.00     0.159 HD
HETATM   14  H           1     -23.101  -7.439 -19.050  0.00  0.00     0.159 HD
ENDBRANCH   9  10
ENDBRANCH   5   9
ENDBRANCH   1   5
BRANCH   2  15
HETATM   15  C           1     -27.705  -5.655 -17.128  0.00  0.00     0.302 C 
BRANCH  15  16
HETATM   16  C           1     -28.678  -6.503 -16.320  0.00  0.00     0.153 C 
HETATM   17  C           1     -29.899  -5.668 -15.958  0.00  0.00     0.042 C 
BRANCH  16  18
HETATM   18  O           1     -29.079  -7.610 -17.082  0.00  0.00    -0.393 OA
HETATM   19  H           1     -28.875  -7.413 -17.980  0.00  0.00     0.210 HD
ENDBRANCH  16  18
ENDBRANCH  15  16
BRANCH  15  20
HETATM   20  N           1     -28.033  -4.204 -16.940  0.00  0.00    -0.064 N 
HETATM   21  H           1     -27.205  -3.622 -17.202  0.00  0.00     0.275 HD
HETATM   22  H           1     -28.844  -3.949 -17.547  0.00  0.00     0.275 HD
HETATM   23  H           1     -28.277  -4.029 -15.939  0.00  0.00     0.275 HD
ENDBRANCH  15  20
ENDBRANCH   2  15
TORSDOF 8
ENDMDL
