MODEL 1
REMARK VINA RESULT:      -5.9      0.000      0.000
REMARK  8 active torsions:
REMARK  status: ('A' for Active; 'I' for Inactive)
REMARK    1  A    between atoms: C_1  and  C_2 
REMARK    2  A    between atoms: C_1  and  C_13 
REMARK    3  A    between atoms: C_1  and  N_10 
REMARK    4  A    between atoms: C_2  and  C_15 
REMARK    5  A    between atoms: N_5  and  C_8 
REMARK    6  A    between atoms: Se_6  and  C_7 
REMARK    7  A    between atoms: C_7  and  C_8 
REMARK    8  A    between atoms: C_8  and  C_9 
REMARK       I    between atoms: C_9  and  N_10 
ROOT
HETATM    1  O           1     -26.187  -6.105 -17.606  0.00  0.00    -0.271 OA
HETATM    2  C           1     -26.366  -6.556 -18.712  0.00  0.00     0.249 C 
HETATM    3  N           1     -27.638  -6.813 -19.149  0.00  0.00    -0.345 N 
HETATM    4  H           1     -27.788  -7.191 -20.076  0.00  0.00     0.163 HD
ENDROOT
BRANCH   2   5
HETATM    5  C           1     -25.188  -6.835 -19.614  0.00  0.00     0.274 C 
BRANCH   5   6
HETATM    6  N           1     -24.127  -7.557 -18.838  0.00  0.00    -0.067 N 
HETATM    7  H           1     -23.882  -7.005 -17.985  0.00  0.00     0.275 HD
HETATM    8  H           1     -24.482  -8.497 -18.554  0.00  0.00     0.275 HD
HETATM    9  H           1     -23.276  -7.670 -19.434  0.00  0.00     0.275 HD
ENDBRANCH   5   6
BRANCH   5  10
HETATM   10  C           1     -25.639  -7.700 -20.784  0.00  0.00     0.045 C 
BRANCH  10  11
HETATM   11 Se           1     -24.177  -7.884 -22.059  0.00  0.00     0.000 Se
HETATM   12  H           1     -24.051  -9.340 -21.880  0.00  0.00     0.000 HD
ENDBRANCH  10  11
ENDBRANCH   5  10
ENDBRANCH   2   5
BRANCH   3  13
HETATM   13  C           1     -28.770  -6.545 -18.284  0.00  0.00     0.185 C 
BRANCH  13  14
HETATM   14  C           1     -29.329  -5.163 -18.592  0.00  0.00     0.040 C 
BRANCH  14  15
HETATM   15  C           1     -29.648  -4.440 -17.290  0.00  0.00    -0.020 C 
HETATM   16  C           1     -31.069  -3.896 -17.346  0.00  0.00     0.009 C 
HETATM   17  C           1     -28.670  -3.288 -17.097  0.00  0.00     0.009 C 
ENDBRANCH  14  15
ENDBRANCH  13  14
BRANCH  13  18
HETATM   18  C           1     -29.838  -7.585 -18.519  0.00  0.00     0.196 C 
HETATM   19  O           1     -30.931  -7.506 -17.916  0.00  0.00    -0.646 OA
HETATM   20  O           1     -29.630  -8.525 -19.315  0.00  0.00    -0.646 OA
ENDBRANCH  13  18
ENDBRANCH   3  13
TORSDOF 8
ENDMDL
MODEL 2
REMARK VINA RESULT:      -5.8      2.220      2.964
REMARK  8 active torsions:
REMARK  status: ('A' for Active; 'I' for Inactive)
REMARK    1  A    between atoms: C_1  and  C_2 
REMARK    2  A    between atoms: C_1  and  C_13 
REMARK    3  A    between atoms: C_1  and  N_10 
REMARK    4  A    between atoms: C_2  and  C_15 
REMARK    5  A    between atoms: N_5  and  C_8 
REMARK    6  A    between atoms: Se_6  and  C_7 
REMARK    7  A    between atoms: C_7  and  C_8 
REMARK    8  A    between atoms: C_8  and  C_9 
REMARK       I    between atoms: C_9  and  N_10 
ROOT
HETATM    1  O           1     -24.359  -6.423 -18.641  0.00  0.00    -0.271 OA
HETATM    2  C           1     -25.416  -6.868 -19.019  0.00  0.00     0.249 C 
HETATM    3  N           1     -26.538  -6.715 -18.250  0.00  0.00    -0.345 N 
HETATM    4  H           1     -27.424  -7.088 -18.567  0.00  0.00     0.163 HD
ENDROOT
BRANCH   2   5
HETATM    5  C           1     -25.501  -7.593 -20.340  0.00  0.00     0.274 C 
BRANCH   5   6
HETATM    6  N           1     -26.940  -7.835 -20.685  0.00  0.00    -0.067 N 
HETATM    7  H           1     -27.160  -8.851 -20.569  0.00  0.00     0.275 HD
HETATM    8  H           1     -27.550  -7.273 -20.050  0.00  0.00     0.275 HD
HETATM    9  H           1     -27.114  -7.554 -21.675  0.00  0.00     0.275 HD
ENDBRANCH   5   6
BRANCH   5  10
HETATM   10  C           1     -24.855  -6.742 -21.427  0.00  0.00     0.045 C 
BRANCH  10  11
HETATM   11 Se           1     -23.774  -7.876 -22.586  0.00  0.00     0.000 Se
HETATM   12  H           1     -23.066  -8.533 -21.475  0.00  0.00     0.000 HD
ENDBRANCH  10  11
ENDBRANCH   5  10
ENDBRANCH   2   5
BRANCH   3  13
HETATM   13  C           1     -26.458  -6.019 -16.980  0.00  0.00     0.185 C 
BRANCH  13  14
HETATM   14  C           1     -27.758  -5.267 -16.730  0.00  0.00     0.040 C 
BRANCH  14  15
HETATM   15  C           1     -28.794  -5.685 -17.764  0.00  0.00    -0.020 C 
HETATM   16  C           1     -29.361  -4.445 -18.444  0.00  0.00     0.009 C 
HETATM   17  C           1     -29.920  -6.446 -17.076  0.00  0.00     0.009 C 
ENDBRANCH  14  15
ENDBRANCH  13  14
BRANCH  13  18
HETATM   18  C           1     -26.233  -7.020 -15.873  0.00  0.00     0.196 C 
HETATM   19  O           1     -27.211  -7.524 -15.278  0.00  0.00    -0.646 OA
HETATM   20  O           1     -25.070  -7.345 -15.550  0.00  0.00    -0.646 OA
ENDBRANCH  13  18
ENDBRANCH   3  13
TORSDOF 8
ENDMDL
MODEL 3
REMARK VINA RESULT:      -5.6     10.976     12.173
REMARK  8 active torsions:
REMARK  status: ('A' for Active; 'I' for Inactive)
REMARK    1  A    between atoms: C_1  and  C_2 
REMARK    2  A    between atoms: C_1  and  C_13 
REMARK    3  A    between atoms: C_1  and  N_10 
REMARK    4  A    between atoms: C_2  and  C_15 
REMARK    5  A    between atoms: N_5  and  C_8 
REMARK    6  A    between atoms: Se_6  and  C_7 
REMARK    7  A    between atoms: C_7  and  C_8 
REMARK    8  A    between atoms: C_8  and  C_9 
REMARK       I    between atoms: C_9  and  N_10 
ROOT
HETATM    1  O           1     -21.319  -3.285  -7.856  0.00  0.00    -0.271 OA
HETATM    2  C           1     -22.088  -4.199  -7.677  0.00  0.00     0.249 C 
HETATM    3  N           1     -23.013  -4.512  -8.636  0.00  0.00    -0.345 N 
HETATM    4  H           1     -23.658  -5.279  -8.486  0.00  0.00     0.163 HD
ENDROOT
BRANCH   2   5
HETATM    5  C           1     -22.029  -4.996  -6.397  0.00  0.00     0.274 C 
BRANCH   5   6
HETATM    6  N           1     -23.411  -5.439  -6.021  0.00  0.00    -0.067 N 
HETATM    7  H           1     -24.074  -5.209  -6.796  0.00  0.00     0.275 HD
HETATM    8  H           1     -23.414  -6.470  -5.856  0.00  0.00     0.275 HD
HETATM    9  H           1     -23.710  -4.944  -5.151  0.00  0.00     0.275 HD
ENDBRANCH   5   6
BRANCH   5  10
HETATM   10  C           1     -21.143  -6.218  -6.602  0.00  0.00     0.045 C 
BRANCH  10  11
HETATM   11 Se           1     -21.498  -7.523  -5.198  0.00  0.00     0.000 Se
HETATM   12  H           1     -20.171  -7.387  -4.576  0.00  0.00     0.000 HD
ENDBRANCH  10  11
ENDBRANCH   5  10
ENDBRANCH   2   5
BRANCH   3  13
HETATM   13  C           1     -23.071  -3.747  -9.867  0.00  0.00     0.185 C 
BRANCH  13  14
HETATM   14  C           1     -22.613  -4.618 -11.028  0.00  0.00     0.040 C 
BRANCH  14  15
HETATM   15  C           1     -21.261  -4.127 -11.530  0.00  0.00    -0.020 C 
HETATM   16  C           1     -20.151  -4.779 -10.717  0.00  0.00     0.009 C 
HETATM   17  C           1     -21.182  -2.614 -11.376  0.00  0.00     0.009 C 
ENDBRANCH  14  15
ENDBRANCH  13  14
BRANCH  13  18
HETATM   18  C           1     -24.489  -3.291 -10.107  0.00  0.00     0.196 C 
HETATM   19  O           1     -25.011  -3.440 -11.234  0.00  0.00    -0.646 OA
HETATM   20  O           1     -25.142  -2.763  -9.181  0.00  0.00    -0.646 OA
ENDBRANCH  13  18
ENDBRANCH   3  13
TORSDOF 8
ENDMDL
MODEL 4
REMARK VINA RESULT:      -5.0      2.291      2.581
REMARK  8 active torsions:
REMARK  status: ('A' for Active; 'I' for Inactive)
REMARK    1  A    between atoms: C_1  and  C_2 
REMARK    2  A    between atoms: C_1  and  C_13 
REMARK    3  A    between atoms: C_1  and  N_10 
REMARK    4  A    between atoms: C_2  and  C_15 
REMARK    5  A    between atoms: N_5  and  C_8 
REMARK    6  A    between atoms: Se_6  and  C_7 
REMARK    7  A    between atoms: C_7  and  C_8 
REMARK    8  A    between atoms: C_8  and  C_9 
REMARK       I    between atoms: C_9  and  N_10 
ROOT
HETATM    1  O           1     -27.129  -7.514 -15.125  0.00  0.00    -0.271 OA
HETATM    2  C           1     -26.745  -6.876 -16.076  0.00  0.00     0.249 C 
HETATM    3  N           1     -27.627  -6.513 -17.057  0.00  0.00    -0.345 N 
HETATM    4  H           1     -27.304  -5.978 -17.855  0.00  0.00     0.163 HD
ENDROOT
BRANCH   2   5
HETATM    5  C           1     -25.293  -6.480 -16.181  0.00  0.00     0.274 C 
BRANCH   5   6
HETATM    6  N           1     -24.714  -6.336 -14.805  0.00  0.00    -0.067 N 
HETATM    7  H           1     -24.234  -7.225 -14.535  0.00  0.00     0.275 HD
HETATM    8  H           1     -24.024  -5.553 -14.797  0.00  0.00     0.275 HD
HETATM    9  H           1     -25.479  -6.135 -14.124  0.00  0.00     0.275 HD
ENDBRANCH   5   6
BRANCH   5  10
HETATM   10  C           1     -24.528  -7.553 -16.944  0.00  0.00     0.045 C 
BRANCH  10  11
HETATM   11 Se           1     -24.326  -7.011 -18.805  0.00  0.00     0.000 Se
HETATM   12  H           1     -25.754  -7.169 -19.126  0.00  0.00     0.000 HD
ENDBRANCH  10  11
ENDBRANCH   5  10
ENDBRANCH   2   5
BRANCH   3  13
HETATM   13  C           1     -29.022  -6.894 -16.957  0.00  0.00     0.185 C 
BRANCH  13  14
HETATM   14  C           1     -29.848  -5.688 -16.529  0.00  0.00     0.040 C 
BRANCH  14  15
HETATM   15  C           1     -29.623  -4.544 -17.509  0.00  0.00    -0.020 C 
HETATM   16  C           1     -28.548  -3.613 -16.963  0.00  0.00     0.009 C 
HETATM   17  C           1     -30.922  -3.769 -17.690  0.00  0.00     0.009 C 
ENDBRANCH  14  15
ENDBRANCH  13  14
BRANCH  13  18
HETATM   18  C           1     -29.506  -7.385 -18.299  0.00  0.00     0.196 C 
HETATM   19  O           1     -30.667  -7.835 -18.419  0.00  0.00    -0.646 OA
HETATM   20  O           1     -28.746  -7.344 -19.291  0.00  0.00    -0.646 OA
ENDBRANCH  13  18
ENDBRANCH   3  13
TORSDOF 8
ENDMDL
MODEL 5
REMARK VINA RESULT:      -5.0     14.413     15.425
REMARK  8 active torsions:
REMARK  status: ('A' for Active; 'I' for Inactive)
REMARK    1  A    between atoms: C_1  and  C_2 
REMARK    2  A    between atoms: C_1  and  C_13 
REMARK    3  A    between atoms: C_1  and  N_10 
REMARK    4  A    between atoms: C_2  and  C_15 
REMARK    5  A    between atoms: N_5  and  C_8 
REMARK    6  A    between atoms: Se_6  and  C_7 
REMARK    7  A    between atoms: C_7  and  C_8 
REMARK    8  A    between atoms: C_8  and  C_9 
REMARK       I    between atoms: C_9  and  N_10 
ROOT
HETATM    1  O           1     -20.456  -4.839  -5.685  0.00  0.00    -0.271 OA
HETATM    2  C           1     -20.942  -5.612  -6.475  0.00  0.00     0.249 C 
HETATM    3  N           1     -20.986  -6.949  -6.186  0.00  0.00    -0.345 N 
HETATM    4  H           1     -21.394  -7.597  -6.848  0.00  0.00     0.163 HD
ENDROOT
BRANCH   2   5
HETATM    5  C           1     -21.503  -5.104  -7.780  0.00  0.00     0.274 C 
BRANCH   5   6
HETATM    6  N           1     -22.537  -4.053  -7.504  0.00  0.00    -0.067 N 
HETATM    7  H           1     -22.290  -3.544  -6.625  0.00  0.00     0.275 HD
HETATM    8  H           1     -22.569  -3.378  -8.300  0.00  0.00     0.275 HD
HETATM    9  H           1     -23.472  -4.506  -7.392  0.00  0.00     0.275 HD
ENDBRANCH   5   6
BRANCH   5  10
HETATM   10  C           1     -20.380  -4.502  -8.615  0.00  0.00     0.045 C 
BRANCH  10  11
HETATM   11 Se           1     -21.043  -4.089 -10.400  0.00  0.00     0.000 Se
HETATM   12  H           1     -19.783  -4.442 -11.075  0.00  0.00     0.000 HD
ENDBRANCH  10  11
ENDBRANCH   5  10
ENDBRANCH   2   5
BRANCH   3  13
HETATM   13  C           1     -20.448  -7.439  -4.931  0.00  0.00     0.185 C 
BRANCH  13  14
HETATM   14  C           1     -21.566  -7.539  -3.903  0.00  0.00     0.040 C 
BRANCH  14  15
HETATM   15  C           1     -21.091  -6.961  -2.577  0.00  0.00    -0.020 C 
HETATM   16  C           1     -20.666  -8.095  -1.653  0.00  0.00     0.009 C 
HETATM   17  C           1     -22.226  -6.178  -1.929  0.00  0.00     0.009 C 
ENDBRANCH  14  15
ENDBRANCH  13  14
BRANCH  13  18
HETATM   18  C           1     -19.837  -8.802  -5.146  0.00  0.00     0.196 C 
HETATM   19  O           1     -18.704  -9.059  -4.681  0.00  0.00    -0.646 OA
HETATM   20  O           1     -20.461  -9.673  -5.788  0.00  0.00    -0.646 OA
ENDBRANCH  13  18
ENDBRANCH   3  13
TORSDOF 8
ENDMDL
MODEL 6
REMARK VINA RESULT:      -4.9     12.813     14.017
REMARK  8 active torsions:
REMARK  status: ('A' for Active; 'I' for Inactive)
REMARK    1  A    between atoms: C_1  and  C_2 
REMARK    2  A    between atoms: C_1  and  C_13 
REMARK    3  A    between atoms: C_1  and  N_10 
REMARK    4  A    between atoms: C_2  and  C_15 
REMARK    5  A    between atoms: N_5  and  C_8 
REMARK    6  A    between atoms: Se_6  and  C_7 
REMARK    7  A    between atoms: C_7  and  C_8 
REMARK    8  A    between atoms: C_8  and  C_9 
REMARK       I    between atoms: C_9  and  N_10 
ROOT
HETATM    1  O           1     -21.057  -7.171  -6.731  0.00  0.00    -0.271 OA
HETATM    2  C           1     -21.252  -6.180  -6.069  0.00  0.00     0.249 C 
HETATM    3  N           1     -21.486  -4.981  -6.685  0.00  0.00    -0.345 N 
HETATM    4  H           1     -21.650  -4.149  -6.131  0.00  0.00     0.163 HD
ENDROOT
BRANCH   2   5
HETATM    5  C           1     -21.238  -6.264  -4.562  0.00  0.00     0.274 C 
BRANCH   5   6
HETATM    6  N           1     -22.643  -6.177  -4.045  0.00  0.00    -0.067 N 
HETATM    7  H           1     -22.868  -7.042  -3.502  0.00  0.00     0.275 HD
HETATM    8  H           1     -22.735  -5.343  -3.424  0.00  0.00     0.275 HD
HETATM    9  H           1     -23.305  -6.090  -4.848  0.00  0.00     0.275 HD
ENDBRANCH   5   6
BRANCH   5  10
HETATM   10  C           1     -20.620  -7.588  -4.133  0.00  0.00     0.045 C 
BRANCH  10  11
HETATM   11 Se           1     -20.781  -7.787  -2.201  0.00  0.00     0.000 Se
HETATM   12  H           1     -22.074  -7.088  -2.121  0.00  0.00     0.000 HD
ENDBRANCH  10  11
ENDBRANCH   5  10
ENDBRANCH   2   5
BRANCH   3  13
HETATM   13  C           1     -21.500  -4.899  -8.133  0.00  0.00     0.185 C 
BRANCH  13  14
HETATM   14  C           1     -22.426  -3.773  -8.570  0.00  0.00     0.040 C 
BRANCH  14  15
HETATM   15  C           1     -23.573  -4.347  -9.391  0.00  0.00    -0.020 C 
HETATM   16  C           1     -23.070  -4.706 -10.783  0.00  0.00     0.009 C 
HETATM   17  C           1     -24.684  -3.312  -9.504  0.00  0.00     0.009 C 
ENDBRANCH  14  15
ENDBRANCH  13  14
BRANCH  13  18
HETATM   18  C           1     -20.102  -4.625  -8.633  0.00  0.00     0.196 C 
HETATM   19  O           1     -19.784  -4.937  -9.801  0.00  0.00    -0.646 OA
HETATM   20  O           1     -19.263  -4.085  -7.880  0.00  0.00    -0.646 OA
ENDBRANCH  13  18
ENDBRANCH   3  13
TORSDOF 8
ENDMDL
MODEL 7
REMARK VINA RESULT:      -4.7      3.069      5.931
REMARK  8 active torsions:
REMARK  status: ('A' for Active; 'I' for Inactive)
REMARK    1  A    between atoms: C_1  and  C_2 
REMARK    2  A    between atoms: C_1  and  C_13 
REMARK    3  A    between atoms: C_1  and  N_10 
REMARK    4  A    between atoms: C_2  and  C_15 
REMARK    5  A    between atoms: N_5  and  C_8 
REMARK    6  A    between atoms: Se_6  and  C_7 
REMARK    7  A    between atoms: C_7  and  C_8 
REMARK    8  A    between atoms: C_8  and  C_9 
REMARK       I    between atoms: C_9  and  N_10 
ROOT
HETATM    1  O           1     -28.451  -6.735 -18.636  0.00  0.00    -0.271 OA
HETATM    2  C           1     -27.877  -5.855 -18.041  0.00  0.00     0.249 C 
HETATM    3  N           1     -26.511  -5.865 -17.954  0.00  0.00    -0.345 N 
HETATM    4  H           1     -26.029  -5.127 -17.455  0.00  0.00     0.163 HD
ENDROOT
BRANCH   2   5
HETATM    5  C           1     -28.665  -4.743 -17.393  0.00  0.00     0.274 C 
BRANCH   5   6
HETATM    6  N           1     -29.505  -4.057 -18.429  0.00  0.00    -0.067 N 
HETATM    7  H           1     -29.112  -4.250 -19.379  0.00  0.00     0.275 HD
HETATM    8  H           1     -30.484  -4.418 -18.378  0.00  0.00     0.275 HD
HETATM    9  H           1     -29.502  -3.027 -18.255  0.00  0.00     0.275 HD
ENDBRANCH   5   6
BRANCH   5  10
HETATM   10  C           1     -29.567  -5.324 -16.311  0.00  0.00     0.045 C 
BRANCH  10  11
HETATM   11 Se           1     -31.427  -4.913 -16.725  0.00  0.00     0.000 Se
HETATM   12  H           1     -31.275  -5.136 -18.172  0.00  0.00     0.000 HD
ENDBRANCH  10  11
ENDBRANCH   5  10
ENDBRANCH   2   5
BRANCH   3  13
HETATM   13  C           1     -25.753  -6.933 -18.577  0.00  0.00     0.185 C 
BRANCH  13  14
HETATM   14  C           1     -25.504  -6.594 -20.040  0.00  0.00     0.040 C 
BRANCH  14  15
HETATM   15  C           1     -25.360  -7.880 -20.843  0.00  0.00    -0.020 C 
HETATM   16  C           1     -24.472  -7.625 -22.054  0.00  0.00     0.009 C 
HETATM   17  C           1     -26.734  -8.343 -21.309  0.00  0.00     0.009 C 
ENDBRANCH  14  15
ENDBRANCH  13  14
BRANCH  13  18
HETATM   18  C           1     -24.431  -7.091 -17.865  0.00  0.00     0.196 C 
HETATM   19  O           1     -23.371  -6.747 -18.432  0.00  0.00    -0.646 OA
HETATM   20  O           1     -24.396  -7.566 -16.709  0.00  0.00    -0.646 OA
ENDBRANCH  13  18
ENDBRANCH   3  13
TORSDOF 8
ENDMDL
MODEL 8
REMARK VINA RESULT:      -4.7     16.900     17.848
REMARK  8 active torsions:
REMARK  status: ('A' for Active; 'I' for Inactive)
REMARK    1  A    between atoms: C_1  and  C_2 
REMARK    2  A    between atoms: C_1  and  C_13 
REMARK    3  A    between atoms: C_1  and  N_10 
REMARK    4  A    between atoms: C_2  and  C_15 
REMARK    5  A    between atoms: N_5  and  C_8 
REMARK    6  A    between atoms: Se_6  and  C_7 
REMARK    7  A    between atoms: C_7  and  C_8 
REMARK    8  A    between atoms: C_8  and  C_9 
REMARK       I    between atoms: C_9  and  N_10 
ROOT
HETATM    1  O           1     -21.257  -5.952  -2.953  0.00  0.00    -0.271 OA
HETATM    2  C           1     -21.389  -6.846  -3.754  0.00  0.00     0.249 C 
HETATM    3  N           1     -21.078  -8.132  -3.401  0.00  0.00    -0.345 N 
HETATM    4  H           1     -21.189  -8.882  -4.073  0.00  0.00     0.163 HD
ENDROOT
BRANCH   2   5
HETATM    5  C           1     -21.897  -6.547  -5.143  0.00  0.00     0.274 C 
BRANCH   5   6
HETATM    6  N           1     -23.323  -6.090  -5.065  0.00  0.00    -0.067 N 
HETATM    7  H           1     -23.377  -5.073  -5.301  0.00  0.00     0.275 HD
HETATM    8  H           1     -23.901  -6.635  -5.743  0.00  0.00     0.275 HD
HETATM    9  H           1     -23.685  -6.241  -4.097  0.00  0.00     0.275 HD
ENDBRANCH   5   6
BRANCH   5  10
HETATM   10  C           1     -21.046  -5.449  -5.769  0.00  0.00     0.045 C 
BRANCH  10  11
HETATM   11 Se           1     -22.037  -4.602  -7.218  0.00  0.00     0.000 Se
HETATM   12  H           1     -22.982  -3.913  -6.324  0.00  0.00     0.000 HD
ENDBRANCH  10  11
ENDBRANCH   5  10
ENDBRANCH   2   5
BRANCH   3  13
HETATM   13  C           1     -20.590  -8.420  -2.067  0.00  0.00     0.185 C 
BRANCH  13  14
HETATM   14  C           1     -21.735  -8.940  -1.208  0.00  0.00     0.040 C 
BRANCH  14  15
HETATM   15  C           1     -21.813  -8.132   0.080  0.00  0.00    -0.020 C 
HETATM   16  C           1     -21.035  -8.848   1.176  0.00  0.00     0.009 C 
HETATM   17  C           1     -23.270  -7.989   0.502  0.00  0.00     0.009 C 
ENDBRANCH  14  15
ENDBRANCH  13  14
BRANCH  13  18
HETATM   18  C           1     -19.505  -9.466  -2.145  0.00  0.00     0.196 C 
HETATM   19  O           1     -18.415  -9.195  -2.696  0.00  0.00    -0.646 OA
HETATM   20  O           1     -19.694 -10.602  -1.660  0.00  0.00    -0.646 OA
ENDBRANCH  13  18
ENDBRANCH   3  13
TORSDOF 8
ENDMDL
MODEL 9
REMARK VINA RESULT:      -4.7     17.020     17.856
REMARK  8 active torsions:
REMARK  status: ('A' for Active; 'I' for Inactive)
REMARK    1  A    between atoms: C_1  and  C_2 
REMARK    2  A    between atoms: C_1  and  C_13 
REMARK    3  A    between atoms: C_1  and  N_10 
REMARK    4  A    between atoms: C_2  and  C_15 
REMARK    5  A    between atoms: N_5  and  C_8 
REMARK    6  A    between atoms: Se_6  and  C_7 
REMARK    7  A    between atoms: C_7  and  C_8 
REMARK    8  A    between atoms: C_8  and  C_9 
REMARK       I    between atoms: C_9  and  N_10 
ROOT
HETATM    1  O           1     -22.141 -10.154  -3.537  0.00  0.00    -0.271 OA
HETATM    2  C           1     -21.091  -9.610  -3.780  0.00  0.00     0.249 C 
HETATM    3  N           1     -20.763  -8.442  -3.147  0.00  0.00    -0.345 N 
HETATM    4  H           1     -19.882  -7.986  -3.350  0.00  0.00     0.163 HD
ENDROOT
BRANCH   2   5
HETATM    5  C           1     -20.138 -10.219  -4.779  0.00  0.00     0.274 C 
BRANCH   5   6
HETATM    6  N           1     -20.867 -10.488  -6.062  0.00  0.00    -0.067 N 
HETATM    7  H           1     -21.162 -11.491  -6.092  0.00  0.00     0.275 HD
HETATM    8  H           1     -21.711  -9.876  -6.118  0.00  0.00     0.275 HD
HETATM    9  H           1     -20.236 -10.288  -6.870  0.00  0.00     0.275 HD
ENDBRANCH   5   6
BRANCH   5  10
HETATM   10  C           1     -18.991  -9.253  -5.041  0.00  0.00     0.045 C 
BRANCH  10  11
HETATM   11 Se           1     -17.406  -9.846  -4.074  0.00  0.00     0.000 Se
HETATM   12  H           1     -17.665  -8.998  -2.898  0.00  0.00     0.000 HD
ENDBRANCH  10  11
ENDBRANCH   5  10
ENDBRANCH   2   5
BRANCH   3  13
HETATM   13  C           1     -21.677  -7.856  -2.186  0.00  0.00     0.185 C 
BRANCH  13  14
HETATM   14  C           1     -21.026  -7.840  -0.809  0.00  0.00     0.040 C 
BRANCH  14  15
HETATM   15  C           1     -21.789  -8.770   0.125  0.00  0.00    -0.020 C 
HETATM   16  C           1     -23.150  -8.165   0.443  0.00  0.00     0.009 C 
HETATM   17  C           1     -21.000  -8.952   1.415  0.00  0.00     0.009 C 
ENDBRANCH  14  15
ENDBRANCH  13  14
BRANCH  13  18
HETATM   18  C           1     -22.007  -6.444  -2.603  0.00  0.00     0.196 C 
HETATM   19  O           1     -22.360  -5.604  -1.746  0.00  0.00    -0.646 OA
HETATM   20  O           1     -21.927  -6.112  -3.806  0.00  0.00    -0.646 OA
ENDBRANCH  13  18
ENDBRANCH   3  13
TORSDOF 8
ENDMDL
