MODEL 1
REMARK VINA RESULT:      -6.3      0.000      0.000
REMARK  10 active torsions:
REMARK  status: ('A' for Active; 'I' for Inactive)
REMARK       I    between atoms: N_3  and  C_24 
REMARK       I    between atoms: N_4  and  C_24 
REMARK    1  A    between atoms: N_4  and  C_18 
REMARK    2  A    between atoms: N_7  and  C_16 
REMARK       I    between atoms: N_7  and  C_9 
REMARK    3  A    between atoms: C_9  and  C_10 
REMARK    4  A    between atoms: C_10  and  C_11 
REMARK    5  A    between atoms: C_10  and  N_15 
REMARK    6  A    between atoms: C_11  and  C_12 
REMARK       I    between atoms: C_12  and  N_13 
REMARK    7  A    between atoms: C_16  and  C_22 
REMARK    8  A    between atoms: C_16  and  C_25 
REMARK    9  A    between atoms: C_17  and  C_18 
REMARK   10  A    between atoms: C_17  and  C_22 
ROOT
HETATM    1  C           1     -20.811  -6.804  -5.299  0.00  0.00     0.185 C 
ENDROOT
BRANCH   1   2
HETATM    2  N           1     -21.302  -6.440  -6.614  0.00  0.00    -0.345 N 
HETATM    3  C           1     -21.162  -5.155  -7.064  0.00  0.00     0.249 C 
HETATM    4  O           1     -20.630  -4.324  -6.367  0.00  0.00    -0.271 OA
HETATM    5  H           1     -21.748  -7.135  -7.198  0.00  0.00     0.163 HD
BRANCH   3   6
HETATM    6  C           1     -21.673  -4.776  -8.432  0.00  0.00     0.283 C 
BRANCH   6   7
HETATM    7  C           1     -20.520  -4.250  -9.278  0.00  0.00     0.145 C 
BRANCH   7   8
HETATM    8  C           1     -21.001  -3.999 -10.685  0.00  0.00     0.217 C 
HETATM    9  N           1     -20.344  -3.101 -11.484  0.00  0.00    -0.370 N 
HETATM   10  H           1     -20.668  -2.932 -12.428  0.00  0.00     0.159 HD
HETATM   11  H           1     -19.537  -2.606 -11.130  0.00  0.00     0.159 HD
HETATM   12  O           1     -21.967  -4.589 -11.108  0.00  0.00    -0.274 OA
ENDBRANCH   7   8
ENDBRANCH   6   7
BRANCH   6  13
HETATM   13  N           1     -22.719  -3.709  -8.298  0.00  0.00    -0.066 N 
HETATM   14  H           1     -22.687  -3.080  -9.132  0.00  0.00     0.275 HD
HETATM   15  H           1     -23.663  -4.153  -8.233  0.00  0.00     0.275 HD
HETATM   16  H           1     -22.538  -3.151  -7.433  0.00  0.00     0.275 HD
ENDBRANCH   6  13
ENDBRANCH   3   6
ENDBRANCH   1   2
BRANCH   1  17
HETATM   17  C           1     -21.948  -6.711  -4.290  0.00  0.00     0.038 C 
BRANCH  17  18
HETATM   18  C           1     -21.421  -6.140  -2.980  0.00  0.00     0.023 C 
BRANCH  18  19
HETATM   19  C           1     -21.267  -7.262  -1.961  0.00  0.00     0.138 C 
BRANCH  19  20
HETATM   20  N           1     -22.248  -7.082  -0.881  0.00  0.00    -0.227 N 
HETATM   21  C           1     -22.663  -8.084  -0.229  0.00  0.00     0.665 C 
HETATM   22  N           1     -22.233  -9.243  -0.507  0.00  0.00    -0.235 N 
HETATM   23  N           1     -23.530  -7.925   0.727  0.00  0.00    -0.235 N 
HETATM   24  H           1     -21.533  -9.371  -1.278  0.00  0.00     0.174 HD
HETATM   25  H           1     -22.577 -10.074   0.034  0.00  0.00     0.174 HD
HETATM   26  H           1     -23.872  -8.753   1.264  0.00  0.00     0.174 HD
HETATM   27  H           1     -23.884  -6.969   0.956  0.00  0.00     0.174 HD
HETATM   28  H           1     -22.604  -6.122  -0.650  0.00  0.00     0.177 HD
ENDBRANCH  19  20
ENDBRANCH  18  19
ENDBRANCH  17  18
ENDBRANCH   1  17
BRANCH   1  29
HETATM   29  C           1     -20.282  -8.216  -5.333  0.00  0.00     0.196 C 
HETATM   30  O           1     -19.146  -8.470  -4.876  0.00  0.00    -0.646 OA
HETATM   31  O           1     -20.979  -9.134  -5.819  0.00  0.00    -0.646 OA
ENDBRANCH   1  29
TORSDOF 10
ENDMDL
MODEL 2
REMARK VINA RESULT:      -6.2      1.759      7.927
REMARK  10 active torsions:
REMARK  status: ('A' for Active; 'I' for Inactive)
REMARK       I    between atoms: N_3  and  C_24 
REMARK       I    between atoms: N_4  and  C_24 
REMARK    1  A    between atoms: N_4  and  C_18 
REMARK    2  A    between atoms: N_7  and  C_16 
REMARK       I    between atoms: N_7  and  C_9 
REMARK    3  A    between atoms: C_9  and  C_10 
REMARK    4  A    between atoms: C_10  and  C_11 
REMARK    5  A    between atoms: C_10  and  N_15 
REMARK    6  A    between atoms: C_11  and  C_12 
REMARK       I    between atoms: C_12  and  N_13 
REMARK    7  A    between atoms: C_16  and  C_22 
REMARK    8  A    between atoms: C_16  and  C_25 
REMARK    9  A    between atoms: C_17  and  C_18 
REMARK   10  A    between atoms: C_17  and  C_22 
ROOT
HETATM    1  C           1     -21.500  -5.035  -7.357  0.00  0.00     0.185 C 
ENDROOT
BRANCH   1   2
HETATM    2  N           1     -21.807  -5.504  -6.020  0.00  0.00    -0.345 N 
HETATM    3  C           1     -21.622  -6.822  -5.699  0.00  0.00     0.249 C 
HETATM    4  O           1     -21.204  -7.594  -6.529  0.00  0.00    -0.271 OA
HETATM    5  H           1     -22.157  -4.859  -5.324  0.00  0.00     0.163 HD
BRANCH   3   6
HETATM    6  C           1     -21.941  -7.312  -4.308  0.00  0.00     0.283 C 
BRANCH   6   7
HETATM    7  C           1     -21.307  -6.380  -3.283  0.00  0.00     0.145 C 
BRANCH   7   8
HETATM    8  C           1     -21.356  -7.023  -1.919  0.00  0.00     0.217 C 
HETATM    9  N           1     -22.397  -6.752  -1.072  0.00  0.00    -0.370 N 
HETATM   10  H           1     -22.430  -7.183  -0.157  0.00  0.00     0.159 HD
HETATM   11  H           1     -23.133  -6.121  -1.361  0.00  0.00     0.159 HD
HETATM   12  O           1     -20.476  -7.775  -1.574  0.00  0.00    -0.274 OA
ENDBRANCH   7   8
ENDBRANCH   6   7
BRANCH   6  13
HETATM   13  N           1     -21.394  -8.697  -4.128  0.00  0.00    -0.066 N 
HETATM   14  H           1     -22.081  -9.394  -4.495  0.00  0.00     0.275 HD
HETATM   15  H           1     -20.494  -8.787  -4.650  0.00  0.00     0.275 HD
HETATM   16  H           1     -21.226  -8.876  -3.112  0.00  0.00     0.275 HD
ENDBRANCH   6  13
ENDBRANCH   3   6
ENDBRANCH   1   2
BRANCH   1  17
HETATM   17  C           1     -22.497  -3.953  -7.755  0.00  0.00     0.038 C 
BRANCH  17  18
HETATM   18  C           1     -23.476  -4.515  -8.777  0.00  0.00     0.023 C 
BRANCH  18  19
HETATM   19  C           1     -23.427  -3.670 -10.045  0.00  0.00     0.138 C 
BRANCH  19  20
HETATM   20  N           1     -22.031  -3.332 -10.356  0.00  0.00    -0.227 N 
HETATM   21  C           1     -21.475  -3.821 -11.383  0.00  0.00     0.665 C 
HETATM   22  N           1     -22.122  -4.601 -12.142  0.00  0.00    -0.235 N 
HETATM   23  N           1     -20.240  -3.522 -11.658  0.00  0.00    -0.235 N 
HETATM   24  H           1     -23.119  -4.843 -11.920  0.00  0.00     0.174 HD
HETATM   25  H           1     -21.661  -5.006 -12.994  0.00  0.00     0.174 HD
HETATM   26  H           1     -19.782  -3.925 -12.506  0.00  0.00     0.174 HD
HETATM   27  H           1     -19.707  -2.878 -11.032  0.00  0.00     0.174 HD
HETATM   28  H           1     -21.494  -2.685  -9.727  0.00  0.00     0.177 HD
ENDBRANCH  19  20
ENDBRANCH  18  19
ENDBRANCH  17  18
ENDBRANCH   1  17
BRANCH   1  29
HETATM   29  C           1     -20.103  -4.466  -7.382  0.00  0.00     0.196 C 
HETATM   30  O           1     -19.705  -3.829  -8.381  0.00  0.00    -0.646 OA
HETATM   31  O           1     -19.343  -4.631  -6.403  0.00  0.00    -0.646 OA
ENDBRANCH   1  29
TORSDOF 10
ENDMDL
MODEL 3
REMARK VINA RESULT:      -6.2      1.529      1.960
REMARK  10 active torsions:
REMARK  status: ('A' for Active; 'I' for Inactive)
REMARK       I    between atoms: N_3  and  C_24 
REMARK       I    between atoms: N_4  and  C_24 
REMARK    1  A    between atoms: N_4  and  C_18 
REMARK    2  A    between atoms: N_7  and  C_16 
REMARK       I    between atoms: N_7  and  C_9 
REMARK    3  A    between atoms: C_9  and  C_10 
REMARK    4  A    between atoms: C_10  and  C_11 
REMARK    5  A    between atoms: C_10  and  N_15 
REMARK    6  A    between atoms: C_11  and  C_12 
REMARK       I    between atoms: C_12  and  N_13 
REMARK    7  A    between atoms: C_16  and  C_22 
REMARK    8  A    between atoms: C_16  and  C_25 
REMARK    9  A    between atoms: C_17  and  C_18 
REMARK   10  A    between atoms: C_17  and  C_22 
ROOT
HETATM    1  C           1     -21.065  -6.601  -4.506  0.00  0.00     0.185 C 
ENDROOT
BRANCH   1   2
HETATM    2  N           1     -21.434  -5.865  -5.699  0.00  0.00    -0.345 N 
HETATM    3  C           1     -20.666  -4.813  -6.118  0.00  0.00     0.249 C 
HETATM    4  O           1     -19.680  -4.497  -5.495  0.00  0.00    -0.271 OA
HETATM    5  H           1     -22.259  -6.129  -6.222  0.00  0.00     0.163 HD
BRANCH   3   6
HETATM    6  C           1     -21.049  -4.047  -7.360  0.00  0.00     0.283 C 
BRANCH   6   7
HETATM    7  C           1     -22.078  -4.843  -8.152  0.00  0.00     0.145 C 
BRANCH   7   8
HETATM    8  C           1     -22.890  -3.905  -9.010  0.00  0.00     0.217 C 
HETATM    9  N           1     -24.187  -3.619  -8.675  0.00  0.00    -0.370 N 
HETATM   10  H           1     -24.731  -2.990  -9.251  0.00  0.00     0.159 HD
HETATM   11  H           1     -24.600  -4.037  -7.852  0.00  0.00     0.159 HD
HETATM   12  O           1     -22.396  -3.406  -9.994  0.00  0.00    -0.274 OA
ENDBRANCH   7   8
ENDBRANCH   6   7
BRANCH   6  13
HETATM   13  N           1     -19.831  -3.825  -8.207  0.00  0.00    -0.066 N 
HETATM   14  H           1     -19.842  -2.852  -8.588  0.00  0.00     0.275 HD
HETATM   15  H           1     -18.973  -3.961  -7.626  0.00  0.00     0.275 HD
HETATM   16  H           1     -19.827  -4.509  -8.997  0.00  0.00     0.275 HD
ENDBRANCH   6  13
ENDBRANCH   3   6
ENDBRANCH   1   2
BRANCH   1  17
HETATM   17  C           1     -22.249  -6.640  -3.548  0.00  0.00     0.038 C 
BRANCH  17  18
HETATM   18  C           1     -21.835  -6.056  -2.204  0.00  0.00     0.023 C 
BRANCH  18  19
HETATM   19  C           1     -22.253  -7.005  -1.087  0.00  0.00     0.138 C 
BRANCH  19  20
HETATM   20  N           1     -21.828  -8.372  -1.420  0.00  0.00    -0.227 N 
HETATM   21  C           1     -22.340  -9.359  -0.816  0.00  0.00     0.665 C 
HETATM   22  N           1     -23.219  -9.169   0.076  0.00  0.00    -0.235 N 
HETATM   23  N           1     -21.965 -10.569  -1.111  0.00  0.00    -0.235 N 
HETATM   24  H           1     -23.522  -8.193   0.314  0.00  0.00     0.174 HD
HETATM   25  H           1     -23.644  -9.988   0.578  0.00  0.00     0.174 HD
HETATM   26  H           1     -22.388 -11.383  -0.611  0.00  0.00     0.174 HD
HETATM   27  H           1     -21.240 -10.725  -1.847  0.00  0.00     0.174 HD
HETATM   28  H           1     -21.100  -8.531  -2.160  0.00  0.00     0.177 HD
ENDBRANCH  19  20
ENDBRANCH  18  19
ENDBRANCH  17  18
ENDBRANCH   1  17
BRANCH   1  29
HETATM   29  C           1     -20.677  -8.009  -4.884  0.00  0.00     0.196 C 
HETATM   30  O           1     -19.769  -8.204  -5.721  0.00  0.00    -0.646 OA
HETATM   31  O           1     -21.262  -8.981  -4.360  0.00  0.00    -0.646 OA
ENDBRANCH   1  29
TORSDOF 10
ENDMDL
MODEL 4
REMARK VINA RESULT:      -5.9      1.666      2.214
REMARK  10 active torsions:
REMARK  status: ('A' for Active; 'I' for Inactive)
REMARK       I    between atoms: N_3  and  C_24 
REMARK       I    between atoms: N_4  and  C_24 
REMARK    1  A    between atoms: N_4  and  C_18 
REMARK    2  A    between atoms: N_7  and  C_16 
REMARK       I    between atoms: N_7  and  C_9 
REMARK    3  A    between atoms: C_9  and  C_10 
REMARK    4  A    between atoms: C_10  and  C_11 
REMARK    5  A    between atoms: C_10  and  N_15 
REMARK    6  A    between atoms: C_11  and  C_12 
REMARK       I    between atoms: C_12  and  N_13 
REMARK    7  A    between atoms: C_16  and  C_22 
REMARK    8  A    between atoms: C_16  and  C_25 
REMARK    9  A    between atoms: C_17  and  C_18 
REMARK   10  A    between atoms: C_17  and  C_22 
ROOT
HETATM    1  C           1     -21.074  -5.694  -6.619  0.00  0.00     0.185 C 
ENDROOT
BRANCH   1   2
HETATM    2  N           1     -21.869  -5.505  -7.817  0.00  0.00    -0.345 N 
HETATM    3  C           1     -22.333  -4.258  -8.140  0.00  0.00     0.249 C 
HETATM    4  O           1     -22.080  -3.316  -7.428  0.00  0.00    -0.271 OA
HETATM    5  H           1     -22.082  -6.295  -8.413  0.00  0.00     0.163 HD
BRANCH   3   6
HETATM    6  C           1     -23.161  -4.061  -9.386  0.00  0.00     0.283 C 
BRANCH   6   7
HETATM    7  C           1     -22.399  -3.183 -10.369  0.00  0.00     0.145 C 
BRANCH   7   8
HETATM    8  C           1     -21.441  -4.034 -11.167  0.00  0.00     0.217 C 
HETATM    9  N           1     -21.576  -4.124 -12.527  0.00  0.00    -0.370 N 
HETATM   10  H           1     -20.935  -4.695 -13.062  0.00  0.00     0.159 HD
HETATM   11  H           1     -22.317  -3.620 -12.996  0.00  0.00     0.159 HD
HETATM   12  O           1     -20.558  -4.637 -10.607  0.00  0.00    -0.274 OA
ENDBRANCH   7   8
ENDBRANCH   6   7
BRANCH   6  13
HETATM   13  N           1     -24.457  -3.398  -9.025  0.00  0.00    -0.066 N 
HETATM   14  H           1     -24.738  -3.681  -8.059  0.00  0.00     0.275 HD
HETATM   15  H           1     -24.339  -2.360  -9.062  0.00  0.00     0.275 HD
HETATM   16  H           1     -25.197  -3.688  -9.703  0.00  0.00     0.275 HD
ENDBRANCH   6  13
ENDBRANCH   3   6
ENDBRANCH   1   2
BRANCH   1  17
HETATM   17  C           1     -21.518  -6.967  -5.911  0.00  0.00     0.038 C 
BRANCH  17  18
HETATM   18  C           1     -22.386  -6.607  -4.713  0.00  0.00     0.023 C 
BRANCH  18  19
HETATM   19  C           1     -21.500  -6.127  -3.569  0.00  0.00     0.138 C 
BRANCH  19  20
HETATM   20  N           1     -22.242  -6.214  -2.303  0.00  0.00    -0.227 N 
HETATM   21  C           1     -21.922  -7.083  -1.441  0.00  0.00     0.665 C 
HETATM   22  N           1     -20.963  -7.878  -1.668  0.00  0.00    -0.235 N 
HETATM   23  N           1     -22.578  -7.160  -0.321  0.00  0.00    -0.235 N 
HETATM   24  H           1     -20.433  -7.816  -2.572  0.00  0.00     0.174 HD
HETATM   25  H           1     -20.697  -8.598  -0.952  0.00  0.00     0.174 HD
HETATM   26  H           1     -22.314  -7.877   0.391  0.00  0.00     0.174 HD
HETATM   27  H           1     -23.370  -6.504  -0.134  0.00  0.00     0.174 HD
HETATM   28  H           1     -23.037  -5.555  -2.115  0.00  0.00     0.177 HD
ENDBRANCH  19  20
ENDBRANCH  18  19
ENDBRANCH  17  18
ENDBRANCH   1  17
BRANCH   1  29
HETATM   29  C           1     -19.618  -5.810  -6.997  0.00  0.00     0.196 C 
HETATM   30  O           1     -19.070  -6.933  -7.039  0.00  0.00    -0.646 OA
HETATM   31  O           1     -18.958  -4.783  -7.268  0.00  0.00    -0.646 OA
ENDBRANCH   1  29
TORSDOF 10
ENDMDL
MODEL 5
REMARK VINA RESULT:      -5.9      3.339      6.788
REMARK  10 active torsions:
REMARK  status: ('A' for Active; 'I' for Inactive)
REMARK       I    between atoms: N_3  and  C_24 
REMARK       I    between atoms: N_4  and  C_24 
REMARK    1  A    between atoms: N_4  and  C_18 
REMARK    2  A    between atoms: N_7  and  C_16 
REMARK       I    between atoms: N_7  and  C_9 
REMARK    3  A    between atoms: C_9  and  C_10 
REMARK    4  A    between atoms: C_10  and  C_11 
REMARK    5  A    between atoms: C_10  and  N_15 
REMARK    6  A    between atoms: C_11  and  C_12 
REMARK       I    between atoms: C_12  and  N_13 
REMARK    7  A    between atoms: C_16  and  C_22 
REMARK    8  A    between atoms: C_16  and  C_25 
REMARK    9  A    between atoms: C_17  and  C_18 
REMARK   10  A    between atoms: C_17  and  C_22 
ROOT
HETATM    1  C           1     -20.985  -6.855  -5.533  0.00  0.00     0.185 C 
ENDROOT
BRANCH   1   2
HETATM    2  N           1     -21.157  -8.282  -5.726  0.00  0.00    -0.345 N 
HETATM    3  C           1     -20.479  -9.166  -4.930  0.00  0.00     0.249 C 
HETATM    4  O           1     -19.739  -8.758  -4.067  0.00  0.00    -0.271 OA
HETATM    5  H           1     -21.777  -8.624  -6.448  0.00  0.00     0.163 HD
BRANCH   3   6
HETATM    6  C           1     -20.659 -10.651  -5.129  0.00  0.00     0.283 C 
BRANCH   6   7
HETATM    7  C           1     -19.304 -11.342  -5.045  0.00  0.00     0.145 C 
BRANCH   7   8
HETATM    8  C           1     -18.433 -10.886  -6.189  0.00  0.00     0.217 C 
HETATM    9  N           1     -17.429  -9.981  -5.967  0.00  0.00    -0.370 N 
HETATM   10  H           1     -16.845  -9.675  -6.735  0.00  0.00     0.159 HD
HETATM   11  H           1     -17.271  -9.620  -5.036  0.00  0.00     0.159 HD
HETATM   12  O           1     -18.623 -11.317  -7.301  0.00  0.00    -0.274 OA
ENDBRANCH   7   8
ENDBRANCH   6   7
BRANCH   6  13
HETATM   13  N           1     -21.265 -10.904  -6.478  0.00  0.00    -0.066 N 
HETATM   14  H           1     -21.591 -10.001  -6.890  0.00  0.00     0.275 HD
HETATM   15  H           1     -20.549 -11.334  -7.106  0.00  0.00     0.275 HD
HETATM   16  H           1     -22.076 -11.556  -6.378  0.00  0.00     0.275 HD
ENDBRANCH   6  13
ENDBRANCH   3   6
ENDBRANCH   1   2
BRANCH   1  17
HETATM   17  C           1     -20.904  -6.167  -6.890  0.00  0.00     0.038 C 
BRANCH  17  18
HETATM   18  C           1     -20.053  -4.909  -6.773  0.00  0.00     0.023 C 
BRANCH  18  19
HETATM   19  C           1     -20.734  -3.764  -7.513  0.00  0.00     0.138 C 
BRANCH  19  20
HETATM   20  N           1     -22.193  -3.918  -7.420  0.00  0.00    -0.227 N 
HETATM   21  C           1     -22.902  -3.871  -8.467  0.00  0.00     0.665 C 
HETATM   22  N           1     -22.355  -3.692  -9.595  0.00  0.00    -0.235 N 
HETATM   23  N           1     -24.193  -4.007  -8.385  0.00  0.00    -0.235 N 
HETATM   24  H           1     -21.313  -3.582  -9.661  0.00  0.00     0.174 HD
HETATM   25  H           1     -22.944  -3.653 -10.464  0.00  0.00     0.174 HD
HETATM   26  H           1     -24.778  -3.969  -9.249  0.00  0.00     0.174 HD
HETATM   27  H           1     -24.644  -4.155  -7.454  0.00  0.00     0.174 HD
HETATM   28  H           1     -22.647  -4.067  -6.485  0.00  0.00     0.177 HD
ENDBRANCH  19  20
ENDBRANCH  18  19
ENDBRANCH  17  18
ENDBRANCH   1  17
BRANCH   1  29
HETATM   29  C           1     -22.158  -6.307  -4.760  0.00  0.00     0.196 C 
HETATM   30  O           1     -23.202  -5.971  -5.361  0.00  0.00    -0.646 OA
HETATM   31  O           1     -22.088  -6.189  -3.517  0.00  0.00    -0.646 OA
ENDBRANCH   1  29
TORSDOF 10
ENDMDL
MODEL 6
REMARK VINA RESULT:      -5.7      2.867      7.211
REMARK  10 active torsions:
REMARK  status: ('A' for Active; 'I' for Inactive)
REMARK       I    between atoms: N_3  and  C_24 
REMARK       I    between atoms: N_4  and  C_24 
REMARK    1  A    between atoms: N_4  and  C_18 
REMARK    2  A    between atoms: N_7  and  C_16 
REMARK       I    between atoms: N_7  and  C_9 
REMARK    3  A    between atoms: C_9  and  C_10 
REMARK    4  A    between atoms: C_10  and  C_11 
REMARK    5  A    between atoms: C_10  and  N_15 
REMARK    6  A    between atoms: C_11  and  C_12 
REMARK       I    between atoms: C_12  and  N_13 
REMARK    7  A    between atoms: C_16  and  C_22 
REMARK    8  A    between atoms: C_16  and  C_25 
REMARK    9  A    between atoms: C_17  and  C_18 
REMARK   10  A    between atoms: C_17  and  C_22 
ROOT
HETATM    1  C           1     -20.362  -9.346  -4.683  0.00  0.00     0.185 C 
ENDROOT
BRANCH   1   2
HETATM    2  N           1     -20.529  -9.005  -3.284  0.00  0.00    -0.345 N 
HETATM    3  C           1     -21.413  -9.709  -2.510  0.00  0.00     0.249 C 
HETATM    4  O           1     -22.052 -10.613  -2.992  0.00  0.00    -0.271 OA
HETATM    5  H           1     -19.994  -8.248  -2.880  0.00  0.00     0.163 HD
BRANCH   3   6
HETATM    6  C           1     -21.587  -9.355  -1.054  0.00  0.00     0.283 C 
BRANCH   6   7
HETATM    7  C           1     -21.140  -7.917  -0.823  0.00  0.00     0.145 C 
BRANCH   7   8
HETATM    8  C           1     -22.335  -6.999  -0.907  0.00  0.00     0.217 C 
HETATM    9  N           1     -22.339  -5.963  -1.803  0.00  0.00    -0.370 N 
HETATM   10  H           1     -23.140  -5.346  -1.860  0.00  0.00     0.159 HD
HETATM   11  H           1     -21.542  -5.814  -2.408  0.00  0.00     0.159 HD
HETATM   12  O           1     -23.286  -7.176  -0.185  0.00  0.00    -0.274 OA
ENDBRANCH   7   8
ENDBRANCH   6   7
BRANCH   6  13
HETATM   13  N           1     -20.756 -10.277  -0.212  0.00  0.00    -0.066 N 
HETATM   14  H           1     -20.343  -9.744   0.587  0.00  0.00     0.275 HD
HETATM   15  H           1     -21.357 -11.048   0.158  0.00  0.00     0.275 HD
HETATM   16  H           1     -19.989 -10.683  -0.794  0.00  0.00     0.275 HD
ENDBRANCH   6  13
ENDBRANCH   3   6
ENDBRANCH   1   2
BRANCH   1  17
HETATM   17  C           1     -21.117  -8.341  -5.543  0.00  0.00     0.038 C 
BRANCH  17  18
HETATM   18  C           1     -20.886  -6.935  -5.006  0.00  0.00     0.023 C 
BRANCH  18  19
HETATM   19  C           1     -22.012  -6.021  -5.473  0.00  0.00     0.138 C 
BRANCH  19  20
HETATM   20  N           1     -21.549  -5.214  -6.611  0.00  0.00    -0.227 N 
HETATM   21  C           1     -22.368  -4.489  -7.248  0.00  0.00     0.665 C 
HETATM   22  N           1     -23.587  -4.459  -6.905  0.00  0.00    -0.235 N 
HETATM   23  N           1     -21.958  -3.775  -8.254  0.00  0.00    -0.235 N 
HETATM   24  H           1     -23.918  -5.035  -6.092  0.00  0.00     0.174 HD
HETATM   25  H           1     -24.266  -3.858  -7.433  0.00  0.00     0.174 HD
HETATM   26  H           1     -22.635  -3.177  -8.780  0.00  0.00     0.174 HD
HETATM   27  H           1     -20.953  -3.800  -8.537  0.00  0.00     0.174 HD
HETATM   28  H           1     -20.539  -5.238  -6.895  0.00  0.00     0.177 HD
ENDBRANCH  19  20
ENDBRANCH  18  19
ENDBRANCH  17  18
ENDBRANCH   1  17
BRANCH   1  29
HETATM   29  C           1     -18.896  -9.310  -5.037  0.00  0.00     0.196 C 
HETATM   30  O           1     -18.542  -9.285  -6.236  0.00  0.00    -0.646 OA
HETATM   31  O           1     -18.034  -9.305  -4.132  0.00  0.00    -0.646 OA
ENDBRANCH   1  29
TORSDOF 10
ENDMDL
MODEL 7
REMARK VINA RESULT:      -5.6      2.721      7.402
REMARK  10 active torsions:
REMARK  status: ('A' for Active; 'I' for Inactive)
REMARK       I    between atoms: N_3  and  C_24 
REMARK       I    between atoms: N_4  and  C_24 
REMARK    1  A    between atoms: N_4  and  C_18 
REMARK    2  A    between atoms: N_7  and  C_16 
REMARK       I    between atoms: N_7  and  C_9 
REMARK    3  A    between atoms: C_9  and  C_10 
REMARK    4  A    between atoms: C_10  and  C_11 
REMARK    5  A    between atoms: C_10  and  N_15 
REMARK    6  A    between atoms: C_11  and  C_12 
REMARK       I    between atoms: C_12  and  N_13 
REMARK    7  A    between atoms: C_16  and  C_22 
REMARK    8  A    between atoms: C_16  and  C_25 
REMARK    9  A    between atoms: C_17  and  C_18 
REMARK   10  A    between atoms: C_17  and  C_22 
ROOT
HETATM    1  C           1     -20.703  -6.858  -5.369  0.00  0.00     0.185 C 
ENDROOT
BRANCH   1   2
HETATM    2  N           1     -20.933  -8.270  -5.603  0.00  0.00    -0.345 N 
HETATM    3  C           1     -20.245  -9.205  -4.878  0.00  0.00     0.249 C 
HETATM    4  O           1     -19.446  -8.855  -4.043  0.00  0.00    -0.271 OA
HETATM    5  H           1     -21.603  -8.565  -6.302  0.00  0.00     0.163 HD
BRANCH   3   6
HETATM    6  C           1     -20.485 -10.675  -5.121  0.00  0.00     0.283 C 
BRANCH   6   7
HETATM    7  C           1     -21.805 -11.087  -4.482  0.00  0.00     0.145 C 
BRANCH   7   8
HETATM    8  C           1     -21.595 -11.338  -3.009  0.00  0.00     0.217 C 
HETATM    9  N           1     -21.692 -10.303  -2.118  0.00  0.00    -0.370 N 
HETATM   10  H           1     -21.550 -10.471  -1.130  0.00  0.00     0.159 HD
HETATM   11  H           1     -21.904  -9.371  -2.447  0.00  0.00     0.159 HD
HETATM   12  O           1     -21.340 -12.452  -2.617  0.00  0.00    -0.274 OA
ENDBRANCH   7   8
ENDBRANCH   6   7
BRANCH   6  13
HETATM   13  N           1     -19.367 -11.471  -4.515  0.00  0.00    -0.066 N 
HETATM   14  H           1     -18.510 -11.374  -5.104  0.00  0.00     0.275 HD
HETATM   15  H           1     -19.170 -11.117  -3.552  0.00  0.00     0.275 HD
HETATM   16  H           1     -19.645 -12.478  -4.465  0.00  0.00     0.275 HD
ENDBRANCH   6  13
ENDBRANCH   3   6
ENDBRANCH   1   2
BRANCH   1  17
HETATM   17  C           1     -20.505  -6.149  -6.702  0.00  0.00     0.038 C 
BRANCH  17  18
HETATM   18  C           1     -20.019  -4.727  -6.455  0.00  0.00     0.023 C 
BRANCH  18  19
HETATM   19  C           1     -20.626  -3.794  -7.496  0.00  0.00     0.138 C 
BRANCH  19  20
HETATM   20  N           1     -22.091  -3.827  -7.390  0.00  0.00    -0.227 N 
HETATM   21  C           1     -22.800  -3.932  -8.434  0.00  0.00     0.665 C 
HETATM   22  N           1     -22.245  -4.010  -9.570  0.00  0.00    -0.235 N 
HETATM   23  N           1     -24.096  -3.961  -8.340  0.00  0.00    -0.235 N 
HETATM   24  H           1     -21.198  -3.987  -9.646  0.00  0.00     0.174 HD
HETATM   25  H           1     -22.833  -4.098 -10.436  0.00  0.00     0.174 HD
HETATM   26  H           1     -24.680  -4.048  -9.202  0.00  0.00     0.174 HD
HETATM   27  H           1     -24.553  -3.897  -7.402  0.00  0.00     0.174 HD
HETATM   28  H           1     -22.551  -3.762  -6.449  0.00  0.00     0.177 HD
ENDBRANCH  19  20
ENDBRANCH  18  19
ENDBRANCH  17  18
ENDBRANCH   1  17
BRANCH   1  29
HETATM   29  C           1     -21.892  -6.266  -4.654  0.00  0.00     0.196 C 
HETATM   30  O           1     -21.823  -6.009  -3.432  0.00  0.00    -0.646 OA
HETATM   31  O           1     -22.947  -6.032  -5.283  0.00  0.00    -0.646 OA
ENDBRANCH   1  29
TORSDOF 10
ENDMDL
MODEL 8
REMARK VINA RESULT:      -5.6      3.342      6.784
REMARK  10 active torsions:
REMARK  status: ('A' for Active; 'I' for Inactive)
REMARK       I    between atoms: N_3  and  C_24 
REMARK       I    between atoms: N_4  and  C_24 
REMARK    1  A    between atoms: N_4  and  C_18 
REMARK    2  A    between atoms: N_7  and  C_16 
REMARK       I    between atoms: N_7  and  C_9 
REMARK    3  A    between atoms: C_9  and  C_10 
REMARK    4  A    between atoms: C_10  and  C_11 
REMARK    5  A    between atoms: C_10  and  N_15 
REMARK    6  A    between atoms: C_11  and  C_12 
REMARK       I    between atoms: C_12  and  N_13 
REMARK    7  A    between atoms: C_16  and  C_22 
REMARK    8  A    between atoms: C_16  and  C_25 
REMARK    9  A    between atoms: C_17  and  C_18 
REMARK   10  A    between atoms: C_17  and  C_22 
ROOT
HETATM    1  C           1     -21.488  -7.857  -0.792  0.00  0.00     0.185 C 
ENDROOT
BRANCH   1   2
HETATM    2  N           1     -21.612  -9.078  -1.563  0.00  0.00    -0.345 N 
HETATM    3  C           1     -20.560  -9.519  -2.320  0.00  0.00     0.249 C 
HETATM    4  O           1     -19.529  -8.891  -2.346  0.00  0.00    -0.271 OA
HETATM    5  H           1     -22.476  -9.604  -1.542  0.00  0.00     0.163 HD
BRANCH   3   6
HETATM    6  C           1     -20.689 -10.790  -3.123  0.00  0.00     0.283 C 
BRANCH   6   7
HETATM    7  C           1     -21.663 -10.569  -4.272  0.00  0.00     0.145 C 
BRANCH   7   8
HETATM    8  C           1     -20.903 -10.521  -5.575  0.00  0.00     0.217 C 
HETATM    9  N           1     -21.303 -11.296  -6.630  0.00  0.00    -0.370 N 
HETATM   10  H           1     -20.793 -11.264  -7.504  0.00  0.00     0.159 HD
HETATM   11  H           1     -22.109 -11.901  -6.537  0.00  0.00     0.159 HD
HETATM   12  O           1     -19.940  -9.800  -5.686  0.00  0.00    -0.274 OA
ENDBRANCH   7   8
ENDBRANCH   6   7
BRANCH   6  13
HETATM   13  N           1     -21.201 -11.889  -2.239  0.00  0.00    -0.066 N 
HETATM   14  H           1     -20.528 -12.689  -2.250  0.00  0.00     0.275 HD
HETATM   15  H           1     -21.301 -11.532  -1.262  0.00  0.00     0.275 HD
HETATM   16  H           1     -22.132 -12.212  -2.589  0.00  0.00     0.275 HD
ENDBRANCH   6  13
ENDBRANCH   3   6
ENDBRANCH   1   2
BRANCH   1  17
HETATM   17  C           1     -22.329  -6.762  -1.436  0.00  0.00     0.038 C 
BRANCH  17  18
HETATM   18  C           1     -21.512  -6.060  -2.513  0.00  0.00     0.023 C 
BRANCH  18  19
HETATM   19  C           1     -22.014  -6.482  -3.888  0.00  0.00     0.138 C 
BRANCH  19  20
HETATM   20  N           1     -20.878  -6.926  -4.709  0.00  0.00    -0.227 N 
HETATM   21  C           1     -20.737  -6.484  -5.887  0.00  0.00     0.665 C 
HETATM   22  N           1     -21.573  -5.658  -6.358  0.00  0.00    -0.235 N 
HETATM   23  N           1     -19.733  -6.877  -6.613  0.00  0.00    -0.235 N 
HETATM   24  H           1     -22.384  -5.340  -5.771  0.00  0.00     0.174 HD
HETATM   25  H           1     -21.456  -5.290  -7.334  0.00  0.00     0.174 HD
HETATM   26  H           1     -19.616  -6.511  -7.585  0.00  0.00     0.174 HD
HETATM   27  H           1     -19.043  -7.558  -6.224  0.00  0.00     0.174 HD
HETATM   28  H           1     -20.185  -7.611  -4.320  0.00  0.00     0.177 HD
ENDBRANCH  19  20
ENDBRANCH  18  19
ENDBRANCH  17  18
ENDBRANCH   1  17
BRANCH   1  29
HETATM   29  C           1     -21.971  -8.100   0.616  0.00  0.00     0.196 C 
HETATM   30  O           1     -23.175  -7.923   0.904  0.00  0.00    -0.646 OA
HETATM   31  O           1     -21.168  -8.479   1.496  0.00  0.00    -0.646 OA
ENDBRANCH   1  29
TORSDOF 10
ENDMDL
MODEL 9
REMARK VINA RESULT:      -5.4      3.017      4.930
REMARK  10 active torsions:
REMARK  status: ('A' for Active; 'I' for Inactive)
REMARK       I    between atoms: N_3  and  C_24 
REMARK       I    between atoms: N_4  and  C_24 
REMARK    1  A    between atoms: N_4  and  C_18 
REMARK    2  A    between atoms: N_7  and  C_16 
REMARK       I    between atoms: N_7  and  C_9 
REMARK    3  A    between atoms: C_9  and  C_10 
REMARK    4  A    between atoms: C_10  and  C_11 
REMARK    5  A    between atoms: C_10  and  N_15 
REMARK    6  A    between atoms: C_11  and  C_12 
REMARK       I    between atoms: C_12  and  N_13 
REMARK    7  A    between atoms: C_16  and  C_22 
REMARK    8  A    between atoms: C_16  and  C_25 
REMARK    9  A    between atoms: C_17  and  C_18 
REMARK   10  A    between atoms: C_17  and  C_22 
ROOT
HETATM    1  C           1     -21.247  -7.933  -2.358  0.00  0.00     0.185 C 
ENDROOT
BRANCH   1   2
HETATM    2  N           1     -21.160  -6.877  -3.348  0.00  0.00    -0.345 N 
HETATM    3  C           1     -21.212  -7.184  -4.681  0.00  0.00     0.249 C 
HETATM    4  O           1     -21.331  -8.334  -5.033  0.00  0.00    -0.271 OA
HETATM    5  H           1     -21.060  -5.914  -3.054  0.00  0.00     0.163 HD
BRANCH   3   6
HETATM    6  C           1     -21.121  -6.086  -5.712  0.00  0.00     0.283 C 
BRANCH   6   7
HETATM    7  C           1     -22.524  -5.645  -6.110  0.00  0.00     0.145 C 
BRANCH   7   8
HETATM    8  C           1     -22.434  -4.469  -7.050  0.00  0.00     0.217 C 
HETATM    9  N           1     -23.504  -4.139  -7.839  0.00  0.00    -0.370 N 
HETATM   10  H           1     -23.444  -3.350  -8.470  0.00  0.00     0.159 HD
HETATM   11  H           1     -24.354  -4.685  -7.792  0.00  0.00     0.159 HD
HETATM   12  O           1     -21.418  -3.817  -7.108  0.00  0.00    -0.274 OA
ENDBRANCH   7   8
ENDBRANCH   6   7
BRANCH   6  13
HETATM   13  N           1     -20.396  -6.595  -6.923  0.00  0.00    -0.066 N 
HETATM   14  H           1     -19.740  -7.359  -6.642  0.00  0.00     0.275 HD
HETATM   15  H           1     -21.087  -6.966  -7.612  0.00  0.00     0.275 HD
HETATM   16  H           1     -19.855  -5.814  -7.358  0.00  0.00     0.275 HD
ENDBRANCH   6  13
ENDBRANCH   3   6
ENDBRANCH   1   2
BRANCH   1  17
HETATM   17  C           1     -19.844  -8.381  -1.970  0.00  0.00     0.038 C 
BRANCH  17  18
HETATM   18  C           1     -19.679  -9.863  -2.280  0.00  0.00     0.023 C 
BRANCH  18  19
HETATM   19  C           1     -18.662 -10.039  -3.400  0.00  0.00     0.138 C 
BRANCH  19  20
HETATM   20  N           1     -19.237 -10.883  -4.457  0.00  0.00    -0.227 N 
HETATM   21  C           1     -19.111 -10.550  -5.672  0.00  0.00     0.665 C 
HETATM   22  N           1     -18.491  -9.488  -5.977  0.00  0.00    -0.235 N 
HETATM   23  N           1     -19.620 -11.296  -6.607  0.00  0.00    -0.235 N 
HETATM   24  H           1     -18.080  -8.885  -5.221  0.00  0.00     0.174 HD
HETATM   25  H           1     -18.387  -9.212  -6.984  0.00  0.00     0.174 HD
HETATM   26  H           1     -19.516 -11.020  -7.609  0.00  0.00     0.174 HD
HETATM   27  H           1     -20.132 -12.171  -6.355  0.00  0.00     0.174 HD
HETATM   28  H           1     -19.751 -11.763  -4.205  0.00  0.00     0.177 HD
ENDBRANCH  19  20
ENDBRANCH  18  19
ENDBRANCH  17  18
ENDBRANCH   1  17
BRANCH   1  29
HETATM   29  C           1     -21.967  -7.417  -1.137  0.00  0.00     0.196 C 
HETATM   30  O           1     -21.866  -8.025  -0.048  0.00  0.00    -0.646 OA
HETATM   31  O           1     -22.664  -6.382  -1.211  0.00  0.00    -0.646 OA
ENDBRANCH   1  29
TORSDOF 10
ENDMDL
