MODEL 1
REMARK VINA RESULT:      -6.8      0.000      0.000
REMARK  9 active torsions:
REMARK  status: ('A' for Active; 'I' for Inactive)
REMARK    1  A    between atoms: C_1  and  C_15 
REMARK    2  A    between atoms: C_1  and  C_8 
REMARK    3  A    between atoms: C_3  and  C_4 
REMARK    4  A    between atoms: C_4  and  C_8 
REMARK    5  A    between atoms: C_4  and  N_10 
REMARK    6  A    between atoms: C_5  and  C_6 
REMARK    7  A    between atoms: C_5  and  C_18 
REMARK    8  A    between atoms: C_6  and  C_7 
REMARK    9  A    between atoms: C_6  and  N_20 
REMARK       I    between atoms: C_7  and  N_10 
ROOT
HETATM    1  C           1     -34.050  -2.471 -11.814  0.00  0.00     0.249 C 
HETATM    2  H           1     -35.319  -2.254 -13.435  0.00  0.00     0.163 HD
HETATM    3  N           1     -34.856  -1.774 -12.675  0.00  0.00    -0.345 N 
HETATM    4  O           1     -33.497  -1.896 -10.906  0.00  0.00    -0.271 OA
ENDROOT
BRANCH   1   5
HETATM    5  C           1     -33.852  -3.955 -12.000  0.00  0.00     0.278 C 
BRANCH   5   6
HETATM    6  C           1     -34.329  -4.691 -10.755  0.00  0.00     0.021 C 
HETATM    7  C           1     -35.838  -4.538 -10.622  0.00  0.00     0.012 C 
BRANCH   6   8
HETATM    8  C           1     -33.978  -6.167 -10.873  0.00  0.00     0.002 C 
HETATM    9  C           1     -34.805  -6.968  -9.877  0.00  0.00     0.005 C 
ENDBRANCH   6   8
ENDBRANCH   5   6
BRANCH   5  10
HETATM   10  N           1     -32.397  -4.242 -12.223  0.00  0.00    -0.066 N 
HETATM   11  H           1     -31.971  -3.465 -12.779  0.00  0.00     0.275 HD
HETATM   12  H           1     -32.296  -5.141 -12.747  0.00  0.00     0.275 HD
HETATM   13  H           1     -31.911  -4.319 -11.302  0.00  0.00     0.275 HD
ENDBRANCH   5  10
ENDBRANCH   1   5
BRANCH   3  14
HETATM   14  C           1     -35.046  -0.348 -12.496  0.00  0.00     0.186 C 
BRANCH  14  15
HETATM   15  C           1     -36.299  -0.104 -11.692  0.00  0.00     0.196 C 
HETATM   16  O           1     -37.387  -0.592 -12.066  0.00  0.00    -0.646 OA
HETATM   17  O           1     -36.249   0.586 -10.651  0.00  0.00    -0.646 OA
ENDBRANCH  14  15
BRANCH  14  18
HETATM   18  C           1     -35.176   0.322 -13.857  0.00  0.00     0.046 C 
BRANCH  18  19
HETATM   19  C           1     -35.521  -0.725 -14.908  0.00  0.00     0.116 C 
BRANCH  19  20
HETATM   20  C           1     -36.290  -0.075 -16.033  0.00  0.00     0.172 C 
HETATM   21  O           1     -36.347   1.171 -16.111  0.00  0.00    -0.648 OA
HETATM   22  O           1     -36.868  -0.783 -16.885  0.00  0.00    -0.648 OA
ENDBRANCH  19  20
ENDBRANCH  18  19
ENDBRANCH  14  18
ENDBRANCH   3  14
TORSDOF 9
ENDMDL
MODEL 2
REMARK VINA RESULT:      -6.7      9.939     11.235
REMARK  9 active torsions:
REMARK  status: ('A' for Active; 'I' for Inactive)
REMARK    1  A    between atoms: C_1  and  C_15 
REMARK    2  A    between atoms: C_1  and  C_8 
REMARK    3  A    between atoms: C_3  and  C_4 
REMARK    4  A    between atoms: C_4  and  C_8 
REMARK    5  A    between atoms: C_4  and  N_10 
REMARK    6  A    between atoms: C_5  and  C_6 
REMARK    7  A    between atoms: C_5  and  C_18 
REMARK    8  A    between atoms: C_6  and  C_7 
REMARK    9  A    between atoms: C_6  and  N_20 
REMARK       I    between atoms: C_7  and  N_10 
ROOT
HETATM    1  C           1     -26.233  -6.322 -18.153  0.00  0.00     0.249 C 
HETATM    2  H           1     -27.570  -6.910 -19.621  0.00  0.00     0.163 HD
HETATM    3  N           1     -27.477  -6.537 -18.685  0.00  0.00    -0.345 N 
HETATM    4  O           1     -26.123  -5.877 -17.036  0.00  0.00    -0.271 OA
ENDROOT
BRANCH   1   5
HETATM    5  C           1     -25.001  -6.639 -18.964  0.00  0.00     0.278 C 
BRANCH   5   6
HETATM    6  C           1     -25.415  -7.159 -20.335  0.00  0.00     0.021 C 
HETATM    7  C           1     -25.493  -5.997 -21.315  0.00  0.00     0.012 C 
BRANCH   6   8
HETATM    8  C           1     -24.387  -8.169 -20.825  0.00  0.00     0.002 C 
HETATM    9  C           1     -24.025  -7.864 -22.272  0.00  0.00     0.005 C 
ENDBRANCH   6   8
ENDBRANCH   5   6
BRANCH   5  10
HETATM   10  N           1     -24.192  -7.685 -18.256  0.00  0.00    -0.066 N 
HETATM   11  H           1     -24.672  -7.952 -17.367  0.00  0.00     0.275 HD
HETATM   12  H           1     -23.244  -7.302 -18.039  0.00  0.00     0.275 HD
HETATM   13  H           1     -24.096  -8.526 -18.868  0.00  0.00     0.275 HD
ENDBRANCH   5  10
ENDBRANCH   1   5
BRANCH   3  14
HETATM   14  C           1     -28.661  -6.233 -17.905  0.00  0.00     0.186 C 
BRANCH  14  15
HETATM   15  C           1     -29.581  -7.429 -17.898  0.00  0.00     0.196 C 
HETATM   16  O           1     -29.455  -8.310 -17.021  0.00  0.00    -0.646 OA
HETATM   17  O           1     -30.468  -7.539 -18.772  0.00  0.00    -0.646 OA
ENDBRANCH  14  15
BRANCH  14  18
HETATM   18  C           1     -29.382  -5.041 -18.521  0.00  0.00     0.046 C 
BRANCH  18  19
HETATM   19  C           1     -29.758  -4.052 -17.426  0.00  0.00     0.116 C 
BRANCH  19  20
HETATM   20  C           1     -31.261  -3.962 -17.324  0.00  0.00     0.172 C 
HETATM   21  O           1     -31.906  -4.880 -16.775  0.00  0.00    -0.648 OA
HETATM   22  O           1     -31.861  -2.968 -17.790  0.00  0.00    -0.648 OA
ENDBRANCH  19  20
ENDBRANCH  18  19
ENDBRANCH  14  18
ENDBRANCH   3  14
TORSDOF 9
ENDMDL
MODEL 3
REMARK VINA RESULT:      -6.3      1.568      2.117
REMARK  9 active torsions:
REMARK  status: ('A' for Active; 'I' for Inactive)
REMARK    1  A    between atoms: C_1  and  C_15 
REMARK    2  A    between atoms: C_1  and  C_8 
REMARK    3  A    between atoms: C_3  and  C_4 
REMARK    4  A    between atoms: C_4  and  C_8 
REMARK    5  A    between atoms: C_4  and  N_10 
REMARK    6  A    between atoms: C_5  and  C_6 
REMARK    7  A    between atoms: C_5  and  C_18 
REMARK    8  A    between atoms: C_6  and  C_7 
REMARK    9  A    between atoms: C_6  and  N_20 
REMARK       I    between atoms: C_7  and  N_10 
ROOT
HETATM    1  C           1     -34.547  -1.707 -12.348  0.00  0.00     0.249 C 
HETATM    2  H           1     -34.672  -0.019 -11.157  0.00  0.00     0.163 HD
HETATM    3  N           1     -34.994  -0.457 -12.010  0.00  0.00    -0.345 N 
HETATM    4  O           1     -34.931  -2.230 -13.368  0.00  0.00    -0.271 OA
ENDROOT
BRANCH   1   5
HETATM    5  C           1     -33.577  -2.431 -11.448  0.00  0.00     0.278 C 
BRANCH   5   6
HETATM    6  C           1     -33.659  -3.928 -11.711  0.00  0.00     0.021 C 
HETATM    7  C           1     -32.276  -4.458 -12.065  0.00  0.00     0.012 C 
BRANCH   6   8
HETATM    8  C           1     -34.169  -4.635 -10.463  0.00  0.00     0.002 C 
HETATM    9  C           1     -34.097  -6.142 -10.667  0.00  0.00     0.005 C 
ENDBRANCH   6   8
ENDBRANCH   5   6
BRANCH   5  10
HETATM   10  N           1     -33.923  -2.155 -10.015  0.00  0.00    -0.066 N 
HETATM   11  H           1     -33.237  -1.474  -9.617  0.00  0.00     0.275 HD
HETATM   12  H           1     -33.886  -3.046  -9.470  0.00  0.00     0.275 HD
HETATM   13  H           1     -34.886  -1.753  -9.959  0.00  0.00     0.275 HD
ENDBRANCH   5  10
ENDBRANCH   1   5
BRANCH   3  14
HETATM   14  C           1     -35.926   0.238 -12.876  0.00  0.00     0.186 C 
BRANCH  14  15
HETATM   15  C           1     -37.306  -0.347 -12.701  0.00  0.00     0.196 C 
HETATM   16  O           1     -37.973  -0.687 -13.702  0.00  0.00    -0.646 OA
HETATM   17  O           1     -37.783  -0.491 -11.554  0.00  0.00    -0.646 OA
ENDBRANCH  14  15
BRANCH  14  18
HETATM   18  C           1     -35.487   0.082 -14.325  0.00  0.00     0.046 C 
BRANCH  18  19
HETATM   19  C           1     -35.183   1.453 -14.915  0.00  0.00     0.116 C 
BRANCH  19  20
HETATM   20  C           1     -36.203   1.781 -15.978  0.00  0.00     0.172 C 
HETATM   21  O           1     -37.165   1.009 -16.180  0.00  0.00    -0.648 OA
HETATM   22  O           1     -36.086   2.824 -16.656  0.00  0.00    -0.648 OA
ENDBRANCH  19  20
ENDBRANCH  18  19
ENDBRANCH  14  18
ENDBRANCH   3  14
TORSDOF 9
ENDMDL
MODEL 4
REMARK VINA RESULT:      -6.2     10.537     11.911
REMARK  9 active torsions:
REMARK  status: ('A' for Active; 'I' for Inactive)
REMARK    1  A    between atoms: C_1  and  C_15 
REMARK    2  A    between atoms: C_1  and  C_8 
REMARK    3  A    between atoms: C_3  and  C_4 
REMARK    4  A    between atoms: C_4  and  C_8 
REMARK    5  A    between atoms: C_4  and  N_10 
REMARK    6  A    between atoms: C_5  and  C_6 
REMARK    7  A    between atoms: C_5  and  C_18 
REMARK    8  A    between atoms: C_6  and  C_7 
REMARK    9  A    between atoms: C_6  and  N_20 
REMARK       I    between atoms: C_7  and  N_10 
ROOT
HETATM    1  C           1     -27.064  -6.500 -19.770  0.00  0.00     0.249 C 
HETATM    2  H           1     -27.355  -7.111 -17.813  0.00  0.00     0.163 HD
HETATM    3  N           1     -27.546  -6.386 -18.493  0.00  0.00    -0.345 N 
HETATM    4  O           1     -27.293  -5.634 -20.580  0.00  0.00    -0.271 OA
ENDROOT
BRANCH   1   5
HETATM    5  C           1     -26.248  -7.706 -20.163  0.00  0.00     0.278 C 
BRANCH   5   6
HETATM    6  C           1     -24.886  -7.254 -20.674  0.00  0.00     0.021 C 
HETATM    7  C           1     -23.928  -7.106 -19.499  0.00  0.00     0.012 C 
BRANCH   6   8
HETATM    8  C           1     -24.340  -8.289 -21.647  0.00  0.00     0.002 C 
HETATM    9  C           1     -23.722  -7.582 -22.846  0.00  0.00     0.005 C 
ENDBRANCH   6   8
ENDBRANCH   5   6
BRANCH   5  10
HETATM   10  N           1     -26.961  -8.461 -21.245  0.00  0.00    -0.066 N 
HETATM   11  H           1     -26.418  -8.390 -22.135  0.00  0.00     0.275 HD
HETATM   12  H           1     -27.914  -8.053 -21.384  0.00  0.00     0.275 HD
HETATM   13  H           1     -27.050  -9.465 -20.970  0.00  0.00     0.275 HD
ENDBRANCH   5  10
ENDBRANCH   1   5
BRANCH   3  14
HETATM   14  C           1     -28.331  -5.227 -18.114  0.00  0.00     0.186 C 
BRANCH  14  15
HETATM   15  C           1     -27.834  -4.693 -16.793  0.00  0.00     0.196 C 
HETATM   16  O           1     -28.113  -3.526 -16.444  0.00  0.00    -0.646 OA
HETATM   17  O           1     -27.142  -5.420 -16.047  0.00  0.00    -0.646 OA
ENDBRANCH  14  15
BRANCH  14  18
HETATM   18  C           1     -29.795  -5.625 -17.984  0.00  0.00     0.046 C 
BRANCH  18  19
HETATM   19  C           1     -29.889  -7.075 -17.529  0.00  0.00     0.116 C 
BRANCH  19  20
HETATM   20  C           1     -30.435  -7.921 -18.653  0.00  0.00     0.172 C 
HETATM   21  O           1     -29.669  -8.662 -19.306  0.00  0.00    -0.648 OA
HETATM   22  O           1     -31.653  -7.880 -18.932  0.00  0.00    -0.648 OA
ENDBRANCH  19  20
ENDBRANCH  18  19
ENDBRANCH  14  18
ENDBRANCH   3  14
TORSDOF 9
ENDMDL
MODEL 5
REMARK VINA RESULT:      -5.9     10.352     12.347
REMARK  9 active torsions:
REMARK  status: ('A' for Active; 'I' for Inactive)
REMARK    1  A    between atoms: C_1  and  C_15 
REMARK    2  A    between atoms: C_1  and  C_8 
REMARK    3  A    between atoms: C_3  and  C_4 
REMARK    4  A    between atoms: C_4  and  C_8 
REMARK    5  A    between atoms: C_4  and  N_10 
REMARK    6  A    between atoms: C_5  and  C_6 
REMARK    7  A    between atoms: C_5  and  C_18 
REMARK    8  A    between atoms: C_6  and  C_7 
REMARK    9  A    between atoms: C_6  and  N_20 
REMARK       I    between atoms: C_7  and  N_10 
ROOT
HETATM    1  C           1     -27.614  -6.350 -19.039  0.00  0.00     0.249 C 
HETATM    2  H           1     -26.440  -7.596 -17.876  0.00  0.00     0.163 HD
HETATM    3  N           1     -26.443  -6.944 -18.649  0.00  0.00    -0.345 N 
HETATM    4  O           1     -27.617  -5.572 -19.964  0.00  0.00    -0.271 OA
ENDROOT
BRANCH   1   5
HETATM    5  C           1     -28.899  -6.666 -18.315  0.00  0.00     0.278 C 
BRANCH   5   6
HETATM    6  C           1     -29.576  -5.370 -17.891  0.00  0.00     0.021 C 
HETATM    7  C           1     -30.872  -5.690 -17.160  0.00  0.00     0.012 C 
BRANCH   6   8
HETATM    8  C           1     -28.650  -4.593 -16.966  0.00  0.00     0.002 C 
HETATM    9  C           1     -28.814  -3.100 -17.218  0.00  0.00     0.005 C 
ENDBRANCH   6   8
ENDBRANCH   5   6
BRANCH   5  10
HETATM   10  N           1     -28.597  -7.493 -17.100  0.00  0.00    -0.066 N 
HETATM   11  H           1     -29.122  -8.395 -17.155  0.00  0.00     0.275 HD
HETATM   12  H           1     -28.889  -6.971 -16.243  0.00  0.00     0.275 HD
HETATM   13  H           1     -27.572  -7.688 -17.056  0.00  0.00     0.275 HD
ENDBRANCH   5  10
ENDBRANCH   1   5
BRANCH   3  14
HETATM   14  C           1     -25.208  -6.640 -19.346  0.00  0.00     0.186 C 
BRANCH  14  15
HETATM   15  C           1     -24.940  -7.704 -20.382  0.00  0.00     0.196 C 
HETATM   16  O           1     -23.770  -8.082 -20.602  0.00  0.00    -0.646 OA
HETATM   17  O           1     -25.891  -8.206 -21.021  0.00  0.00    -0.646 OA
ENDBRANCH  14  15
BRANCH  14  18
HETATM   18  C           1     -24.059  -6.601 -18.348  0.00  0.00     0.046 C 
BRANCH  18  19
HETATM   19  C           1     -24.348  -7.560 -17.201  0.00  0.00     0.116 C 
BRANCH  19  20
HETATM   20  C           1     -25.189  -6.862 -16.160  0.00  0.00     0.172 C 
HETATM   21  O           1     -26.019  -7.512 -15.489  0.00  0.00    -0.648 OA
HETATM   22  O           1     -25.056  -5.634 -15.970  0.00  0.00    -0.648 OA
ENDBRANCH  19  20
ENDBRANCH  18  19
ENDBRANCH  14  18
ENDBRANCH   3  14
TORSDOF 9
ENDMDL
MODEL 6
REMARK VINA RESULT:      -5.9      9.882     11.465
REMARK  9 active torsions:
REMARK  status: ('A' for Active; 'I' for Inactive)
REMARK    1  A    between atoms: C_1  and  C_15 
REMARK    2  A    between atoms: C_1  and  C_8 
REMARK    3  A    between atoms: C_3  and  C_4 
REMARK    4  A    between atoms: C_4  and  C_8 
REMARK    5  A    between atoms: C_4  and  N_10 
REMARK    6  A    between atoms: C_5  and  C_6 
REMARK    7  A    between atoms: C_5  and  C_18 
REMARK    8  A    between atoms: C_6  and  C_7 
REMARK    9  A    between atoms: C_6  and  N_20 
REMARK       I    between atoms: C_7  and  N_10 
ROOT
HETATM    1  C           1     -28.015  -6.000 -16.757  0.00  0.00     0.249 C 
HETATM    2  H           1     -26.710  -4.935 -17.961  0.00  0.00     0.163 HD
HETATM    3  N           1     -26.882  -5.822 -17.506  0.00  0.00    -0.345 N 
HETATM    4  O           1     -28.219  -7.059 -16.213  0.00  0.00    -0.271 OA
ENDROOT
BRANCH   1   5
HETATM    5  C           1     -29.008  -4.873 -16.611  0.00  0.00     0.278 C 
BRANCH   5   6
HETATM    6  C           1     -30.102  -5.021 -17.660  0.00  0.00     0.021 C 
HETATM    7  C           1     -30.991  -6.204 -17.300  0.00  0.00     0.012 C 
BRANCH   6   8
HETATM    8  C           1     -30.941  -3.751 -17.701  0.00  0.00     0.002 C 
HETATM    9  C           1     -32.315  -4.030 -17.108  0.00  0.00     0.005 C 
ENDBRANCH   6   8
ENDBRANCH   5   6
BRANCH   5  10
HETATM   10  N           1     -28.306  -3.561 -16.803  0.00  0.00    -0.066 N 
HETATM   11  H           1     -27.521  -3.483 -16.118  0.00  0.00     0.275 HD
HETATM   12  H           1     -28.983  -2.779 -16.649  0.00  0.00     0.275 HD
HETATM   13  H           1     -27.928  -3.506 -17.776  0.00  0.00     0.275 HD
ENDBRANCH   5  10
ENDBRANCH   1   5
BRANCH   3  14
HETATM   14  C           1     -25.928  -6.905 -17.645  0.00  0.00     0.186 C 
BRANCH  14  15
HETATM   15  C           1     -24.994  -6.907 -16.460  0.00  0.00     0.196 C 
HETATM   16  O           1     -24.357  -7.942 -16.167  0.00  0.00    -0.646 OA
HETATM   17  O           1     -24.857  -5.874 -15.771  0.00  0.00    -0.646 OA
ENDBRANCH  14  15
BRANCH  14  18
HETATM   18  C           1     -25.126  -6.713 -18.925  0.00  0.00     0.046 C 
BRANCH  18  19
HETATM   19  C           1     -26.065  -6.748 -20.124  0.00  0.00     0.116 C 
BRANCH  19  20
HETATM   20  C           1     -25.694  -7.905 -21.020  0.00  0.00     0.172 C 
HETATM   21  O           1     -24.502  -8.085 -21.346  0.00  0.00    -0.648 OA
HETATM   22  O           1     -26.581  -8.682 -21.436  0.00  0.00    -0.648 OA
ENDBRANCH  19  20
ENDBRANCH  18  19
ENDBRANCH  14  18
ENDBRANCH   3  14
TORSDOF 9
ENDMDL
MODEL 7
REMARK VINA RESULT:      -5.8      1.661      3.055
REMARK  9 active torsions:
REMARK  status: ('A' for Active; 'I' for Inactive)
REMARK    1  A    between atoms: C_1  and  C_15 
REMARK    2  A    between atoms: C_1  and  C_8 
REMARK    3  A    between atoms: C_3  and  C_4 
REMARK    4  A    between atoms: C_4  and  C_8 
REMARK    5  A    between atoms: C_4  and  N_10 
REMARK    6  A    between atoms: C_5  and  C_6 
REMARK    7  A    between atoms: C_5  and  C_18 
REMARK    8  A    between atoms: C_6  and  C_7 
REMARK    9  A    between atoms: C_6  and  N_20 
REMARK       I    between atoms: C_7  and  N_10 
ROOT
HETATM    1  C           1     -35.086  -1.781 -12.557  0.00  0.00     0.249 C 
HETATM    2  H           1     -33.936  -1.244 -14.193  0.00  0.00     0.163 HD
HETATM    3  N           1     -34.871  -1.262 -13.807  0.00  0.00    -0.345 N 
HETATM    4  O           1     -36.203  -1.802 -12.097  0.00  0.00    -0.271 OA
ENDROOT
BRANCH   1   5
HETATM    5  C           1     -33.929  -2.324 -11.756  0.00  0.00     0.278 C 
BRANCH   5   6
HETATM    6  C           1     -33.895  -3.841 -11.876  0.00  0.00     0.021 C 
HETATM    7  C           1     -32.456  -4.303 -12.057  0.00  0.00     0.012 C 
BRANCH   6   8
HETATM    8  C           1     -34.473  -4.463 -10.612  0.00  0.00     0.002 C 
HETATM    9  C           1     -34.169  -5.955 -10.596  0.00  0.00     0.005 C 
ENDBRANCH   6   8
ENDBRANCH   5   6
BRANCH   5  10
HETATM   10  N           1     -34.095  -1.940 -10.315  0.00  0.00    -0.066 N 
HETATM   11  H           1     -35.074  -2.145 -10.011  0.00  0.00     0.275 HD
HETATM   12  H           1     -33.902  -0.919 -10.203  0.00  0.00     0.275 HD
HETATM   13  H           1     -33.425  -2.487  -9.729  0.00  0.00     0.275 HD
ENDBRANCH   5  10
ENDBRANCH   1   5
BRANCH   3  14
HETATM   14  C           1     -35.983  -0.741 -14.577  0.00  0.00     0.186 C 
BRANCH  14  15
HETATM   15  C           1     -35.805  -1.108 -16.029  0.00  0.00     0.196 C 
HETATM   16  O           1     -34.675  -1.425 -16.461  0.00  0.00    -0.646 OA
HETATM   17  O           1     -36.788  -1.095 -16.802  0.00  0.00    -0.646 OA
ENDBRANCH  14  15
BRANCH  14  18
HETATM   18  C           1     -36.030   0.775 -14.437  0.00  0.00     0.046 C 
BRANCH  18  19
HETATM   19  C           1     -35.491   1.420 -15.707  0.00  0.00     0.116 C 
BRANCH  19  20
HETATM   20  C           1     -36.557   2.294 -16.320  0.00  0.00     0.172 C 
HETATM   21  O           1     -36.237   3.346 -16.913  0.00  0.00    -0.648 OA
HETATM   22  O           1     -37.760   1.965 -16.236  0.00  0.00    -0.648 OA
ENDBRANCH  19  20
ENDBRANCH  18  19
ENDBRANCH  14  18
ENDBRANCH   3  14
TORSDOF 9
ENDMDL
MODEL 8
REMARK VINA RESULT:      -5.7     15.016     17.282
REMARK  9 active torsions:
REMARK  status: ('A' for Active; 'I' for Inactive)
REMARK    1  A    between atoms: C_1  and  C_15 
REMARK    2  A    between atoms: C_1  and  C_8 
REMARK    3  A    between atoms: C_3  and  C_4 
REMARK    4  A    between atoms: C_4  and  C_8 
REMARK    5  A    between atoms: C_4  and  N_10 
REMARK    6  A    between atoms: C_5  and  C_6 
REMARK    7  A    between atoms: C_5  and  C_18 
REMARK    8  A    between atoms: C_6  and  C_7 
REMARK    9  A    between atoms: C_6  and  N_20 
REMARK       I    between atoms: C_7  and  N_10 
ROOT
HETATM    1  C           1     -20.451  -4.864  -6.107  0.00  0.00     0.249 C 
HETATM    2  H           1     -21.311  -6.590  -6.860  0.00  0.00     0.163 HD
HETATM    3  N           1     -20.891  -6.159  -6.046  0.00  0.00    -0.345 N 
HETATM    4  O           1     -19.949  -4.351  -5.136  0.00  0.00    -0.271 OA
ENDROOT
BRANCH   1   5
HETATM    5  C           1     -20.594  -4.078  -7.387  0.00  0.00     0.278 C 
BRANCH   5   6
HETATM    6  C           1     -21.640  -4.738  -8.275  0.00  0.00     0.021 C 
HETATM    7  C           1     -23.013  -4.163  -7.953  0.00  0.00     0.012 C 
BRANCH   6   8
HETATM    8  C           1     -21.308  -4.471  -9.736  0.00  0.00     0.002 C 
HETATM    9  C           1     -22.544  -3.943 -10.450  0.00  0.00     0.005 C 
ENDBRANCH   6   8
ENDBRANCH   5   6
BRANCH   5  10
HETATM   10  N           1     -19.277  -4.047  -8.105  0.00  0.00    -0.066 N 
HETATM   11  H           1     -19.079  -3.072  -8.426  0.00  0.00     0.275 HD
HETATM   12  H           1     -19.317  -4.685  -8.932  0.00  0.00     0.275 HD
HETATM   13  H           1     -18.519  -4.363  -7.458  0.00  0.00     0.275 HD
ENDBRANCH   5  10
ENDBRANCH   1   5
BRANCH   3  14
HETATM   14  C           1     -20.753  -6.915  -4.816  0.00  0.00     0.186 C 
BRANCH  14  15
HETATM   15  C           1     -20.523  -8.370  -5.143  0.00  0.00     0.196 C 
HETATM   16  O           1     -21.390  -9.221  -4.852  0.00  0.00    -0.646 OA
HETATM   17  O           1     -19.464  -8.723  -5.705  0.00  0.00    -0.646 OA
ENDBRANCH  14  15
BRANCH  14  18
HETATM   18  C           1     -22.024  -6.774  -3.989  0.00  0.00     0.046 C 
BRANCH  18  19
HETATM   19  C           1     -21.682  -6.185  -2.627  0.00  0.00     0.116 C 
BRANCH  19  20
HETATM   20  C           1     -21.997  -7.194  -1.549  0.00  0.00     0.172 C 
HETATM   21  O           1     -21.497  -8.338  -1.600  0.00  0.00    -0.648 OA
HETATM   22  O           1     -22.757  -6.885  -0.606  0.00  0.00    -0.648 OA
ENDBRANCH  19  20
ENDBRANCH  18  19
ENDBRANCH  14  18
ENDBRANCH   3  14
TORSDOF 9
ENDMDL
MODEL 9
REMARK VINA RESULT:      -5.6     16.071     17.963
REMARK  9 active torsions:
REMARK  status: ('A' for Active; 'I' for Inactive)
REMARK    1  A    between atoms: C_1  and  C_15 
REMARK    2  A    between atoms: C_1  and  C_8 
REMARK    3  A    between atoms: C_3  and  C_4 
REMARK    4  A    between atoms: C_4  and  C_8 
REMARK    5  A    between atoms: C_4  and  N_10 
REMARK    6  A    between atoms: C_5  and  C_6 
REMARK    7  A    between atoms: C_5  and  C_18 
REMARK    8  A    between atoms: C_6  and  C_7 
REMARK    9  A    between atoms: C_6  and  N_20 
REMARK       I    between atoms: C_7  and  N_10 
ROOT
HETATM    1  C           1     -20.941  -7.897  -5.280  0.00  0.00     0.249 C 
HETATM    2  H           1     -22.532  -7.869  -3.955  0.00  0.00     0.163 HD
HETATM    3  N           1     -21.666  -8.331  -4.202  0.00  0.00    -0.345 N 
HETATM    4  O           1     -19.908  -8.450  -5.575  0.00  0.00    -0.271 OA
ENDROOT
BRANCH   1   5
HETATM    5  C           1     -21.432  -6.728  -6.098  0.00  0.00     0.278 C 
BRANCH   5   6
HETATM    6  C           1     -20.276  -5.773  -6.365  0.00  0.00     0.021 C 
HETATM    7  C           1     -19.956  -5.768  -7.853  0.00  0.00     0.012 C 
BRANCH   6   8
HETATM    8  C           1     -20.666  -4.369  -5.924  0.00  0.00     0.002 C 
HETATM    9  C           1     -21.102  -3.559  -7.138  0.00  0.00     0.005 C 
ENDBRANCH   6   8
ENDBRANCH   5   6
BRANCH   5  10
HETATM   10  N           1     -22.511  -6.008  -5.345  0.00  0.00    -0.066 N 
HETATM   11  H           1     -23.358  -6.617  -5.285  0.00  0.00     0.275 HD
HETATM   12  H           1     -22.753  -5.122  -5.844  0.00  0.00     0.275 HD
HETATM   13  H           1     -22.174  -5.783  -4.382  0.00  0.00     0.275 HD
ENDBRANCH   5  10
ENDBRANCH   1   5
BRANCH   3  14
HETATM   14  C           1     -21.195  -9.454  -3.416  0.00  0.00     0.186 C 
BRANCH  14  15
HETATM   15  C           1     -21.982 -10.689  -3.781  0.00  0.00     0.196 C 
HETATM   16  O           1     -21.642 -11.381  -4.764  0.00  0.00    -0.646 OA
HETATM   17  O           1     -22.977 -11.019  -3.099  0.00  0.00    -0.646 OA
ENDBRANCH  14  15
BRANCH  14  18
HETATM   18  C           1     -21.380  -9.151  -1.936  0.00  0.00     0.046 C 
BRANCH  18  19
HETATM   19  C           1     -20.933  -7.724  -1.648  0.00  0.00     0.116 C 
BRANCH  19  20
HETATM   20  C           1     -22.145  -6.847  -1.450  0.00  0.00     0.172 C 
HETATM   21  O           1     -22.885  -7.018  -0.458  0.00  0.00    -0.648 OA
HETATM   22  O           1     -22.408  -5.948  -2.279  0.00  0.00    -0.648 OA
ENDBRANCH  19  20
ENDBRANCH  18  19
ENDBRANCH  14  18
ENDBRANCH   3  14
TORSDOF 9
ENDMDL
