MODEL 1
REMARK VINA RESULT:      -7.0      0.000      0.000
REMARK  8 active torsions:
REMARK  status: ('A' for Active; 'I' for Inactive)
REMARK       I    between atoms: N_2  and  C_5 
REMARK    1  A    between atoms: C_5  and  C_12 
REMARK    2  A    between atoms: C_9  and  C_12 
REMARK    3  A    between atoms: C_9  and  C_10 
REMARK    4  A    between atoms: C_9  and  N_13 
REMARK       I    between atoms: N_13  and  C_14 
REMARK    5  A    between atoms: C_14  and  C_15 
REMARK    6  A    between atoms: C_15  and  C_16 
REMARK    7  A    between atoms: C_15  and  N_19 
REMARK    8  A    between atoms: C_16  and  C_17 
ROOT
HETATM    1  H           1     -27.004  -7.838 -18.670  0.00  0.00     0.163 HD
HETATM    2  N           1     -27.284  -7.033 -19.217  0.00  0.00    -0.344 N 
HETATM    3  C           1     -28.175  -6.131 -18.700  0.00  0.00     0.249 C 
HETATM    4  O           1     -28.510  -5.171 -19.351  0.00  0.00    -0.271 OA
ENDROOT
BRANCH   3   5
HETATM    5  C           1     -28.738  -6.336 -17.314  0.00  0.00     0.280 C 
BRANCH   5   6
HETATM    6  C           1     -28.943  -4.984 -16.643  0.00  0.00     0.101 C 
BRANCH   6   7
HETATM    7  C           1     -30.357  -4.536 -16.845  0.00  0.00     0.028 A 
HETATM    8  C           1     -30.728  -3.414 -17.548  0.00  0.00     0.114 A 
HETATM    9  N           1     -32.094  -3.390 -17.480  0.00  0.00    -0.360 N 
HETATM   10  C           1     -32.488  -4.477 -16.753  0.00  0.00     0.180 A 
HETATM   11  H           1     -32.723  -2.667 -17.908  0.00  0.00     0.166 HD
HETATM   12  N           1     -31.459  -5.189 -16.356  0.00  0.00    -0.355 N 
ATOM     13  HN          1     -31.477  -6.045 -15.802  1.00  0.00     0.166 HD
ENDBRANCH   6   7
ENDBRANCH   5   6
BRANCH   5  14
HETATM   14  N           1     -27.780  -7.156 -16.502  0.00  0.00    -0.066 N 
HETATM   15  H           1     -27.864  -6.895 -15.493  0.00  0.00     0.275 HD
HETATM   16  H           1     -28.004  -8.170 -16.618  0.00  0.00     0.275 HD
HETATM   17  H           1     -26.803  -6.975 -16.828  0.00  0.00     0.275 HD
ENDBRANCH   5  14
ENDBRANCH   3   5
BRANCH   2  18
HETATM   18  C           1     -26.744  -6.836 -20.548  0.00  0.00     0.194 C 
BRANCH  18  19
HETATM   19  C           1     -25.351  -6.231 -20.446  0.00  0.00     0.138 C 
BRANCH  19  20
HETATM   20  C           1     -24.605  -6.873 -19.301  0.00  0.00     0.217 C 
HETATM   21  N           1     -23.626  -7.795 -19.555  0.00  0.00    -0.370 N 
HETATM   22  H           1     -23.403  -8.047 -20.510  0.00  0.00     0.159 HD
HETATM   23  H           1     -23.125  -8.226 -18.788  0.00  0.00     0.159 HD
HETATM   24  O           1     -24.871  -6.573 -18.162  0.00  0.00    -0.274 OA
ENDBRANCH  19  20
ENDBRANCH  18  19
BRANCH  18  25
HETATM   25  C           1     -26.664  -8.165 -21.259  0.00  0.00     0.197 C 
HETATM   26  O           1     -25.584  -8.536 -21.768  0.00  0.00    -0.646 OA
HETATM   27  O           1     -27.676  -8.894 -21.338  0.00  0.00    -0.646 OA
ENDBRANCH  18  25
ENDBRANCH   2  18
TORSDOF 8
ENDMDL
MODEL 2
REMARK VINA RESULT:      -6.7      2.616      7.012
REMARK  8 active torsions:
REMARK  status: ('A' for Active; 'I' for Inactive)
REMARK       I    between atoms: N_2  and  C_5 
REMARK    1  A    between atoms: C_5  and  C_12 
REMARK    2  A    between atoms: C_9  and  C_12 
REMARK    3  A    between atoms: C_9  and  C_10 
REMARK    4  A    between atoms: C_9  and  N_13 
REMARK       I    between atoms: N_13  and  C_14 
REMARK    5  A    between atoms: C_14  and  C_15 
REMARK    6  A    between atoms: C_15  and  C_16 
REMARK    7  A    between atoms: C_15  and  N_19 
REMARK    8  A    between atoms: C_16  and  C_17 
ROOT
HETATM    1  H           1     -27.329  -7.479 -18.147  0.00  0.00     0.163 HD
HETATM    2  N           1     -27.544  -6.667 -18.712  0.00  0.00    -0.344 N 
HETATM    3  C           1     -26.941  -6.502 -19.929  0.00  0.00     0.249 C 
HETATM    4  O           1     -27.195  -5.533 -20.604  0.00  0.00    -0.271 OA
ENDROOT
BRANCH   3   5
HETATM    5  C           1     -25.957  -7.533 -20.431  0.00  0.00     0.280 C 
BRANCH   5   6
HETATM    6  C           1     -24.934  -6.861 -21.337  0.00  0.00     0.101 C 
BRANCH   6   7
HETATM    7  C           1     -23.827  -7.823 -21.638  0.00  0.00     0.028 A 
HETATM    8  C           1     -23.491  -8.257 -22.899  0.00  0.00     0.114 A 
HETATM    9  N           1     -22.441  -9.111 -22.711  0.00  0.00    -0.360 N 
HETATM   10  C           1     -22.187  -9.160 -21.370  0.00  0.00     0.180 A 
HETATM   11  H           1     -21.924  -9.634 -23.461  0.00  0.00     0.166 HD
HETATM   12  N           1     -23.009  -8.391 -20.696  0.00  0.00    -0.355 N 
ATOM     13  HN          1     -23.034  -8.247 -19.687  1.00  0.00     0.166 HD
ENDBRANCH   6   7
ENDBRANCH   5   6
BRANCH   5  14
HETATM   14  N           1     -26.691  -8.589 -21.203  0.00  0.00    -0.066 N 
HETATM   15  H           1     -27.371  -9.073 -20.574  0.00  0.00     0.275 HD
HETATM   16  H           1     -27.207  -8.144 -21.996  0.00  0.00     0.275 HD
HETATM   17  H           1     -26.007  -9.285 -21.578  0.00  0.00     0.275 HD
ENDBRANCH   5  14
ENDBRANCH   3   5
BRANCH   2  18
HETATM   18  C           1     -28.488  -5.677 -18.231  0.00  0.00     0.194 C 
BRANCH  18  19
HETATM   19  C           1     -29.880  -6.288 -18.175  0.00  0.00     0.138 C 
BRANCH  19  20
HETATM   20  C           1     -29.769  -7.793 -18.126  0.00  0.00     0.217 C 
HETATM   21  N           1     -29.429  -8.415 -16.955  0.00  0.00    -0.370 N 
HETATM   22  H           1     -29.252  -7.866 -16.124  0.00  0.00     0.159 HD
HETATM   23  H           1     -29.354  -9.424 -16.921  0.00  0.00     0.159 HD
HETATM   24  O           1     -29.980  -8.447 -19.119  0.00  0.00    -0.274 OA
ENDBRANCH  19  20
ENDBRANCH  18  19
BRANCH  18  25
HETATM   25  C           1     -28.081  -5.225 -16.849  0.00  0.00     0.197 C 
HETATM   26  O           1     -27.865  -6.071 -15.954  0.00  0.00    -0.646 OA
HETATM   27  O           1     -27.959  -4.006 -16.600  0.00  0.00    -0.646 OA
ENDBRANCH  18  25
ENDBRANCH   2  18
TORSDOF 8
ENDMDL
MODEL 3
REMARK VINA RESULT:      -6.7     11.846     13.564
REMARK  8 active torsions:
REMARK  status: ('A' for Active; 'I' for Inactive)
REMARK       I    between atoms: N_2  and  C_5 
REMARK    1  A    between atoms: C_5  and  C_12 
REMARK    2  A    between atoms: C_9  and  C_12 
REMARK    3  A    between atoms: C_9  and  C_10 
REMARK    4  A    between atoms: C_9  and  N_13 
REMARK       I    between atoms: N_13  and  C_14 
REMARK    5  A    between atoms: C_14  and  C_15 
REMARK    6  A    between atoms: C_15  and  C_16 
REMARK    7  A    between atoms: C_15  and  N_19 
REMARK    8  A    between atoms: C_16  and  C_17 
ROOT
HETATM    1  H           1     -22.350  -5.864  -9.114  0.00  0.00     0.163 HD
HETATM    2  N           1     -22.270  -4.902  -8.810  0.00  0.00    -0.344 N 
HETATM    3  C           1     -21.680  -4.612  -7.609  0.00  0.00     0.249 C 
HETATM    4  O           1     -21.584  -3.465  -7.244  0.00  0.00    -0.271 OA
ENDROOT
BRANCH   3   5
HETATM    5  C           1     -21.149  -5.726  -6.740  0.00  0.00     0.280 C 
BRANCH   5   6
HETATM    6  C           1     -20.764  -5.169  -5.376  0.00  0.00     0.101 C 
BRANCH   6   7
HETATM    7  C           1     -21.135  -6.154  -4.311  0.00  0.00     0.028 A 
HETATM    8  C           1     -21.060  -7.519  -4.450  0.00  0.00     0.114 A 
HETATM    9  N           1     -21.487  -8.021  -3.252  0.00  0.00    -0.360 N 
HETATM   10  C           1     -21.796  -6.960  -2.450  0.00  0.00     0.180 A 
HETATM   11  H           1     -21.562  -9.037  -2.996  0.00  0.00     0.166 HD
HETATM   12  N           1     -21.593  -5.818  -3.063  0.00  0.00    -0.355 N 
ATOM     13  HN          1     -21.745  -4.880  -2.691  1.00  0.00     0.166 HD
ENDBRANCH   6   7
ENDBRANCH   5   6
BRANCH   5  14
HETATM   14  N           1     -19.941  -6.334  -7.389  0.00  0.00    -0.066 N 
HETATM   15  H           1     -19.130  -5.682  -7.297  0.00  0.00     0.275 HD
HETATM   16  H           1     -19.714  -7.240  -6.922  0.00  0.00     0.275 HD
HETATM   17  H           1     -20.139  -6.503  -8.402  0.00  0.00     0.275 HD
ENDBRANCH   5  14
ENDBRANCH   3   5
BRANCH   2  18
HETATM   18  C           1     -22.779  -3.831  -9.644  0.00  0.00     0.194 C 
BRANCH  18  19
HETATM   19  C           1     -22.264  -4.005 -11.065  0.00  0.00     0.138 C 
BRANCH  19  20
HETATM   20  C           1     -20.762  -3.853 -11.079  0.00  0.00     0.217 C 
HETATM   21  N           1     -20.199  -2.671 -11.476  0.00  0.00    -0.370 N 
HETATM   22  H           1     -20.788  -1.899 -11.760  0.00  0.00     0.159 HD
HETATM   23  H           1     -19.192  -2.568 -11.486  0.00  0.00     0.159 HD
HETATM   24  O           1     -20.058  -4.774 -10.741  0.00  0.00    -0.274 OA
ENDBRANCH  19  20
ENDBRANCH  18  19
BRANCH  18  25
HETATM   25  C           1     -24.288  -3.873  -9.648  0.00  0.00     0.197 C 
HETATM   26  O           1     -24.942  -2.818  -9.501  0.00  0.00    -0.646 OA
HETATM   27  O           1     -24.883  -4.962  -9.798  0.00  0.00    -0.646 OA
ENDBRANCH  18  25
ENDBRANCH   2  18
TORSDOF 8
ENDMDL
MODEL 4
REMARK VINA RESULT:      -6.4     11.092     13.048
REMARK  8 active torsions:
REMARK  status: ('A' for Active; 'I' for Inactive)
REMARK       I    between atoms: N_2  and  C_5 
REMARK    1  A    between atoms: C_5  and  C_12 
REMARK    2  A    between atoms: C_9  and  C_12 
REMARK    3  A    between atoms: C_9  and  C_10 
REMARK    4  A    between atoms: C_9  and  N_13 
REMARK       I    between atoms: N_13  and  C_14 
REMARK    5  A    between atoms: C_14  and  C_15 
REMARK    6  A    between atoms: C_15  and  C_16 
REMARK    7  A    between atoms: C_15  and  N_19 
REMARK    8  A    between atoms: C_16  and  C_17 
ROOT
HETATM    1  H           1     -22.967  -3.570  -8.969  0.00  0.00     0.163 HD
HETATM    2  N           1     -22.197  -4.175  -9.226  0.00  0.00    -0.344 N 
HETATM    3  C           1     -21.330  -4.622  -8.266  0.00  0.00     0.249 C 
HETATM    4  O           1     -20.410  -5.343  -8.570  0.00  0.00    -0.271 OA
ENDROOT
BRANCH   3   5
HETATM    5  C           1     -21.523  -4.215  -6.825  0.00  0.00     0.280 C 
BRANCH   5   6
HETATM    6  C           1     -20.398  -4.793  -5.977  0.00  0.00     0.101 C 
BRANCH   6   7
HETATM    7  C           1     -20.829  -6.108  -5.406  0.00  0.00     0.028 A 
HETATM    8  C           1     -21.267  -6.294  -4.117  0.00  0.00     0.114 A 
HETATM    9  N           1     -21.552  -7.628  -4.028  0.00  0.00    -0.360 N 
HETATM   10  C           1     -21.280  -8.187  -5.244  0.00  0.00     0.180 A 
HETATM   11  H           1     -21.913  -8.131  -3.180  0.00  0.00     0.166 HD
HETATM   12  N           1     -20.841  -7.293  -6.098  0.00  0.00    -0.355 N 
ATOM     13  HN          1     -20.568  -7.446  -7.068  1.00  0.00     0.166 HD
ENDBRANCH   6   7
ENDBRANCH   5   6
BRANCH   5  14
HETATM   14  N           1     -22.839  -4.737  -6.330  0.00  0.00    -0.066 N 
HETATM   15  H           1     -23.551  -3.973  -6.359  0.00  0.00     0.275 HD
HETATM   16  H           1     -23.152  -5.526  -6.940  0.00  0.00     0.275 HD
HETATM   17  H           1     -22.732  -5.077  -5.347  0.00  0.00     0.275 HD
ENDBRANCH   5  14
ENDBRANCH   3   5
BRANCH   2  18
HETATM   18  C           1     -22.011  -4.566 -10.609  0.00  0.00     0.194 C 
BRANCH  18  19
HETATM   19  C           1     -23.367  -4.678 -11.292  0.00  0.00     0.138 C 
BRANCH  19  20
HETATM   20  C           1     -24.422  -4.034 -10.426  0.00  0.00     0.217 C 
HETATM   21  N           1     -25.127  -4.792  -9.530  0.00  0.00    -0.370 N 
HETATM   22  H           1     -24.940  -5.783  -9.449  0.00  0.00     0.159 HD
HETATM   23  H           1     -25.835  -4.361  -8.949  0.00  0.00     0.159 HD
HETATM   24  O           1     -24.645  -2.852 -10.524  0.00  0.00    -0.274 OA
ENDBRANCH  19  20
ENDBRANCH  18  19
BRANCH  18  25
HETATM   25  C           1     -21.176  -3.527 -11.317  0.00  0.00     0.197 C 
HETATM   26  O           1     -19.951  -3.717 -11.482  0.00  0.00    -0.646 OA
HETATM   27  O           1     -21.708  -2.477 -11.737  0.00  0.00    -0.646 OA
ENDBRANCH  18  25
ENDBRANCH   2  18
TORSDOF 8
ENDMDL
MODEL 5
REMARK VINA RESULT:      -6.4      1.574      2.762
REMARK  8 active torsions:
REMARK  status: ('A' for Active; 'I' for Inactive)
REMARK       I    between atoms: N_2  and  C_5 
REMARK    1  A    between atoms: C_5  and  C_12 
REMARK    2  A    between atoms: C_9  and  C_12 
REMARK    3  A    between atoms: C_9  and  C_10 
REMARK    4  A    between atoms: C_9  and  N_13 
REMARK       I    between atoms: N_13  and  C_14 
REMARK    5  A    between atoms: C_14  and  C_15 
REMARK    6  A    between atoms: C_15  and  C_16 
REMARK    7  A    between atoms: C_15  and  N_19 
REMARK    8  A    between atoms: C_16  and  C_17 
ROOT
HETATM    1  H           1     -26.128  -5.356 -17.326  0.00  0.00     0.163 HD
HETATM    2  N           1     -26.602  -6.048 -17.893  0.00  0.00    -0.344 N 
HETATM    3  C           1     -27.970  -6.068 -17.945  0.00  0.00     0.249 C 
HETATM    4  O           1     -28.537  -6.893 -18.621  0.00  0.00    -0.271 OA
ENDROOT
BRANCH   3   5
HETATM    5  C           1     -28.771  -5.059 -17.158  0.00  0.00     0.280 C 
BRANCH   5   6
HETATM    6  C           1     -29.638  -4.245 -18.109  0.00  0.00     0.101 C 
BRANCH   6   7
HETATM    7  C           1     -31.035  -4.178 -17.577  0.00  0.00     0.028 A 
HETATM    8  C           1     -31.649  -5.181 -16.865  0.00  0.00     0.114 A 
HETATM    9  N           1     -32.898  -4.702 -16.583  0.00  0.00    -0.360 N 
HETATM   10  C           1     -32.990  -3.452 -17.125  0.00  0.00     0.180 A 
HETATM   11  H           1     -33.649  -5.204 -16.048  0.00  0.00     0.166 HD
HETATM   12  N           1     -31.879  -3.108 -17.733  0.00  0.00    -0.355 N 
ATOM     13  HN          1     -31.684  -2.232 -18.217  1.00  0.00     0.166 HD
ENDBRANCH   6   7
ENDBRANCH   5   6
BRANCH   5  14
HETATM   14  N           1     -27.836  -4.142 -16.425  0.00  0.00    -0.066 N 
HETATM   15  H           1     -27.916  -3.176 -16.817  0.00  0.00     0.275 HD
HETATM   16  H           1     -28.088  -4.128 -15.411  0.00  0.00     0.275 HD
HETATM   17  H           1     -26.854  -4.483 -16.538  0.00  0.00     0.275 HD
ENDBRANCH   5  14
ENDBRANCH   3   5
BRANCH   2  18
HETATM   18  C           1     -25.834  -7.018 -18.649  0.00  0.00     0.194 C 
BRANCH  18  19
HETATM   19  C           1     -25.774  -6.592 -20.109  0.00  0.00     0.138 C 
BRANCH  19  20
HETATM   20  C           1     -26.010  -7.792 -20.994  0.00  0.00     0.217 C 
HETATM   21  N           1     -27.213  -8.445 -20.953  0.00  0.00    -0.370 N 
HETATM   22  H           1     -27.942  -8.124 -20.329  0.00  0.00     0.159 HD
HETATM   23  H           1     -27.372  -9.249 -21.546  0.00  0.00     0.159 HD
HETATM   24  O           1     -25.140  -8.174 -21.738  0.00  0.00    -0.274 OA
ENDBRANCH  19  20
ENDBRANCH  18  19
BRANCH  18  25
HETATM   25  C           1     -24.434  -7.095 -18.090  0.00  0.00     0.197 C 
HETATM   26  O           1     -23.463  -6.720 -18.783  0.00  0.00    -0.646 OA
HETATM   27  O           1     -24.245  -7.532 -16.934  0.00  0.00    -0.646 OA
ENDBRANCH  18  25
ENDBRANCH   2  18
TORSDOF 8
ENDMDL
MODEL 6
REMARK VINA RESULT:      -6.2     13.227     15.011
REMARK  8 active torsions:
REMARK  status: ('A' for Active; 'I' for Inactive)
REMARK       I    between atoms: N_2  and  C_5 
REMARK    1  A    between atoms: C_5  and  C_12 
REMARK    2  A    between atoms: C_9  and  C_12 
REMARK    3  A    between atoms: C_9  and  C_10 
REMARK    4  A    between atoms: C_9  and  N_13 
REMARK       I    between atoms: N_13  and  C_14 
REMARK    5  A    between atoms: C_14  and  C_15 
REMARK    6  A    between atoms: C_15  and  C_16 
REMARK    7  A    between atoms: C_15  and  N_19 
REMARK    8  A    between atoms: C_16  and  C_17 
ROOT
HETATM    1  H           1     -19.979  -6.412  -4.741  0.00  0.00     0.163 HD
HETATM    2  N           1     -20.981  -6.552  -4.710  0.00  0.00    -0.344 N 
HETATM    3  C           1     -21.799  -5.826  -5.532  0.00  0.00     0.249 C 
HETATM    4  O           1     -22.995  -5.992  -5.496  0.00  0.00    -0.271 OA
ENDROOT
BRANCH   3   5
HETATM    5  C           1     -21.207  -4.817  -6.486  0.00  0.00     0.280 C 
BRANCH   5   6
HETATM    6  C           1     -21.309  -5.343  -7.912  0.00  0.00     0.101 C 
BRANCH   6   7
HETATM    7  C           1     -22.349  -4.567  -8.658  0.00  0.00     0.028 A 
HETATM    8  C           1     -22.254  -4.204  -9.980  0.00  0.00     0.114 A 
HETATM    9  N           1     -23.409  -3.521 -10.243  0.00  0.00    -0.360 N 
HETATM   10  C           1     -24.143  -3.497  -9.092  0.00  0.00     0.180 A 
HETATM   11  H           1     -23.680  -3.092 -11.162  0.00  0.00     0.166 HD
HETATM   12  N           1     -23.528  -4.122  -8.116  0.00  0.00    -0.355 N 
ATOM     13  HN          1     -23.856  -4.249  -7.159  1.00  0.00     0.166 HD
ENDBRANCH   6   7
ENDBRANCH   5   6
BRANCH   5  14
HETATM   14  N           1     -19.765  -4.588  -6.140  0.00  0.00    -0.066 N 
HETATM   15  H           1     -19.405  -5.401  -5.590  0.00  0.00     0.275 HD
HETATM   16  H           1     -19.208  -4.489  -7.019  0.00  0.00     0.275 HD
HETATM   17  H           1     -19.678  -3.716  -5.571  0.00  0.00     0.275 HD
ENDBRANCH   5  14
ENDBRANCH   3   5
BRANCH   2  18
HETATM   18  C           1     -21.551  -7.521  -3.793  0.00  0.00     0.194 C 
BRANCH  18  19
HETATM   19  C           1     -20.665  -8.758  -3.748  0.00  0.00     0.138 C 
BRANCH  19  20
HETATM   20  C           1     -20.254  -9.137  -5.150  0.00  0.00     0.217 C 
HETATM   21  N           1     -20.973 -10.072  -5.844  0.00  0.00    -0.370 N 
HETATM   22  H           1     -21.779 -10.511  -5.416  0.00  0.00     0.159 HD
HETATM   23  H           1     -20.698 -10.327  -6.784  0.00  0.00     0.159 HD
HETATM   24  O           1     -19.292  -8.614  -5.660  0.00  0.00    -0.274 OA
ENDBRANCH  19  20
ENDBRANCH  18  19
BRANCH  18  25
HETATM   25  C           1     -21.639  -6.915  -2.414  0.00  0.00     0.197 C 
HETATM   26  O           1     -22.379  -5.927  -2.213  0.00  0.00    -0.646 OA
HETATM   27  O           1     -20.974  -7.401  -1.473  0.00  0.00    -0.646 OA
ENDBRANCH  18  25
ENDBRANCH   2  18
TORSDOF 8
ENDMDL
MODEL 7
REMARK VINA RESULT:      -6.2     12.741     14.514
REMARK  8 active torsions:
REMARK  status: ('A' for Active; 'I' for Inactive)
REMARK       I    between atoms: N_2  and  C_5 
REMARK    1  A    between atoms: C_5  and  C_12 
REMARK    2  A    between atoms: C_9  and  C_12 
REMARK    3  A    between atoms: C_9  and  C_10 
REMARK    4  A    between atoms: C_9  and  N_13 
REMARK       I    between atoms: N_13  and  C_14 
REMARK    5  A    between atoms: C_14  and  C_15 
REMARK    6  A    between atoms: C_15  and  C_16 
REMARK    7  A    between atoms: C_15  and  N_19 
REMARK    8  A    between atoms: C_16  and  C_17 
ROOT
HETATM    1  H           1     -21.419  -6.790  -7.010  0.00  0.00     0.163 HD
HETATM    2  N           1     -21.014  -6.283  -6.233  0.00  0.00    -0.344 N 
HETATM    3  C           1     -20.736  -4.949  -6.358  0.00  0.00     0.249 C 
HETATM    4  O           1     -20.252  -4.343  -5.432  0.00  0.00    -0.271 OA
ENDROOT
BRANCH   3   5
HETATM    5  C           1     -21.033  -4.234  -7.654  0.00  0.00     0.280 C 
BRANCH   5   6
HETATM    6  C           1     -21.715  -5.193  -8.620  0.00  0.00     0.101 C 
BRANCH   6   7
HETATM    7  C           1     -22.925  -4.535  -9.206  0.00  0.00     0.028 A 
HETATM    8  C           1     -23.341  -4.682 -10.508  0.00  0.00     0.114 A 
HETATM    9  N           1     -24.470  -3.917 -10.608  0.00  0.00    -0.360 N 
HETATM   10  C           1     -24.689  -3.347  -9.386  0.00  0.00     0.180 A 
HETATM   11  H           1     -25.060  -3.791 -11.467  0.00  0.00     0.166 HD
HETATM   12  N           1     -23.771  -3.702  -8.518  0.00  0.00    -0.355 N 
ATOM     13  HN          1     -23.701  -3.420  -7.541  1.00  0.00     0.166 HD
ENDBRANCH   6   7
ENDBRANCH   5   6
BRANCH   5  14
HETATM   14  N           1     -19.751  -3.743  -8.259  0.00  0.00    -0.066 N 
HETATM   15  H           1     -19.610  -4.194  -9.191  0.00  0.00     0.275 HD
HETATM   16  H           1     -19.797  -2.706  -8.378  0.00  0.00     0.275 HD
HETATM   17  H           1     -18.953  -3.987  -7.630  0.00  0.00     0.275 HD
ENDBRANCH   5  14
ENDBRANCH   3   5
BRANCH   2  18
HETATM   18  C           1     -20.728  -6.970  -4.989  0.00  0.00     0.194 C 
BRANCH  18  19
HETATM   19  C           1     -21.988  -7.024  -4.137  0.00  0.00     0.138 C 
BRANCH  19  20
HETATM   20  C           1     -21.635  -6.751  -2.695  0.00  0.00     0.217 C 
HETATM   21  N           1     -22.303  -5.780  -1.999  0.00  0.00    -0.370 N 
HETATM   22  H           1     -23.032  -5.245  -2.452  0.00  0.00     0.159 HD
HETATM   23  H           1     -22.066  -5.597  -1.032  0.00  0.00     0.159 HD
HETATM   24  O           1     -20.763  -7.390  -2.155  0.00  0.00    -0.274 OA
ENDBRANCH  19  20
ENDBRANCH  18  19
BRANCH  18  25
HETATM   25  C           1     -20.262  -8.374  -5.286  0.00  0.00     0.197 C 
HETATM   26  O           1     -21.037  -9.186  -5.837  0.00  0.00    -0.646 OA
HETATM   27  O           1     -19.101  -8.725  -4.983  0.00  0.00    -0.646 OA
ENDBRANCH  18  25
ENDBRANCH   2  18
TORSDOF 8
ENDMDL
MODEL 8
REMARK VINA RESULT:      -5.9     12.885     14.738
REMARK  8 active torsions:
REMARK  status: ('A' for Active; 'I' for Inactive)
REMARK       I    between atoms: N_2  and  C_5 
REMARK    1  A    between atoms: C_5  and  C_12 
REMARK    2  A    between atoms: C_9  and  C_12 
REMARK    3  A    between atoms: C_9  and  C_10 
REMARK    4  A    between atoms: C_9  and  N_13 
REMARK       I    between atoms: N_13  and  C_14 
REMARK    5  A    between atoms: C_14  and  C_15 
REMARK    6  A    between atoms: C_15  and  C_16 
REMARK    7  A    between atoms: C_15  and  N_19 
REMARK    8  A    between atoms: C_16  and  C_17 
ROOT
HETATM    1  H           1     -21.450  -7.660  -6.803  0.00  0.00     0.163 HD
HETATM    2  N           1     -21.087  -7.016  -6.111  0.00  0.00    -0.344 N 
HETATM    3  C           1     -21.221  -5.666  -6.297  0.00  0.00     0.249 C 
HETATM    4  O           1     -20.788  -4.896  -5.473  0.00  0.00    -0.271 OA
ENDROOT
BRANCH   3   5
HETATM    5  C           1     -21.912  -5.139  -7.531  0.00  0.00     0.280 C 
BRANCH   5   6
HETATM    6  C           1     -21.002  -4.142  -8.237  0.00  0.00     0.101 C 
BRANCH   6   7
HETATM    7  C           1     -21.289  -4.158  -9.706  0.00  0.00     0.028 A 
HETATM    8  C           1     -20.418  -3.724 -10.677  0.00  0.00     0.114 A 
HETATM    9  N           1     -21.078  -3.918 -11.858  0.00  0.00    -0.360 N 
HETATM   10  C           1     -22.300  -4.453 -11.562  0.00  0.00     0.180 A 
HETATM   11  H           1     -20.713  -3.696 -12.817  0.00  0.00     0.166 HD
HETATM   12  N           1     -22.455  -4.610 -10.269  0.00  0.00    -0.355 N 
ATOM     13  HN          1     -23.270  -4.987  -9.785  1.00  0.00     0.166 HD
ENDBRANCH   6   7
ENDBRANCH   5   6
BRANCH   5  14
HETATM   14  N           1     -23.188  -4.457  -7.136  0.00  0.00    -0.066 N 
HETATM   15  H           1     -23.996  -4.928  -7.604  0.00  0.00     0.275 HD
HETATM   16  H           1     -23.306  -4.513  -6.100  0.00  0.00     0.275 HD
HETATM   17  H           1     -23.153  -3.454  -7.431  0.00  0.00     0.275 HD
ENDBRANCH   5  14
ENDBRANCH   3   5
BRANCH   2  18
HETATM   18  C           1     -20.423  -7.521  -4.925  0.00  0.00     0.194 C 
BRANCH  18  19
HETATM   19  C           1     -21.465  -8.011  -3.930  0.00  0.00     0.138 C 
BRANCH  19  20
HETATM   20  C           1     -21.420  -7.153  -2.689  0.00  0.00     0.217 C 
HETATM   21  N           1     -22.071  -5.949  -2.667  0.00  0.00    -0.370 N 
HETATM   22  H           1     -22.581  -5.634  -3.482  0.00  0.00     0.159 HD
HETATM   23  H           1     -22.041  -5.372  -1.835  0.00  0.00     0.159 HD
HETATM   24  O           1     -20.810  -7.528  -1.717  0.00  0.00    -0.274 OA
ENDBRANCH  19  20
ENDBRANCH  18  19
BRANCH  18  25
HETATM   25  C           1     -19.516  -8.666  -5.308  0.00  0.00     0.197 C 
HETATM   26  O           1     -18.717  -8.537  -6.261  0.00  0.00    -0.646 OA
HETATM   27  O           1     -19.563  -9.741  -4.672  0.00  0.00    -0.646 OA
ENDBRANCH  18  25
ENDBRANCH   2  18
TORSDOF 8
ENDMDL
MODEL 9
REMARK VINA RESULT:      -5.9     15.725     17.632
REMARK  8 active torsions:
REMARK  status: ('A' for Active; 'I' for Inactive)
REMARK       I    between atoms: N_2  and  C_5 
REMARK    1  A    between atoms: C_5  and  C_12 
REMARK    2  A    between atoms: C_9  and  C_12 
REMARK    3  A    between atoms: C_9  and  C_10 
REMARK    4  A    between atoms: C_9  and  N_13 
REMARK       I    between atoms: N_13  and  C_14 
REMARK    5  A    between atoms: C_14  and  C_15 
REMARK    6  A    between atoms: C_15  and  C_16 
REMARK    7  A    between atoms: C_15  and  N_19 
REMARK    8  A    between atoms: C_16  and  C_17 
ROOT
HETATM    1  H           1     -22.175  -8.096  -2.669  0.00  0.00     0.163 HD
HETATM    2  N           1     -21.283  -8.539  -2.490  0.00  0.00    -0.344 N 
HETATM    3  C           1     -20.269  -8.430  -3.403  0.00  0.00     0.249 C 
HETATM    4  O           1     -19.204  -8.958  -3.191  0.00  0.00    -0.271 OA
ENDROOT
BRANCH   3   5
HETATM    5  C           1     -20.482  -7.647  -4.676  0.00  0.00     0.280 C 
BRANCH   5   6
HETATM    6  C           1     -21.401  -6.465  -4.400  0.00  0.00     0.101 C 
BRANCH   6   7
HETATM    7  C           1     -21.333  -5.502  -5.544  0.00  0.00     0.028 A 
HETATM    8  C           1     -20.193  -4.853  -5.953  0.00  0.00     0.114 A 
HETATM    9  N           1     -20.583  -4.084  -7.014  0.00  0.00    -0.360 N 
HETATM   10  C           1     -21.920  -4.294  -7.202  0.00  0.00     0.180 A 
HETATM   11  H           1     -19.968  -3.449  -7.580  0.00  0.00     0.166 HD
HETATM   12  N           1     -22.401  -5.146  -6.328  0.00  0.00    -0.355 N 
ATOM     13  HN          1     -23.363  -5.474  -6.249  1.00  0.00     0.166 HD
ENDBRANCH   6   7
ENDBRANCH   5   6
BRANCH   5  14
HETATM   14  N           1     -21.108  -8.535  -5.710  0.00  0.00    -0.066 N 
HETATM   15  H           1     -21.037  -8.083  -6.649  0.00  0.00     0.275 HD
HETATM   16  H           1     -20.609  -9.453  -5.728  0.00  0.00     0.275 HD
HETATM   17  H           1     -22.115  -8.689  -5.473  0.00  0.00     0.275 HD
ENDBRANCH   5  14
ENDBRANCH   3   5
BRANCH   2  18
HETATM   18  C           1     -21.078  -9.291  -1.267  0.00  0.00     0.194 C 
BRANCH  18  19
HETATM   19  C           1     -21.224  -8.363  -0.069  0.00  0.00     0.138 C 
BRANCH  19  20
HETATM   20  C           1     -22.542  -7.633  -0.154  0.00  0.00     0.217 C 
HETATM   21  N           1     -23.599  -8.041   0.614  0.00  0.00    -0.370 N 
HETATM   22  H           1     -23.497  -8.831   1.237  0.00  0.00     0.159 HD
HETATM   23  H           1     -24.484  -7.552   0.558  0.00  0.00     0.159 HD
HETATM   24  O           1     -22.665  -6.691  -0.899  0.00  0.00    -0.274 OA
ENDBRANCH  19  20
ENDBRANCH  18  19
BRANCH  18  25
HETATM   25  C           1     -22.107 -10.393  -1.177  0.00  0.00     0.197 C 
HETATM   26  O           1     -22.766 -10.715  -2.190  0.00  0.00    -0.646 OA
HETATM   27  O           1     -22.299 -10.982  -0.092  0.00  0.00    -0.646 OA
ENDBRANCH  18  25
ENDBRANCH   2  18
TORSDOF 8
ENDMDL
