MODEL 1
REMARK VINA RESULT:      -8.4      0.000      0.000
REMARK  11 active torsions:
REMARK  status: ('A' for Active; 'I' for Inactive)
REMARK    1  A    between atoms: N_2  and  C_12 
REMARK       I    between atoms: N_2  and  C_3 
REMARK    2  A    between atoms: C_3  and  C_4 
REMARK    3  A    between atoms: C_4  and  C_9 
REMARK    4  A    between atoms: C_4  and  N_21 
REMARK    5  A    between atoms: O_7  and  P_23 
REMARK    6  A    between atoms: C_9  and  C_19 
REMARK    7  A    between atoms: C_12  and  C_26 
REMARK    8  A    between atoms: C_12  and  C_13 
REMARK    9  A    between atoms: C_13  and  C_14 
REMARK   10  A    between atoms: P_23  and  O_24 
REMARK   11  A    between atoms: O_24  and  C_25 
ROOT
HETATM    1  C           1     -32.453  -4.349 -16.232  0.00  0.00     0.189 C 
ENDROOT
BRANCH   1   2
HETATM    2  N           1     -33.751  -4.572 -15.625  0.00  0.00    -0.344 N 
HETATM    3  C           1     -34.095  -3.901 -14.481  0.00  0.00     0.249 C 
HETATM    4  O           1     -34.650  -2.830 -14.554  0.00  0.00    -0.271 OA
HETATM    5  H           1     -34.402  -5.223 -16.045  0.00  0.00     0.163 HD
BRANCH   3   6
HETATM    6  C           1     -33.782  -4.499 -13.132  0.00  0.00     0.278 C 
BRANCH   6   7
HETATM    7  C           1     -34.392  -3.633 -12.038  0.00  0.00     0.021 C 
HETATM    8  C           1     -35.173  -4.513 -11.070  0.00  0.00     0.012 C 
BRANCH   7   9
HETATM    9  C           1     -33.282  -2.913 -11.284  0.00  0.00     0.002 C 
HETATM   10  C           1     -33.891  -2.038 -10.196  0.00  0.00     0.005 C 
ENDBRANCH   7   9
ENDBRANCH   6   7
BRANCH   6  11
HETATM   11  N           1     -32.295  -4.564 -12.947  0.00  0.00    -0.066 N 
HETATM   12  H           1     -31.931  -5.452 -13.362  0.00  0.00     0.275 HD
HETATM   13  H           1     -31.848  -3.748 -13.424  0.00  0.00     0.275 HD
HETATM   14  H           1     -32.069  -4.537 -11.927  0.00  0.00     0.275 HD
ENDBRANCH   6  11
ENDBRANCH   3   6
ENDBRANCH   1   2
BRANCH   1  15
HETATM   15  C           1     -32.582  -3.318 -17.326  0.00  0.00     0.197 C 
HETATM   16  O           1     -33.691  -2.787 -17.556  0.00  0.00    -0.646 OA
HETATM   17  O           1     -31.582  -2.993 -18.001  0.00  0.00    -0.646 OA
ENDBRANCH   1  15
BRANCH   1  18
HETATM   18  C           1     -31.939  -5.656 -16.824  0.00  0.00     0.074 C 
BRANCH  18  19
HETATM   19  C           1     -30.441  -5.646 -16.829  0.00  0.00    -0.056 A 
HETATM   20  C           1     -29.744  -6.091 -17.952  0.00  0.00     0.010 A 
HETATM   21  C           1     -28.349  -6.083 -17.955  0.00  0.00     0.038 A 
HETATM   22  C           1     -27.652  -5.627 -16.836  0.00  0.00     0.081 A 
HETATM   23  C           1     -28.349  -5.182 -15.714  0.00  0.00     0.038 A 
HETATM   24  C           1     -29.744  -5.190 -15.710  0.00  0.00     0.010 A 
BRANCH  22  25
HETATM   25  O           1     -26.297  -5.618 -16.840  0.00  0.00    -0.247 OA
BRANCH  25  26
HETATM   26  P           1     -25.529  -6.699 -15.918  0.00  0.00     0.411 P 
HETATM   27  O           1     -24.524  -7.417 -16.733  0.00  0.00    -0.624 OA
HETATM   28  O           1     -26.508  -7.667 -15.375  0.00  0.00    -0.624 OA
BRANCH  26  29
HETATM   29  O           1     -24.790  -5.938 -14.700  0.00  0.00    -0.300 OA
HETATM   30  H           1     -24.774  -6.563 -13.996  0.00  0.00     0.223 HD
ENDBRANCH  26  29
ENDBRANCH  25  26
ENDBRANCH  22  25
ENDBRANCH  18  19
ENDBRANCH   1  18
TORSDOF 11
ENDMDL
MODEL 2
REMARK VINA RESULT:      -7.9     12.026     14.362
REMARK  11 active torsions:
REMARK  status: ('A' for Active; 'I' for Inactive)
REMARK    1  A    between atoms: N_2  and  C_12 
REMARK       I    between atoms: N_2  and  C_3 
REMARK    2  A    between atoms: C_3  and  C_4 
REMARK    3  A    between atoms: C_4  and  C_9 
REMARK    4  A    between atoms: C_4  and  N_21 
REMARK    5  A    between atoms: O_7  and  P_23 
REMARK    6  A    between atoms: C_9  and  C_19 
REMARK    7  A    between atoms: C_12  and  C_26 
REMARK    8  A    between atoms: C_12  and  C_13 
REMARK    9  A    between atoms: C_13  and  C_14 
REMARK   10  A    between atoms: P_23  and  O_24 
REMARK   11  A    between atoms: O_24  and  C_25 
ROOT
HETATM    1  C           1     -20.651  -7.574  -5.657  0.00  0.00     0.189 C 
ENDROOT
BRANCH   1   2
HETATM    2  N           1     -21.681  -7.904  -4.691  0.00  0.00    -0.344 N 
HETATM    3  C           1     -22.155  -6.941  -3.840  0.00  0.00     0.249 C 
HETATM    4  O           1     -23.100  -6.261  -4.163  0.00  0.00    -0.271 OA
HETATM    5  H           1     -22.051  -8.845  -4.647  0.00  0.00     0.163 HD
BRANCH   3   6
HETATM    6  C           1     -21.497  -6.730  -2.499  0.00  0.00     0.278 C 
BRANCH   6   7
HETATM    7  C           1     -21.795  -7.917  -1.593  0.00  0.00     0.021 C 
HETATM    8  C           1     -20.486  -8.559  -1.151  0.00  0.00     0.012 C 
BRANCH   7   9
HETATM    9  C           1     -22.565  -7.439  -0.369  0.00  0.00     0.002 C 
HETATM   10  C           1     -21.957  -8.056   0.885  0.00  0.00     0.005 C 
ENDBRANCH   7   9
ENDBRANCH   6   7
BRANCH   6  11
HETATM   11  N           1     -22.031  -5.477  -1.872  0.00  0.00    -0.066 N 
HETATM   12  H           1     -21.255  -4.971  -1.387  0.00  0.00     0.275 HD
HETATM   13  H           1     -22.438  -4.862  -2.613  0.00  0.00     0.275 HD
HETATM   14  H           1     -22.774  -5.723  -1.179  0.00  0.00     0.275 HD
ENDBRANCH   6  11
ENDBRANCH   3   6
ENDBRANCH   1   2
BRANCH   1  15
HETATM   15  C           1     -19.403  -8.363  -5.347  0.00  0.00     0.197 C 
HETATM   16  O           1     -19.124  -8.651  -4.162  0.00  0.00    -0.646 OA
HETATM   17  O           1     -18.648  -8.729  -6.273  0.00  0.00    -0.646 OA
ENDBRANCH   1  15
BRANCH   1  18
HETATM   18  C           1     -20.342  -6.084  -5.580  0.00  0.00     0.074 C 
BRANCH  18  19
HETATM   19  C           1     -20.874  -5.401  -6.801  0.00  0.00    -0.056 A 
HETATM   20  C           1     -22.093  -4.723  -6.747  0.00  0.00     0.010 A 
HETATM   21  C           1     -22.588  -4.088  -7.886  0.00  0.00     0.038 A 
HETATM   22  C           1     -21.864  -4.128  -9.078  0.00  0.00     0.081 A 
HETATM   23  C           1     -20.647  -4.806  -9.131  0.00  0.00     0.038 A 
HETATM   24  C           1     -20.151  -5.442  -7.993  0.00  0.00     0.010 A 
BRANCH  22  25
HETATM   25  O           1     -22.346  -3.510 -10.184  0.00  0.00    -0.247 OA
BRANCH  25  26
HETATM   26  P           1     -23.573  -4.208 -10.968  0.00  0.00     0.411 P 
HETATM   27  O           1     -24.739  -3.297 -10.970  0.00  0.00    -0.624 OA
HETATM   28  O           1     -23.936  -5.473 -10.291  0.00  0.00    -0.624 OA
BRANCH  26  29
HETATM   29  O           1     -23.131  -4.519 -12.490  0.00  0.00    -0.300 OA
HETATM   30  H           1     -22.220  -4.285 -12.532  0.00  0.00     0.223 HD
ENDBRANCH  26  29
ENDBRANCH  25  26
ENDBRANCH  22  25
ENDBRANCH  18  19
ENDBRANCH   1  18
TORSDOF 11
ENDMDL
MODEL 3
REMARK VINA RESULT:      -7.5     12.113     14.419
REMARK  11 active torsions:
REMARK  status: ('A' for Active; 'I' for Inactive)
REMARK    1  A    between atoms: N_2  and  C_12 
REMARK       I    between atoms: N_2  and  C_3 
REMARK    2  A    between atoms: C_3  and  C_4 
REMARK    3  A    between atoms: C_4  and  C_9 
REMARK    4  A    between atoms: C_4  and  N_21 
REMARK    5  A    between atoms: O_7  and  P_23 
REMARK    6  A    between atoms: C_9  and  C_19 
REMARK    7  A    between atoms: C_12  and  C_26 
REMARK    8  A    between atoms: C_12  and  C_13 
REMARK    9  A    between atoms: C_13  and  C_14 
REMARK   10  A    between atoms: P_23  and  O_24 
REMARK   11  A    between atoms: O_24  and  C_25 
ROOT
HETATM    1  C           1     -21.142  -6.427  -4.984  0.00  0.00     0.189 C 
ENDROOT
BRANCH   1   2
HETATM    2  N           1     -20.971  -6.557  -3.550  0.00  0.00    -0.344 N 
HETATM    3  C           1     -20.812  -7.797  -2.989  0.00  0.00     0.249 C 
HETATM    4  O           1     -19.705  -8.263  -2.858  0.00  0.00    -0.271 OA
HETATM    5  H           1     -20.969  -5.732  -2.963  0.00  0.00     0.163 HD
BRANCH   3   6
HETATM    6  C           1     -22.019  -8.580  -2.535  0.00  0.00     0.278 C 
BRANCH   6   7
HETATM    7  C           1     -21.963  -8.771  -1.025  0.00  0.00     0.021 C 
HETATM    8  C           1     -22.470  -7.512  -0.335  0.00  0.00     0.012 C 
BRANCH   7   9
HETATM    9  C           1     -22.838  -9.953  -0.631  0.00  0.00     0.002 C 
HETATM   10  C           1     -22.053 -10.883   0.285  0.00  0.00     0.005 C 
ENDBRANCH   7   9
ENDBRANCH   6   7
BRANCH   6  11
HETATM   11  N           1     -22.026  -9.920  -3.208  0.00  0.00    -0.066 N 
HETATM   12  H           1     -21.439  -9.880  -4.071  0.00  0.00     0.275 HD
HETATM   13  H           1     -21.640 -10.640  -2.556  0.00  0.00     0.275 HD
HETATM   14  H           1     -23.007 -10.175  -3.465  0.00  0.00     0.275 HD
ENDBRANCH   6  11
ENDBRANCH   3   6
ENDBRANCH   1   2
BRANCH   1  15
HETATM   15  C           1     -20.614  -7.665  -5.665  0.00  0.00     0.197 C 
HETATM   16  O           1     -21.388  -8.611  -5.932  0.00  0.00    -0.646 OA
HETATM   17  O           1     -19.403  -7.747  -5.964  0.00  0.00    -0.646 OA
ENDBRANCH   1  15
BRANCH   1  18
HETATM   18  C           1     -20.373  -5.208  -5.478  0.00  0.00     0.074 C 
BRANCH  18  19
HETATM   19  C           1     -20.897  -4.799  -6.819  0.00  0.00    -0.056 A 
HETATM   20  C           1     -20.057  -4.819  -7.933  0.00  0.00     0.010 A 
HETATM   21  C           1     -20.546  -4.436  -9.182  0.00  0.00     0.038 A 
HETATM   22  C           1     -21.875  -4.035  -9.318  0.00  0.00     0.081 A 
HETATM   23  C           1     -22.714  -4.015  -8.205  0.00  0.00     0.038 A 
HETATM   24  C           1     -22.226  -4.398  -6.955  0.00  0.00     0.010 A 
BRANCH  22  25
HETATM   25  O           1     -22.349  -3.664 -10.532  0.00  0.00    -0.247 OA
BRANCH  25  26
HETATM   26  P           1     -23.724  -4.337 -11.046  0.00  0.00     0.411 P 
HETATM   27  O           1     -24.837  -3.376 -10.880  0.00  0.00    -0.624 OA
HETATM   28  O           1     -24.003  -5.556 -10.254  0.00  0.00    -0.624 OA
BRANCH  26  29
HETATM   29  O           1     -23.581  -4.730 -12.606  0.00  0.00    -0.300 OA
HETATM   30  H           1     -23.235  -5.606 -12.606  0.00  0.00     0.223 HD
ENDBRANCH  26  29
ENDBRANCH  25  26
ENDBRANCH  22  25
ENDBRANCH  18  19
ENDBRANCH   1  18
TORSDOF 11
ENDMDL
MODEL 4
REMARK VINA RESULT:      -7.2     12.542     15.229
REMARK  11 active torsions:
REMARK  status: ('A' for Active; 'I' for Inactive)
REMARK    1  A    between atoms: N_2  and  C_12 
REMARK       I    between atoms: N_2  and  C_3 
REMARK    2  A    between atoms: C_3  and  C_4 
REMARK    3  A    between atoms: C_4  and  C_9 
REMARK    4  A    between atoms: C_4  and  N_21 
REMARK    5  A    between atoms: O_7  and  P_23 
REMARK    6  A    between atoms: C_9  and  C_19 
REMARK    7  A    between atoms: C_12  and  C_26 
REMARK    8  A    between atoms: C_12  and  C_13 
REMARK    9  A    between atoms: C_13  and  C_14 
REMARK   10  A    between atoms: P_23  and  O_24 
REMARK   11  A    between atoms: O_24  and  C_25 
ROOT
HETATM    1  C           1     -20.750  -5.023  -6.107  0.00  0.00     0.189 C 
ENDROOT
BRANCH   1   2
HETATM    2  N           1     -21.488  -4.041  -6.878  0.00  0.00    -0.344 N 
HETATM    3  C           1     -22.565  -4.430  -7.630  0.00  0.00     0.249 C 
HETATM    4  O           1     -23.671  -4.435  -7.144  0.00  0.00    -0.271 OA
HETATM    5  H           1     -21.209  -3.068  -6.859  0.00  0.00     0.163 HD
BRANCH   3   6
HETATM    6  C           1     -22.369  -4.851  -9.066  0.00  0.00     0.278 C 
BRANCH   6   7
HETATM    7  C           1     -21.355  -3.931  -9.732  0.00  0.00     0.021 C 
HETATM    8  C           1     -20.173  -4.754 -10.229  0.00  0.00     0.012 C 
BRANCH   7   9
HETATM    9  C           1     -22.011  -3.224 -10.910  0.00  0.00     0.002 C 
HETATM   10  C           1     -21.335  -3.659 -12.204  0.00  0.00     0.005 C 
ENDBRANCH   7   9
ENDBRANCH   6   7
BRANCH   6  11
HETATM   11  N           1     -23.677  -4.765  -9.794  0.00  0.00    -0.066 N 
HETATM   12  H           1     -23.849  -5.659 -10.308  0.00  0.00     0.275 HD
HETATM   13  H           1     -24.449  -4.603  -9.108  0.00  0.00     0.275 HD
HETATM   14  H           1     -23.644  -3.972 -10.475  0.00  0.00     0.275 HD
ENDBRANCH   6  11
ENDBRANCH   3   6
ENDBRANCH   1   2
BRANCH   1  15
HETATM   15  C           1     -19.518  -5.437  -6.874  0.00  0.00     0.197 C 
HETATM   16  O           1     -18.620  -4.600  -7.113  0.00  0.00    -0.646 OA
HETATM   17  O           1     -19.394  -6.616  -7.270  0.00  0.00    -0.646 OA
ENDBRANCH   1  15
BRANCH   1  18
HETATM   18  C           1     -21.630  -6.242  -5.864  0.00  0.00     0.074 C 
BRANCH  18  19
HETATM   19  C           1     -21.390  -6.763  -4.481  0.00  0.00    -0.056 A 
HETATM   20  C           1     -21.987  -6.137  -3.386  0.00  0.00     0.010 A 
HETATM   21  C           1     -21.762  -6.622  -2.098  0.00  0.00     0.038 A 
HETATM   22  C           1     -20.940  -7.733  -1.904  0.00  0.00     0.081 A 
HETATM   23  C           1     -20.343  -8.357  -2.998  0.00  0.00     0.038 A 
HETATM   24  C           1     -20.568  -7.873  -4.287  0.00  0.00     0.010 A 
BRANCH  22  25
HETATM   25  O           1     -20.722  -8.204  -0.652  0.00  0.00    -0.247 OA
BRANCH  25  26
HETATM   26  P           1     -21.873  -9.111   0.027  0.00  0.00     0.411 P 
HETATM   27  O           1     -22.780  -8.248   0.816  0.00  0.00    -0.624 OA
HETATM   28  O           1     -21.248 -10.115   0.917  0.00  0.00    -0.624 OA
BRANCH  26  29
HETATM   29  O           1     -22.715  -9.864  -1.127  0.00  0.00    -0.300 OA
HETATM   30  H           1     -22.187 -10.605  -1.371  0.00  0.00     0.223 HD
ENDBRANCH  26  29
ENDBRANCH  25  26
ENDBRANCH  22  25
ENDBRANCH  18  19
ENDBRANCH   1  18
TORSDOF 11
ENDMDL
MODEL 5
REMARK VINA RESULT:      -6.8     12.987     15.469
REMARK  11 active torsions:
REMARK  status: ('A' for Active; 'I' for Inactive)
REMARK    1  A    between atoms: N_2  and  C_12 
REMARK       I    between atoms: N_2  and  C_3 
REMARK    2  A    between atoms: C_3  and  C_4 
REMARK    3  A    between atoms: C_4  and  C_9 
REMARK    4  A    between atoms: C_4  and  N_21 
REMARK    5  A    between atoms: O_7  and  P_23 
REMARK    6  A    between atoms: C_9  and  C_19 
REMARK    7  A    between atoms: C_12  and  C_26 
REMARK    8  A    between atoms: C_12  and  C_13 
REMARK    9  A    between atoms: C_13  and  C_14 
REMARK   10  A    between atoms: P_23  and  O_24 
REMARK   11  A    between atoms: O_24  and  C_25 
ROOT
HETATM    1  C           1     -21.051  -7.050  -5.951  0.00  0.00     0.189 C 
ENDROOT
BRANCH   1   2
HETATM    2  N           1     -20.581  -6.222  -7.045  0.00  0.00    -0.344 N 
HETATM    3  C           1     -21.136  -4.988  -7.257  0.00  0.00     0.249 C 
HETATM    4  O           1     -20.666  -4.014  -6.717  0.00  0.00    -0.271 OA
HETATM    5  H           1     -19.842  -6.555  -7.652  0.00  0.00     0.163 HD
BRANCH   3   6
HETATM    6  C           1     -22.334  -4.844  -8.162  0.00  0.00     0.278 C 
BRANCH   6   7
HETATM    7  C           1     -22.011  -3.863  -9.281  0.00  0.00     0.021 C 
HETATM    8  C           1     -20.925  -4.450 -10.174  0.00  0.00     0.012 C 
BRANCH   7   9
HETATM    9  C           1     -23.264  -3.608 -10.108  0.00  0.00     0.002 C 
HETATM   10  C           1     -23.574  -4.838 -10.952  0.00  0.00     0.005 C 
ENDBRANCH   7   9
ENDBRANCH   6   7
BRANCH   6  11
HETATM   11  N           1     -23.500  -4.333  -7.371  0.00  0.00    -0.066 N 
HETATM   12  H           1     -23.972  -5.132  -6.890  0.00  0.00     0.275 HD
HETATM   13  H           1     -23.165  -3.646  -6.658  0.00  0.00     0.275 HD
HETATM   14  H           1     -24.179  -3.864  -8.013  0.00  0.00     0.275 HD
ENDBRANCH   6  11
ENDBRANCH   3   6
ENDBRANCH   1   2
BRANCH   1  15
HETATM   15  C           1     -21.711  -6.179  -4.911  0.00  0.00     0.197 C 
HETATM   16  O           1     -21.012  -5.570  -4.071  0.00  0.00    -0.646 OA
HETATM   17  O           1     -22.955  -6.065  -4.889  0.00  0.00    -0.646 OA
ENDBRANCH   1  15
BRANCH   1  18
HETATM   18  C           1     -19.870  -7.782  -5.326  0.00  0.00     0.074 C 
BRANCH  18  19
HETATM   19  C           1     -20.374  -8.785  -4.335  0.00  0.00    -0.056 A 
HETATM   20  C           1     -21.489  -9.567  -4.638  0.00  0.00     0.010 A 
HETATM   21  C           1     -21.958 -10.500  -3.713  0.00  0.00     0.038 A 
HETATM   22  C           1     -21.311 -10.653  -2.487  0.00  0.00     0.081 A 
HETATM   23  C           1     -20.197  -9.871  -2.184  0.00  0.00     0.038 A 
HETATM   24  C           1     -19.727  -8.938  -3.108  0.00  0.00     0.010 A 
BRANCH  22  25
HETATM   25  O           1     -21.767 -11.560  -1.589  0.00  0.00    -0.247 OA
BRANCH  25  26
HETATM   26  P           1     -22.429 -11.009  -0.223  0.00  0.00     0.411 P 
HETATM   27  O           1     -23.383 -12.010   0.302  0.00  0.00    -0.624 OA
HETATM   28  O           1     -23.144  -9.742  -0.498  0.00  0.00    -0.624 OA
BRANCH  26  29
HETATM   29  O           1     -21.268 -10.747   0.869  0.00  0.00    -0.300 OA
HETATM   30  H           1     -20.467 -10.981   0.434  0.00  0.00     0.223 HD
ENDBRANCH  26  29
ENDBRANCH  25  26
ENDBRANCH  22  25
ENDBRANCH  18  19
ENDBRANCH   1  18
TORSDOF 11
ENDMDL
MODEL 6
REMARK VINA RESULT:      -6.7     14.962     17.677
REMARK  11 active torsions:
REMARK  status: ('A' for Active; 'I' for Inactive)
REMARK    1  A    between atoms: N_2  and  C_12 
REMARK       I    between atoms: N_2  and  C_3 
REMARK    2  A    between atoms: C_3  and  C_4 
REMARK    3  A    between atoms: C_4  and  C_9 
REMARK    4  A    between atoms: C_4  and  N_21 
REMARK    5  A    between atoms: O_7  and  P_23 
REMARK    6  A    between atoms: C_9  and  C_19 
REMARK    7  A    between atoms: C_12  and  C_26 
REMARK    8  A    between atoms: C_12  and  C_13 
REMARK    9  A    between atoms: C_13  and  C_14 
REMARK   10  A    between atoms: P_23  and  O_24 
REMARK   11  A    between atoms: O_24  and  C_25 
ROOT
HETATM    1  C           1     -20.595  -9.766  -1.384  0.00  0.00     0.189 C 
ENDROOT
BRANCH   1   2
HETATM    2  N           1     -20.074 -11.105  -1.579  0.00  0.00    -0.344 N 
HETATM    3  C           1     -18.727 -11.300  -1.735  0.00  0.00     0.249 C 
HETATM    4  O           1     -18.030 -11.496  -0.768  0.00  0.00    -0.271 OA
HETATM    5  H           1     -20.705 -11.896  -1.600  0.00  0.00     0.163 HD
BRANCH   3   6
HETATM    6  C           1     -18.114 -11.269  -3.113  0.00  0.00     0.278 C 
BRANCH   6   7
HETATM    7  C           1     -17.698  -9.844  -3.453  0.00  0.00     0.021 C 
HETATM    8  C           1     -16.294  -9.584  -2.919  0.00  0.00     0.012 C 
BRANCH   7   9
HETATM    9  C           1     -17.708  -9.659  -4.964  0.00  0.00     0.002 C 
HETATM   10  C           1     -16.295  -9.836  -5.506  0.00  0.00     0.005 C 
ENDBRANCH   7   9
ENDBRANCH   6   7
BRANCH   6  11
HETATM   11  N           1     -19.120 -11.747  -4.118  0.00  0.00    -0.066 N 
HETATM   12  H           1     -19.417 -12.720  -3.876  0.00  0.00     0.275 HD
HETATM   13  H           1     -19.952 -11.115  -4.107  0.00  0.00     0.275 HD
HETATM   14  H           1     -18.690 -11.741  -5.071  0.00  0.00     0.275 HD
ENDBRANCH   6  11
ENDBRANCH   3   6
ENDBRANCH   1   2
BRANCH   1  15
HETATM   15  C           1     -21.067  -9.615   0.041  0.00  0.00     0.197 C 
HETATM   16  O           1     -21.176 -10.623   0.773  0.00  0.00    -0.646 OA
HETATM   17  O           1     -21.349  -8.483   0.490  0.00  0.00    -0.646 OA
ENDBRANCH   1  15
BRANCH   1  18
HETATM   18  C           1     -21.764  -9.533  -2.334  0.00  0.00     0.074 C 
BRANCH  18  19
HETATM   19  C           1     -21.458  -8.369  -3.225  0.00  0.00    -0.056 A 
HETATM   20  C           1     -21.134  -8.582  -4.565  0.00  0.00     0.010 A 
HETATM   21  C           1     -20.849  -7.497  -5.394  0.00  0.00     0.038 A 
HETATM   22  C           1     -20.888  -6.199  -4.883  0.00  0.00     0.081 A 
HETATM   23  C           1     -21.211  -5.987  -3.543  0.00  0.00     0.038 A 
HETATM   24  C           1     -21.497  -7.072  -2.714  0.00  0.00     0.010 A 
BRANCH  22  25
HETATM   25  O           1     -20.611  -5.146  -5.689  0.00  0.00    -0.247 OA
BRANCH  25  26
HETATM   26  P           1     -21.700  -4.744  -6.812  0.00  0.00     0.411 P 
HETATM   27  O           1     -23.060  -5.043  -6.310  0.00  0.00    -0.624 OA
HETATM   28  O           1     -21.447  -5.523  -8.045  0.00  0.00    -0.624 OA
BRANCH  26  29
HETATM   29  O           1     -21.581  -3.167  -7.137  0.00  0.00    -0.300 OA
HETATM   30  H           1     -21.313  -3.123  -8.038  0.00  0.00     0.223 HD
ENDBRANCH  26  29
ENDBRANCH  25  26
ENDBRANCH  22  25
ENDBRANCH  18  19
ENDBRANCH   1  18
TORSDOF 11
ENDMDL
MODEL 7
REMARK VINA RESULT:      -6.7     15.609     17.419
REMARK  11 active torsions:
REMARK  status: ('A' for Active; 'I' for Inactive)
REMARK    1  A    between atoms: N_2  and  C_12 
REMARK       I    between atoms: N_2  and  C_3 
REMARK    2  A    between atoms: C_3  and  C_4 
REMARK    3  A    between atoms: C_4  and  C_9 
REMARK    4  A    between atoms: C_4  and  N_21 
REMARK    5  A    between atoms: O_7  and  P_23 
REMARK    6  A    between atoms: C_9  and  C_19 
REMARK    7  A    between atoms: C_12  and  C_26 
REMARK    8  A    between atoms: C_12  and  C_13 
REMARK    9  A    between atoms: C_13  and  C_14 
REMARK   10  A    between atoms: P_23  and  O_24 
REMARK   11  A    between atoms: O_24  and  C_25 
ROOT
HETATM    1  C           1     -20.990  -7.401  -3.760  0.00  0.00     0.189 C 
ENDROOT
BRANCH   1   2
HETATM    2  N           1     -22.085  -7.696  -2.856  0.00  0.00    -0.344 N 
HETATM    3  C           1     -22.004  -7.326  -1.539  0.00  0.00     0.249 C 
HETATM    4  O           1     -22.408  -6.242  -1.191  0.00  0.00    -0.271 OA
HETATM    5  H           1     -22.908  -8.176  -3.197  0.00  0.00     0.163 HD
BRANCH   3   6
HETATM    6  C           1     -21.410  -8.271  -0.525  0.00  0.00     0.278 C 
BRANCH   6   7
HETATM    7  C           1     -21.882  -9.690  -0.814  0.00  0.00     0.021 C 
HETATM    8  C           1     -20.880 -10.685  -0.242  0.00  0.00     0.012 C 
BRANCH   7   9
HETATM    9  C           1     -23.243  -9.913  -0.167  0.00  0.00     0.002 C 
HETATM   10  C           1     -23.865 -11.188  -0.721  0.00  0.00     0.005 C 
ENDBRANCH   7   9
ENDBRANCH   6   7
BRANCH   6  11
HETATM   11  N           1     -21.850  -7.869   0.851  0.00  0.00    -0.066 N 
HETATM   12  H           1     -22.700  -7.265   0.782  0.00  0.00     0.275 HD
HETATM   13  H           1     -22.074  -8.723   1.410  0.00  0.00     0.275 HD
HETATM   14  H           1     -21.082  -7.337   1.321  0.00  0.00     0.275 HD
ENDBRANCH   6  11
ENDBRANCH   3   6
ENDBRANCH   1   2
BRANCH   1  15
HETATM   15  C           1     -21.368  -6.235  -4.640  0.00  0.00     0.197 C 
HETATM   16  O           1     -22.565  -6.053  -4.956  0.00  0.00    -0.646 OA
HETATM   17  O           1     -20.487  -5.452  -5.053  0.00  0.00    -0.646 OA
ENDBRANCH   1  15
BRANCH   1  18
HETATM   18  C           1     -20.705  -8.621  -4.627  0.00  0.00     0.074 C 
BRANCH  18  19
HETATM   19  C           1     -19.314  -9.107  -4.362  0.00  0.00    -0.056 A 
HETATM   20  C           1     -18.477  -9.441  -5.427  0.00  0.00     0.010 A 
HETATM   21  C           1     -17.181  -9.895  -5.179  0.00  0.00     0.038 A 
HETATM   22  C           1     -16.722 -10.012  -3.867  0.00  0.00     0.081 A 
HETATM   23  C           1     -17.559  -9.679  -2.804  0.00  0.00     0.038 A 
HETATM   24  C           1     -18.855  -9.224  -3.050  0.00  0.00     0.010 A 
BRANCH  22  25
HETATM   25  O           1     -15.463 -10.453  -3.627  0.00  0.00    -0.247 OA
BRANCH  25  26
HETATM   26  P           1     -15.270 -11.995  -3.189  0.00  0.00     0.411 P 
HETATM   27  O           1     -16.268 -12.835  -3.887  0.00  0.00    -0.624 OA
HETATM   28  O           1     -15.459 -12.118  -1.726  0.00  0.00    -0.624 OA
BRANCH  26  29
HETATM   29  O           1     -13.783 -12.484  -3.584  0.00  0.00    -0.300 OA
HETATM   30  H           1     -13.893 -13.361  -3.911  0.00  0.00     0.223 HD
ENDBRANCH  26  29
ENDBRANCH  25  26
ENDBRANCH  22  25
ENDBRANCH  18  19
ENDBRANCH   1  18
TORSDOF 11
ENDMDL
MODEL 8
REMARK VINA RESULT:      -6.5     16.070     17.803
REMARK  11 active torsions:
REMARK  status: ('A' for Active; 'I' for Inactive)
REMARK    1  A    between atoms: N_2  and  C_12 
REMARK       I    between atoms: N_2  and  C_3 
REMARK    2  A    between atoms: C_3  and  C_4 
REMARK    3  A    between atoms: C_4  and  C_9 
REMARK    4  A    between atoms: C_4  and  N_21 
REMARK    5  A    between atoms: O_7  and  P_23 
REMARK    6  A    between atoms: C_9  and  C_19 
REMARK    7  A    between atoms: C_12  and  C_26 
REMARK    8  A    between atoms: C_12  and  C_13 
REMARK    9  A    between atoms: C_13  and  C_14 
REMARK   10  A    between atoms: P_23  and  O_24 
REMARK   11  A    between atoms: O_24  and  C_25 
ROOT
HETATM    1  C           1     -21.043  -7.818  -2.381  0.00  0.00     0.189 C 
ENDROOT
BRANCH   1   2
HETATM    2  N           1     -21.966  -8.323  -1.383  0.00  0.00    -0.344 N 
HETATM    3  C           1     -21.505  -9.107  -0.358  0.00  0.00     0.249 C 
HETATM    4  O           1     -21.141  -8.597   0.675  0.00  0.00    -0.271 OA
HETATM    5  H           1     -22.951  -8.097  -1.443  0.00  0.00     0.163 HD
BRANCH   3   6
HETATM    6  C           1     -21.451 -10.606  -0.520  0.00  0.00     0.278 C 
BRANCH   6   7
HETATM    7  C           1     -22.555 -11.247   0.311  0.00  0.00     0.021 C 
HETATM    8  C           1     -23.846 -11.277  -0.497  0.00  0.00     0.012 C 
BRANCH   7   9
HETATM    9  C           1     -22.152 -12.669   0.677  0.00  0.00     0.002 C 
HETATM   10  C           1     -23.290 -13.340   1.436  0.00  0.00     0.005 C 
ENDBRANCH   7   9
ENDBRANCH   6   7
BRANCH   6  11
HETATM   11  N           1     -20.118 -11.111  -0.054  0.00  0.00    -0.066 N 
HETATM   12  H           1     -19.809 -11.897  -0.670  0.00  0.00     0.275 HD
HETATM   13  H           1     -19.417 -10.337  -0.098  0.00  0.00     0.275 HD
HETATM   14  H           1     -20.199 -11.451   0.931  0.00  0.00     0.275 HD
ENDBRANCH   6  11
ENDBRANCH   3   6
ENDBRANCH   1   2
BRANCH   1  15
HETATM   15  C           1     -21.506  -6.461  -2.850  0.00  0.00     0.197 C 
HETATM   16  O           1     -22.297  -5.793  -2.147  0.00  0.00    -0.646 OA
HETATM   17  O           1     -21.100  -6.004  -3.940  0.00  0.00    -0.646 OA
ENDBRANCH   1  15
BRANCH   1  18
HETATM   18  C           1     -21.000  -8.777  -3.563  0.00  0.00     0.074 C 
BRANCH  18  19
HETATM   19  C           1     -19.578  -9.132  -3.866  0.00  0.00    -0.056 A 
HETATM   20  C           1     -19.164  -9.290  -5.190  0.00  0.00     0.010 A 
HETATM   21  C           1     -17.839  -9.621  -5.471  0.00  0.00     0.038 A 
HETATM   22  C           1     -16.927  -9.793  -4.429  0.00  0.00     0.081 A 
HETATM   23  C           1     -17.340  -9.635  -3.107  0.00  0.00     0.038 A 
HETATM   24  C           1     -18.666  -9.304  -2.825  0.00  0.00     0.010 A 
BRANCH  22  25
HETATM   25  O           1     -15.639 -10.114  -4.703  0.00  0.00    -0.247 OA
BRANCH  25  26
HETATM   26  P           1     -15.323 -11.617  -5.204  0.00  0.00     0.411 P 
HETATM   27  O           1     -15.351 -11.661  -6.683  0.00  0.00    -0.624 OA
HETATM   28  O           1     -16.344 -12.542  -4.663  0.00  0.00    -0.624 OA
BRANCH  26  29
HETATM   29  O           1     -13.861 -12.062  -4.680  0.00  0.00    -0.300 OA
HETATM   30  H           1     -13.970 -12.946  -4.375  0.00  0.00     0.223 HD
ENDBRANCH  26  29
ENDBRANCH  25  26
ENDBRANCH  22  25
ENDBRANCH  18  19
ENDBRANCH   1  18
TORSDOF 11
ENDMDL
MODEL 9
REMARK VINA RESULT:      -6.4     14.839     17.156
REMARK  11 active torsions:
REMARK  status: ('A' for Active; 'I' for Inactive)
REMARK    1  A    between atoms: N_2  and  C_12 
REMARK       I    between atoms: N_2  and  C_3 
REMARK    2  A    between atoms: C_3  and  C_4 
REMARK    3  A    between atoms: C_4  and  C_9 
REMARK    4  A    between atoms: C_4  and  N_21 
REMARK    5  A    between atoms: O_7  and  P_23 
REMARK    6  A    between atoms: C_9  and  C_19 
REMARK    7  A    between atoms: C_12  and  C_26 
REMARK    8  A    between atoms: C_12  and  C_13 
REMARK    9  A    between atoms: C_13  and  C_14 
REMARK   10  A    between atoms: P_23  and  O_24 
REMARK   11  A    between atoms: O_24  and  C_25 
ROOT
HETATM    1  C           1     -19.187 -10.233  -2.962  0.00  0.00     0.189 C 
ENDROOT
BRANCH   1   2
HETATM    2  N           1     -19.862 -11.487  -2.688  0.00  0.00    -0.344 N 
HETATM    3  C           1     -21.163 -11.484  -2.260  0.00  0.00     0.249 C 
HETATM    4  O           1     -22.063 -11.524  -3.064  0.00  0.00    -0.271 OA
HETATM    5  H           1     -19.372 -12.363  -2.813  0.00  0.00     0.163 HD
BRANCH   3   6
HETATM    6  C           1     -21.472 -11.431  -0.784  0.00  0.00     0.278 C 
BRANCH   6   7
HETATM    7  C           1     -22.244 -10.157  -0.471  0.00  0.00     0.021 C 
HETATM    8  C           1     -23.694 -10.506  -0.159  0.00  0.00     0.012 C 
BRANCH   7   9
HETATM    9  C           1     -21.618  -9.467   0.733  0.00  0.00     0.002 C 
HETATM   10  C           1     -22.121  -8.032   0.815  0.00  0.00     0.005 C 
ENDBRANCH   7   9
ENDBRANCH   6   7
BRANCH   6  11
HETATM   11  N           1     -20.190 -11.442  -0.005  0.00  0.00    -0.066 N 
HETATM   12  H           1     -19.381 -11.489  -0.665  0.00  0.00     0.275 HD
HETATM   13  H           1     -20.123 -10.571   0.568  0.00  0.00     0.275 HD
HETATM   14  H           1     -20.173 -12.276   0.626  0.00  0.00     0.275 HD
ENDBRANCH   6  11
ENDBRANCH   3   6
ENDBRANCH   1   2
BRANCH   1  15
HETATM   15  C           1     -17.749 -10.329  -2.513  0.00  0.00     0.197 C 
HETATM   16  O           1     -16.883  -9.589  -3.029  0.00  0.00    -0.646 OA
HETATM   17  O           1     -17.425 -11.148  -1.627  0.00  0.00    -0.646 OA
ENDBRANCH   1  15
BRANCH   1  18
HETATM   18  C           1     -19.881  -9.107  -2.205  0.00  0.00     0.074 C 
BRANCH  18  19
HETATM   19  C           1     -20.513  -8.165  -3.182  0.00  0.00    -0.056 A 
HETATM   20  C           1     -21.165  -7.019  -2.725  0.00  0.00     0.010 A 
HETATM   21  C           1     -21.755  -6.143  -3.636  0.00  0.00     0.038 A 
HETATM   22  C           1     -21.691  -6.411  -5.003  0.00  0.00     0.081 A 
HETATM   23  C           1     -21.040  -7.557  -5.459  0.00  0.00     0.038 A 
HETATM   24  C           1     -20.450  -8.434  -4.549  0.00  0.00     0.010 A 
BRANCH  22  25
HETATM   25  O           1     -22.264  -5.559  -5.888  0.00  0.00    -0.247 OA
BRANCH  25  26
HETATM   26  P           1     -21.293  -4.720  -6.868  0.00  0.00     0.411 P 
HETATM   27  O           1     -21.025  -5.509  -8.091  0.00  0.00    -0.624 OA
HETATM   28  O           1     -20.017  -4.436  -6.174  0.00  0.00    -0.624 OA
BRANCH  26  29
HETATM   29  O           1     -22.009  -3.329  -7.271  0.00  0.00    -0.300 OA
HETATM   30  H           1     -22.929  -3.483  -7.149  0.00  0.00     0.223 HD
ENDBRANCH  26  29
ENDBRANCH  25  26
ENDBRANCH  22  25
ENDBRANCH  18  19
ENDBRANCH   1  18
TORSDOF 11
ENDMDL
