MODEL 1
REMARK VINA RESULT:      -5.2      0.000      0.000
REMARK  5 active torsions:
REMARK  status: ('A' for Active; 'I' for Inactive)
REMARK    1  A    between atoms: C_2  and  C_18 
REMARK    2  A    between atoms: S_3  and  C_19 
REMARK       I    between atoms: C_9  and  N_11 
REMARK    3  A    between atoms: C_9  and  C_10 
REMARK    4  A    between atoms: N_11  and  C_18 
REMARK    5  A    between atoms: C_18  and  C_19 
ROOT
HETATM    1  H           1     -13.101   2.818 -23.409  0.00  0.00     0.274 HD
HETATM    2  H           1     -13.655   4.097 -22.424  0.00  0.00     0.274 HD
HETATM    3  C           1     -11.758   2.753 -21.094  0.00  0.00     0.027 C 
HETATM    4  C           1     -13.199   2.345 -21.371  0.00  0.00     0.229 C 
HETATM    5  C           1     -13.648   5.593 -20.096  0.00  0.00     0.274 C 
HETATM    6  H           1     -13.899   4.706 -21.976  0.00  0.00     0.275 HD
HETATM    7  N           1     -13.698   3.066 -22.588  0.00  0.00    -0.079 N 
HETATM    8  C           1     -12.562   4.619 -19.659  0.00  0.00     0.042 C 
HETATM    9  C           1     -11.693   4.256 -20.855  0.00  0.00     0.004 C 
HETATM   10  H           1     -15.240   5.623 -21.455  0.00  0.00     0.275 HD
HETATM   11  N           1     -14.496   4.954 -21.155  0.00  0.00    -0.067 N 
HETATM   12  H           1     -14.938   4.088 -20.772  0.00  0.00     0.275 HD
HETATM   13  H           1     -14.687   2.786 -22.779  0.00  0.00     0.274 HD
ENDROOT
BRANCH   5  14
HETATM   14  C           1     -13.010   6.843 -20.651  0.00  0.00     0.249 C 
HETATM   15  N           1     -12.285   7.664 -19.829  0.00  0.00    -0.344 N 
HETATM   16  H           1     -12.176   7.433 -18.850  0.00  0.00     0.163 HD
HETATM   17  O           1     -13.138   7.118 -21.820  0.00  0.00    -0.271 OA
BRANCH  15  18
HETATM   18  C           1     -11.672   8.865 -20.363  0.00  0.00     0.194 C 
BRANCH  18  19
HETATM   19  C           1     -10.328   9.076 -19.711  0.00  0.00     0.197 C 
HETATM   20  O           1     -10.113   8.626 -18.564  0.00  0.00    -0.646 OA
HETATM   21  O           1      -9.430   9.701 -20.316  0.00  0.00    -0.646 OA
ENDBRANCH  18  19
BRANCH  18  22
HETATM   22  C           1     -12.569  10.063 -20.077  0.00  0.00     0.106 C 
BRANCH  22  23
HETATM   23  S           1     -12.887  10.965 -21.619  0.00  0.00    -0.180 SA
HETATM   24  H           1     -12.984   9.875 -22.402  0.00  0.00     0.101 HD
ENDBRANCH  22  23
ENDBRANCH  18  22
ENDBRANCH  15  18
ENDBRANCH   5  14
TORSDOF 5
ENDMDL
MODEL 2
REMARK VINA RESULT:      -5.0      2.098      2.471
REMARK  5 active torsions:
REMARK  status: ('A' for Active; 'I' for Inactive)
REMARK    1  A    between atoms: C_2  and  C_18 
REMARK    2  A    between atoms: S_3  and  C_19 
REMARK       I    between atoms: C_9  and  N_11 
REMARK    3  A    between atoms: C_9  and  C_10 
REMARK    4  A    between atoms: N_11  and  C_18 
REMARK    5  A    between atoms: C_18  and  C_19 
ROOT
HETATM    1  H           1     -14.713   4.751 -21.605  0.00  0.00     0.274 HD
HETATM    2  H           1     -13.333   4.844 -20.605  0.00  0.00     0.274 HD
HETATM    3  C           1     -12.646   3.645 -22.899  0.00  0.00     0.027 C 
HETATM    4  C           1     -13.451   3.084 -21.734  0.00  0.00     0.229 C 
HETATM    5  C           1     -10.657   4.407 -20.055  0.00  0.00     0.274 C 
HETATM    6  H           1     -12.688   4.909 -20.147  0.00  0.00     0.275 HD
HETATM    7  N           1     -14.081   4.212 -20.972  0.00  0.00    -0.079 N 
HETATM    8  C           1     -10.634   3.784 -21.444  0.00  0.00     0.042 C 
HETATM    9  C           1     -11.558   4.567 -22.368  0.00  0.00     0.004 C 
HETATM   10  H           1     -12.070   4.798 -18.560  0.00  0.00     0.275 HD
HETATM   11  N           1     -12.055   4.370 -19.513  0.00  0.00    -0.067 N 
HETATM   12  H           1     -12.381   3.379 -19.455  0.00  0.00     0.275 HD
HETATM   13  H           1     -14.633   3.828 -20.172  0.00  0.00     0.274 HD
ENDROOT
BRANCH   5  14
HETATM   14  C           1     -10.188   5.839 -20.137  0.00  0.00     0.249 C 
HETATM   15  N           1     -11.101   6.859 -20.151  0.00  0.00    -0.344 N 
HETATM   16  H           1     -12.091   6.653 -20.105  0.00  0.00     0.163 HD
HETATM   17  O           1      -9.006   6.085 -20.190  0.00  0.00    -0.271 OA
BRANCH  15  18
HETATM   18  C           1     -10.649   8.234 -20.230  0.00  0.00     0.194 C 
BRANCH  18  19
HETATM   19  C           1     -10.927   8.930 -18.920  0.00  0.00     0.197 C 
HETATM   20  O           1     -12.080   9.337 -18.661  0.00  0.00    -0.646 OA
HETATM   21  O           1     -10.003   9.101 -18.095  0.00  0.00    -0.646 OA
ENDBRANCH  18  19
BRANCH  18  22
HETATM   22  C           1     -11.393   8.948 -21.352  0.00  0.00     0.106 C 
BRANCH  22  23
HETATM   23  S           1     -12.697   7.865 -22.000  0.00  0.00    -0.180 SA
HETATM   24  H           1     -12.740   7.044 -20.935  0.00  0.00     0.101 HD
ENDBRANCH  22  23
ENDBRANCH  18  22
ENDBRANCH  15  18
ENDBRANCH   5  14
TORSDOF 5
ENDMDL
MODEL 3
REMARK VINA RESULT:      -4.8     21.947     23.224
REMARK  5 active torsions:
REMARK  status: ('A' for Active; 'I' for Inactive)
REMARK    1  A    between atoms: C_2  and  C_18 
REMARK    2  A    between atoms: S_3  and  C_19 
REMARK       I    between atoms: C_9  and  N_11 
REMARK    3  A    between atoms: C_9  and  C_10 
REMARK    4  A    between atoms: N_11  and  C_18 
REMARK    5  A    between atoms: C_18  and  C_19 
ROOT
HETATM    1  H           1     -20.961  -2.432  -6.580  0.00  0.00     0.274 HD
HETATM    2  H           1     -21.689  -3.878  -6.040  0.00  0.00     0.274 HD
HETATM    3  C           1     -19.542  -4.501  -7.514  0.00  0.00     0.027 C 
HETATM    4  C           1     -20.900  -3.991  -7.977  0.00  0.00     0.229 C 
HETATM    5  C           1     -21.853  -6.635  -5.860  0.00  0.00     0.274 C 
HETATM    6  H           1     -22.017  -4.549  -5.770  0.00  0.00     0.275 HD
HETATM    7  N           1     -21.561  -3.241  -6.859  0.00  0.00    -0.079 N 
HETATM    8  C           1     -20.600  -6.609  -6.726  0.00  0.00     0.042 C 
HETATM    9  C           1     -19.727  -5.429  -6.321  0.00  0.00     0.004 C 
HETATM   10  H           1     -23.476  -5.377  -5.454  0.00  0.00     0.275 HD
HETATM   11  N           1     -22.618  -5.358  -6.048  0.00  0.00    -0.067 N 
HETATM   12  H           1     -22.890  -5.260  -7.053  0.00  0.00     0.275 HD
HETATM   13  H           1     -22.493  -2.891  -7.175  0.00  0.00     0.274 HD
ENDROOT
BRANCH   5  14
HETATM   14  C           1     -21.460  -6.775  -4.410  0.00  0.00     0.249 C 
HETATM   15  N           1     -21.019  -7.980  -3.933  0.00  0.00    -0.344 N 
HETATM   16  H           1     -20.957  -8.778  -4.553  0.00  0.00     0.163 HD
HETATM   17  O           1     -21.533  -5.823  -3.670  0.00  0.00    -0.271 OA
BRANCH  15  18
HETATM   18  C           1     -20.642  -8.114  -2.539  0.00  0.00     0.194 C 
BRANCH  18  19
HETATM   19  C           1     -19.514  -9.108  -2.417  0.00  0.00     0.197 C 
HETATM   20  O           1     -19.628 -10.093  -1.656  0.00  0.00    -0.646 OA
HETATM   21  O           1     -18.464  -8.946  -3.077  0.00  0.00    -0.646 OA
ENDBRANCH  18  19
BRANCH  18  22
HETATM   22  C           1     -21.840  -8.603  -1.734  0.00  0.00     0.106 C 
BRANCH  22  23
HETATM   23  S           1     -22.298  -7.349  -0.505  0.00  0.00    -0.180 SA
HETATM   24  H           1     -23.059  -6.612  -1.334  0.00  0.00     0.101 HD
ENDBRANCH  22  23
ENDBRANCH  18  22
ENDBRANCH  15  18
ENDBRANCH   5  14
TORSDOF 5
ENDMDL
MODEL 4
REMARK VINA RESULT:      -4.7      2.258      2.795
REMARK  5 active torsions:
REMARK  status: ('A' for Active; 'I' for Inactive)
REMARK    1  A    between atoms: C_2  and  C_18 
REMARK    2  A    between atoms: S_3  and  C_19 
REMARK       I    between atoms: C_9  and  N_11 
REMARK    3  A    between atoms: C_9  and  C_10 
REMARK    4  A    between atoms: N_11  and  C_18 
REMARK    5  A    between atoms: C_18  and  C_19 
ROOT
HETATM    1  H           1     -14.600   2.804 -20.720  0.00  0.00     0.274 HD
HETATM    2  H           1     -13.022   3.443 -20.588  0.00  0.00     0.274 HD
HETATM    3  C           1     -14.214   4.540 -22.721  0.00  0.00     0.027 C 
HETATM    4  C           1     -13.656   3.132 -22.560  0.00  0.00     0.229 C 
HETATM    5  C           1     -10.947   5.070 -21.426  0.00  0.00     0.274 C 
HETATM    6  H           1     -12.296   3.755 -20.512  0.00  0.00     0.275 HD
HETATM    7  N           1     -13.629   2.767 -21.106  0.00  0.00    -0.079 N 
HETATM    8  C           1     -11.917   5.474 -22.528  0.00  0.00     0.042 C 
HETATM    9  C           1     -13.332   5.526 -21.967  0.00  0.00     0.004 C 
HETATM   10  H           1     -10.660   3.442 -20.141  0.00  0.00     0.275 HD
HETATM   11  N           1     -11.325   3.718 -20.897  0.00  0.00    -0.067 N 
HETATM   12  H           1     -11.284   3.018 -21.672  0.00  0.00     0.275 HD
HETATM   13  H           1     -13.246   1.801 -20.994  0.00  0.00     0.274 HD
ENDROOT
BRANCH   5  14
HETATM   14  C           1     -11.007   6.081 -20.307  0.00  0.00     0.249 C 
HETATM   15  N           1     -10.870   7.415 -20.581  0.00  0.00    -0.344 N 
HETATM   16  H           1     -10.730   7.724 -21.534  0.00  0.00     0.163 HD
HETATM   17  O           1     -11.176   5.712 -19.169  0.00  0.00    -0.271 OA
BRANCH  15  18
HETATM   18  C           1     -10.928   8.385 -19.505  0.00  0.00     0.194 C 
BRANCH  18  19
HETATM   19  C           1     -12.309   8.991 -19.448  0.00  0.00     0.197 C 
HETATM   20  O           1     -12.762   9.413 -18.362  0.00  0.00    -0.646 OA
HETATM   21  O           1     -13.001   9.069 -20.486  0.00  0.00    -0.646 OA
ENDBRANCH  18  19
BRANCH  18  22
HETATM   22  C           1      -9.902   9.483 -19.756  0.00  0.00     0.106 C 
BRANCH  22  23
HETATM   23  S           1      -9.004   9.133 -21.295  0.00  0.00    -0.180 SA
HETATM   24  H           1      -9.436   7.865 -21.423  0.00  0.00     0.101 HD
ENDBRANCH  22  23
ENDBRANCH  18  22
ENDBRANCH  15  18
ENDBRANCH   5  14
TORSDOF 5
ENDMDL
MODEL 5
REMARK VINA RESULT:      -4.6     25.092     26.394
REMARK  5 active torsions:
REMARK  status: ('A' for Active; 'I' for Inactive)
REMARK    1  A    between atoms: C_2  and  C_18 
REMARK    2  A    between atoms: S_3  and  C_19 
REMARK       I    between atoms: C_9  and  N_11 
REMARK    3  A    between atoms: C_9  and  C_10 
REMARK    4  A    between atoms: N_11  and  C_18 
REMARK    5  A    between atoms: C_18  and  C_19 
ROOT
HETATM    1  H           1     -21.564  -8.757  -6.282  0.00  0.00     0.274 HD
HETATM    2  H           1     -21.035  -8.730  -4.659  0.00  0.00     0.274 HD
HETATM    3  C           1     -22.054  -6.328  -5.266  0.00  0.00     0.027 C 
HETATM    4  C           1     -20.722  -6.933  -5.690  0.00  0.00     0.229 C 
HETATM    5  C           1     -20.647  -7.489  -2.216  0.00  0.00     0.274 C 
HETATM    6  H           1     -20.808  -8.726  -3.899  0.00  0.00     0.275 HD
HETATM    7  N           1     -20.812  -8.429  -5.636  0.00  0.00    -0.079 N 
HETATM    8  C           1     -21.286  -6.289  -2.901  0.00  0.00     0.042 C 
HETATM    9  C           1     -22.382  -6.765  -3.845  0.00  0.00     0.004 C 
HETATM   10  H           1     -19.617  -9.223  -2.781  0.00  0.00     0.275 HD
HETATM   11  N           1     -20.055  -8.399  -3.252  0.00  0.00    -0.067 N 
HETATM   12  H           1     -19.329  -7.881  -3.796  0.00  0.00     0.275 HD
HETATM   13  H           1     -19.898  -8.846  -5.926  0.00  0.00     0.274 HD
ENDROOT
BRANCH   5  14
HETATM   14  C           1     -21.695  -8.238  -1.431  0.00  0.00     0.249 C 
HETATM   15  N           1     -21.786  -9.601  -1.534  0.00  0.00    -0.344 N 
HETATM   16  H           1     -21.149 -10.106  -2.137  0.00  0.00     0.163 HD
HETATM   17  O           1     -22.455  -7.635  -0.711  0.00  0.00    -0.271 OA
BRANCH  15  18
HETATM   18  C           1     -22.793 -10.319  -0.779  0.00  0.00     0.194 C 
BRANCH  18  19
HETATM   19  C           1     -22.126 -11.130   0.305  0.00  0.00     0.197 C 
HETATM   20  O           1     -21.110 -10.685   0.882  0.00  0.00    -0.646 OA
HETATM   21  O           1     -22.588 -12.247   0.624  0.00  0.00    -0.646 OA
ENDBRANCH  18  19
BRANCH  18  22
HETATM   22  C           1     -23.558 -11.250  -1.712  0.00  0.00     0.106 C 
BRANCH  22  23
HETATM   23  S           1     -22.664 -11.401  -3.284  0.00  0.00    -0.180 SA
HETATM   24  H           1     -22.791 -10.111  -3.642  0.00  0.00     0.101 HD
ENDBRANCH  22  23
ENDBRANCH  18  22
ENDBRANCH  15  18
ENDBRANCH   5  14
TORSDOF 5
ENDMDL
MODEL 6
REMARK VINA RESULT:      -4.5     25.635     26.799
REMARK  5 active torsions:
REMARK  status: ('A' for Active; 'I' for Inactive)
REMARK    1  A    between atoms: C_2  and  C_18 
REMARK    2  A    between atoms: S_3  and  C_19 
REMARK       I    between atoms: C_9  and  N_11 
REMARK    3  A    between atoms: C_9  and  C_10 
REMARK    4  A    between atoms: N_11  and  C_18 
REMARK    5  A    between atoms: C_18  and  C_19 
ROOT
HETATM    1  H           1     -21.560 -12.647   1.717  0.00  0.00     0.274 HD
HETATM    2  H           1     -21.100 -12.191   0.138  0.00  0.00     0.274 HD
HETATM    3  C           1     -23.760 -11.961   0.353  0.00  0.00     0.027 C 
HETATM    4  C           1     -22.919 -13.225   0.232  0.00  0.00     0.229 C 
HETATM    5  C           1     -21.645 -11.306  -2.427  0.00  0.00     0.274 C 
HETATM    6  H           1     -20.882 -11.959  -0.589  0.00  0.00     0.275 HD
HETATM    7  N           1     -21.527 -12.949   0.717  0.00  0.00    -0.079 N 
HETATM    8  C           1     -23.090 -11.294  -1.947  0.00  0.00     0.042 C 
HETATM    9  C           1     -23.139 -10.856  -0.490  0.00  0.00     0.004 C 
HETATM   10  H           1     -19.857 -12.269  -1.919  0.00  0.00     0.275 HD
HETATM   11  N           1     -20.848 -12.262  -1.589  0.00  0.00    -0.067 N 
HETATM   12  H           1     -21.252 -13.222  -1.677  0.00  0.00     0.275 HD
HETATM   13  H           1     -20.949 -13.816   0.635  0.00  0.00     0.274 HD
ENDROOT
BRANCH   5  14
HETATM   14  C           1     -21.061  -9.920  -2.299  0.00  0.00     0.249 C 
HETATM   15  N           1     -21.686  -8.856  -2.893  0.00  0.00    -0.344 N 
HETATM   16  H           1     -22.540  -8.998  -3.416  0.00  0.00     0.163 HD
HETATM   17  O           1     -20.042  -9.750  -1.673  0.00  0.00    -0.271 OA
BRANCH  15  18
HETATM   18  C           1     -21.124  -7.525  -2.770  0.00  0.00     0.194 C 
BRANCH  18  19
HETATM   19  C           1     -21.961  -6.712  -1.813  0.00  0.00     0.197 C 
HETATM   20  O           1     -22.293  -7.194  -0.709  0.00  0.00    -0.646 OA
HETATM   21  O           1     -22.325  -5.558  -2.126  0.00  0.00    -0.646 OA
ENDBRANCH  18  19
BRANCH  18  22
HETATM   22  C           1     -21.114  -6.851  -4.136  0.00  0.00     0.106 C 
BRANCH  22  23
HETATM   23  S           1     -20.075  -7.807  -5.277  0.00  0.00    -0.180 SA
HETATM   24  H           1     -20.606  -9.006  -4.977  0.00  0.00     0.101 HD
ENDBRANCH  22  23
ENDBRANCH  18  22
ENDBRANCH  15  18
ENDBRANCH   5  14
TORSDOF 5
ENDMDL
MODEL 7
REMARK VINA RESULT:      -4.4     25.548     26.682
REMARK  5 active torsions:
REMARK  status: ('A' for Active; 'I' for Inactive)
REMARK    1  A    between atoms: C_2  and  C_18 
REMARK    2  A    between atoms: S_3  and  C_19 
REMARK       I    between atoms: C_9  and  N_11 
REMARK    3  A    between atoms: C_9  and  C_10 
REMARK    4  A    between atoms: N_11  and  C_18 
REMARK    5  A    between atoms: C_18  and  C_19 
ROOT
HETATM    1  H           1     -22.002 -13.250  -2.908  0.00  0.00     0.274 HD
HETATM    2  H           1     -22.467 -11.784  -2.166  0.00  0.00     0.274 HD
HETATM    3  C           1     -20.803 -13.085  -0.519  0.00  0.00     0.027 C 
HETATM    4  C           1     -22.262 -13.388  -0.834  0.00  0.00     0.229 C 
HETATM    5  C           1     -22.426  -9.953  -0.092  0.00  0.00     0.274 C 
HETATM    6  H           1     -22.668 -11.093  -1.832  0.00  0.00     0.275 HD
HETATM    7  N           1     -22.612 -12.820  -2.177  0.00  0.00    -0.079 N 
HETATM    8  C           1     -21.478 -10.949   0.561  0.00  0.00     0.042 C 
HETATM    9  C           1     -20.589 -11.578  -0.503  0.00  0.00     0.004 C 
HETATM   10  H           1     -23.929  -9.978  -1.549  0.00  0.00     0.275 HD
HETATM   11  N           1     -23.279 -10.662  -1.102  0.00  0.00    -0.067 N 
HETATM   12  H           1     -23.833 -11.410  -0.626  0.00  0.00     0.275 HD
HETATM   13  H           1     -23.613 -13.027  -2.394  0.00  0.00     0.274 HD
ENDROOT
BRANCH   5  14
HETATM   14  C           1     -21.627  -8.873  -0.780  0.00  0.00     0.249 C 
HETATM   15  N           1     -21.730  -8.703  -2.134  0.00  0.00    -0.344 N 
HETATM   16  H           1     -22.342  -9.301  -2.675  0.00  0.00     0.163 HD
HETATM   17  O           1     -20.897  -8.159  -0.135  0.00  0.00    -0.271 OA
BRANCH  15  18
HETATM   18  C           1     -20.962  -7.665  -2.795  0.00  0.00     0.194 C 
BRANCH  18  19
HETATM   19  C           1     -21.855  -6.482  -3.078  0.00  0.00     0.197 C 
HETATM   20  O           1     -22.119  -6.167  -4.258  0.00  0.00    -0.646 OA
HETATM   21  O           1     -22.329  -5.817  -2.132  0.00  0.00    -0.646 OA
ENDBRANCH  18  19
BRANCH  18  22
HETATM   22  C           1     -20.402  -8.205  -4.105  0.00  0.00     0.106 C 
BRANCH  22  23
HETATM   23  S           1     -21.205  -9.784  -4.503  0.00  0.00    -0.180 SA
HETATM   24  H           1     -22.466  -9.342  -4.350  0.00  0.00     0.101 HD
ENDBRANCH  22  23
ENDBRANCH  18  22
ENDBRANCH  15  18
ENDBRANCH   5  14
TORSDOF 5
ENDMDL
MODEL 8
REMARK VINA RESULT:      -4.4     21.347     22.421
REMARK  5 active torsions:
REMARK  status: ('A' for Active; 'I' for Inactive)
REMARK    1  A    between atoms: C_2  and  C_18 
REMARK    2  A    between atoms: S_3  and  C_19 
REMARK       I    between atoms: C_9  and  N_11 
REMARK    3  A    between atoms: C_9  and  C_10 
REMARK    4  A    between atoms: N_11  and  C_18 
REMARK    5  A    between atoms: C_18  and  C_19 
ROOT
HETATM    1  H           1     -24.155  11.150  -0.718  0.00  0.00     0.274 HD
HETATM    2  H           1     -23.772   9.863  -1.773  0.00  0.00     0.274 HD
HETATM    3  C           1     -23.993   8.893   0.714  0.00  0.00     0.027 C 
HETATM    4  C           1     -22.867   9.722   0.110  0.00  0.00     0.229 C 
HETATM    5  C           1     -23.235   7.205  -2.320  0.00  0.00     0.274 C 
HETATM    6  H           1     -23.616   9.264  -2.268  0.00  0.00     0.275 HD
HETATM    7  N           1     -23.394  10.515  -1.048  0.00  0.00    -0.079 N 
HETATM    8  C           1     -23.438   7.017  -0.823  0.00  0.00     0.042 C 
HETATM    9  C           1     -24.546   7.944  -0.340  0.00  0.00     0.004 C 
HETATM   10  H           1     -22.715   8.756  -3.627  0.00  0.00     0.275 HD
HETATM   11  N           1     -22.854   8.629  -2.600  0.00  0.00    -0.067 N 
HETATM   12  H           1     -21.967   8.857  -2.096  0.00  0.00     0.275 HD
HETATM   13  H           1     -22.622  11.084  -1.463  0.00  0.00     0.274 HD
ENDROOT
BRANCH   5  14
HETATM   14  C           1     -24.515   6.876  -3.047  0.00  0.00     0.249 C 
HETATM   15  N           1     -25.184   7.855  -3.734  0.00  0.00    -0.344 N 
HETATM   16  H           1     -24.819   8.798  -3.754  0.00  0.00     0.163 HD
HETATM   17  O           1     -24.951   5.749  -3.025  0.00  0.00    -0.271 OA
BRANCH  15  18
HETATM   18  C           1     -26.415   7.538  -4.432  0.00  0.00     0.194 C 
BRANCH  18  19
HETATM   19  C           1     -26.161   7.531  -5.919  0.00  0.00     0.197 C 
HETATM   20  O           1     -26.082   8.610  -6.545  0.00  0.00    -0.646 OA
HETATM   21  O           1     -26.031   6.446  -6.526  0.00  0.00    -0.646 OA
ENDBRANCH  18  19
BRANCH  18  22
HETATM   22  C           1     -27.469   8.587  -4.101  0.00  0.00     0.106 C 
BRANCH  22  23
HETATM   23  S           1     -28.087   8.316  -2.416  0.00  0.00    -0.180 SA
HETATM   24  H           1     -26.965   8.714  -1.790  0.00  0.00     0.101 HD
ENDBRANCH  22  23
ENDBRANCH  18  22
ENDBRANCH  15  18
ENDBRANCH   5  14
TORSDOF 5
ENDMDL
MODEL 9
REMARK VINA RESULT:      -4.3     23.481     24.796
REMARK  5 active torsions:
REMARK  status: ('A' for Active; 'I' for Inactive)
REMARK    1  A    between atoms: C_2  and  C_18 
REMARK    2  A    between atoms: S_3  and  C_19 
REMARK       I    between atoms: C_9  and  N_11 
REMARK    3  A    between atoms: C_9  and  C_10 
REMARK    4  A    between atoms: N_11  and  C_18 
REMARK    5  A    between atoms: C_18  and  C_19 
ROOT
HETATM    1  H           1     -20.962 -10.660  -0.560  0.00  0.00     0.274 HD
HETATM    2  H           1     -21.168 -10.250  -2.204  0.00  0.00     0.274 HD
HETATM    3  C           1     -21.275  -8.007  -0.745  0.00  0.00     0.027 C 
HETATM    4  C           1     -22.323  -9.102  -0.887  0.00  0.00     0.229 C 
HETATM    5  C           1     -21.571  -8.442  -4.260  0.00  0.00     0.274 C 
HETATM    6  H           1     -21.243 -10.060  -2.971  0.00  0.00     0.275 HD
HETATM    7  N           1     -21.657 -10.384  -1.290  0.00  0.00    -0.079 N 
HETATM    8  C           1     -21.573  -7.409  -3.141  0.00  0.00     0.042 C 
HETATM    9  C           1     -20.561  -7.811  -2.076  0.00  0.00     0.004 C 
HETATM   10  H           1     -21.936 -10.492  -4.470  0.00  0.00     0.275 HD
HETATM   11  N           1     -21.938  -9.785  -3.702  0.00  0.00    -0.067 N 
HETATM   12  H           1     -22.891  -9.736  -3.275  0.00  0.00     0.275 HD
HETATM   13  H           1     -22.376 -11.136  -1.388  0.00  0.00     0.274 HD
ENDROOT
BRANCH   5  14
HETATM   14  C           1     -20.195  -8.514  -4.876  0.00  0.00     0.249 C 
HETATM   15  N           1     -19.408  -9.614  -4.668  0.00  0.00    -0.344 N 
HETATM   16  H           1     -19.749 -10.380  -4.101  0.00  0.00     0.163 HD
HETATM   17  O           1     -19.789  -7.600  -5.554  0.00  0.00    -0.271 OA
BRANCH  15  18
HETATM   18  C           1     -18.086  -9.683  -5.260  0.00  0.00     0.194 C 
BRANCH  18  19
HETATM   19  C           1     -18.006 -10.883  -6.172  0.00  0.00     0.197 C 
HETATM   20  O           1     -16.966 -11.575  -6.202  0.00  0.00    -0.646 OA
HETATM   21  O           1     -18.979 -11.183  -6.897  0.00  0.00    -0.646 OA
ENDBRANCH  18  19
BRANCH  18  22
HETATM   22  C           1     -17.043  -9.811  -4.158  0.00  0.00     0.106 C 
BRANCH  22  23
HETATM   23  S           1     -17.821 -10.480  -2.661  0.00  0.00    -0.180 SA
HETATM   24  H           1     -17.690  -9.363  -1.924  0.00  0.00     0.101 HD
ENDBRANCH  22  23
ENDBRANCH  18  22
ENDBRANCH  15  18
ENDBRANCH   5  14
TORSDOF 5
ENDMDL
