MODEL 1
REMARK VINA RESULT:      -5.3      0.000      0.000
REMARK  7 active torsions:
REMARK  status: ('A' for Active; 'I' for Inactive)
REMARK    1  A    between atoms: N_2  and  C_15 
REMARK       I    between atoms: N_2  and  C_3 
REMARK    2  A    between atoms: C_3  and  C_17 
REMARK    3  A    between atoms: N_7  and  C_17 
REMARK    4  A    between atoms: Se_12  and  C_13 
REMARK    5  A    between atoms: C_13  and  C_14 
REMARK    6  A    between atoms: C_14  and  C_15 
REMARK    7  A    between atoms: C_15  and  C_16 
ROOT
HETATM    1  N           1     -34.700  -0.464 -12.174  0.00  0.00    -0.345 N 
HETATM    2  C           1     -35.162  -0.292 -13.451  0.00  0.00     0.243 C 
HETATM    3  O           1     -35.891  -1.118 -13.947  0.00  0.00    -0.272 OA
HETATM    4  H           1     -34.091   0.229 -11.759  0.00  0.00     0.163 HD
ENDROOT
BRANCH   1   5
HETATM    5  C           1     -35.085  -1.639 -11.416  0.00  0.00     0.185 C 
BRANCH   5   6
HETATM    6  C           1     -33.896  -2.127 -10.600  0.00  0.00     0.036 C 
BRANCH   6   7
HETATM    7  C           1     -33.186  -3.243 -11.354  0.00  0.00     0.003 C 
BRANCH   7   8
HETATM    8 Se           1     -34.506  -4.456 -12.117  0.00  0.00     0.000 Se
HETATM    9  C           1     -33.998  -5.972 -11.003  0.00  0.00     0.000 C 
ENDBRANCH   7   8
ENDBRANCH   6   7
ENDBRANCH   5   6
BRANCH   5  10
HETATM   10  C           1     -36.223  -1.287 -10.489  0.00  0.00     0.196 C 
HETATM   11  O           1     -35.995  -0.671  -9.426  0.00  0.00    -0.646 OA
HETATM   12  O           1     -37.393  -1.613 -10.784  0.00  0.00    -0.646 OA
ENDBRANCH   5  10
ENDBRANCH   1   5
BRANCH   2  13
HETATM   13  C           1     -34.762   0.931 -14.240  0.00  0.00     0.332 C 
BRANCH  13  14
HETATM   14  N           1     -35.877   1.319 -15.165  0.00  0.00    -0.071 N 
HETATM   15  H           1     -36.674   1.701 -14.607  0.00  0.00     0.274 HD
HETATM   16  H           1     -36.195   0.477 -15.697  0.00  0.00     0.274 HD
HETATM   17  H           1     -35.539   2.046 -15.833  0.00  0.00     0.274 HD
ENDBRANCH  13  14
ENDBRANCH   2  13
TORSDOF 7
ENDMDL
MODEL 2
REMARK VINA RESULT:      -4.8      2.674      4.561
REMARK  7 active torsions:
REMARK  status: ('A' for Active; 'I' for Inactive)
REMARK    1  A    between atoms: N_2  and  C_15 
REMARK       I    between atoms: N_2  and  C_3 
REMARK    2  A    between atoms: C_3  and  C_17 
REMARK    3  A    between atoms: N_7  and  C_17 
REMARK    4  A    between atoms: Se_12  and  C_13 
REMARK    5  A    between atoms: C_13  and  C_14 
REMARK    6  A    between atoms: C_14  and  C_15 
REMARK    7  A    between atoms: C_15  and  C_16 
ROOT
HETATM    1  N           1     -35.073  -2.350 -11.671  0.00  0.00    -0.345 N 
HETATM    2  C           1     -33.893  -2.654 -11.048  0.00  0.00     0.243 C 
HETATM    3  O           1     -33.239  -1.779 -10.532  0.00  0.00    -0.272 OA
HETATM    4  H           1     -35.621  -3.083 -12.103  0.00  0.00     0.163 HD
ENDROOT
BRANCH   1   5
HETATM    5  C           1     -35.539  -0.977 -11.712  0.00  0.00     0.185 C 
BRANCH   5   6
HETATM    6  C           1     -36.089  -0.670 -13.099  0.00  0.00     0.036 C 
BRANCH   6   7
HETATM    7  C           1     -35.126   0.253 -13.834  0.00  0.00     0.003 C 
BRANCH   7   8
HETATM    8 Se           1     -35.946   0.860 -15.494  0.00  0.00     0.000 Se
HETATM    9  C           1     -37.681   0.053 -15.124  0.00  0.00     0.000 C 
ENDBRANCH   7   8
ENDBRANCH   6   7
ENDBRANCH   5   6
BRANCH   5  10
HETATM   10  C           1     -36.628  -0.786 -10.685  0.00  0.00     0.196 C 
HETATM   11  O           1     -36.340  -0.388  -9.535  0.00  0.00    -0.646 OA
HETATM   12  O           1     -37.818  -1.026 -10.983  0.00  0.00    -0.646 OA
ENDBRANCH   5  10
ENDBRANCH   1   5
BRANCH   2  13
HETATM   13  C           1     -33.408  -4.082 -11.005  0.00  0.00     0.332 C 
BRANCH  13  14
HETATM   14  N           1     -32.716  -4.416 -12.293  0.00  0.00    -0.071 N 
HETATM   15  H           1     -33.387  -4.308 -13.087  0.00  0.00     0.274 HD
HETATM   16  H           1     -32.372  -5.403 -12.257  0.00  0.00     0.274 HD
HETATM   17  H           1     -31.906  -3.771 -12.432  0.00  0.00     0.274 HD
ENDBRANCH  13  14
ENDBRANCH   2  13
TORSDOF 7
ENDMDL
MODEL 3
REMARK VINA RESULT:      -4.4     14.805     16.061
REMARK  7 active torsions:
REMARK  status: ('A' for Active; 'I' for Inactive)
REMARK    1  A    between atoms: N_2  and  C_15 
REMARK       I    between atoms: N_2  and  C_3 
REMARK    2  A    between atoms: C_3  and  C_17 
REMARK    3  A    between atoms: N_7  and  C_17 
REMARK    4  A    between atoms: Se_12  and  C_13 
REMARK    5  A    between atoms: C_13  and  C_14 
REMARK    6  A    between atoms: C_14  and  C_15 
REMARK    7  A    between atoms: C_15  and  C_16 
ROOT
HETATM    1  N           1     -22.076  -5.418  -6.415  0.00  0.00    -0.345 N 
HETATM    2  C           1     -21.567  -4.383  -7.152  0.00  0.00     0.243 C 
HETATM    3  O           1     -20.453  -3.973  -6.929  0.00  0.00    -0.272 OA
HETATM    4  H           1     -23.010  -5.761  -6.602  0.00  0.00     0.163 HD
ENDROOT
BRANCH   1   5
HETATM    5  C           1     -21.278  -6.023  -5.366  0.00  0.00     0.185 C 
BRANCH   5   6
HETATM    6  C           1     -22.177  -6.386  -4.192  0.00  0.00     0.036 C 
BRANCH   6   7
HETATM    7  C           1     -21.442  -6.113  -2.886  0.00  0.00     0.003 C 
BRANCH   7   8
HETATM    8 Se           1     -21.157  -7.791  -1.936  0.00  0.00     0.000 Se
HETATM    9  C           1     -22.394  -7.372  -0.490  0.00  0.00     0.000 C 
ENDBRANCH   7   8
ENDBRANCH   6   7
ENDBRANCH   5   6
BRANCH   5  10
HETATM   10  C           1     -20.614  -7.269  -5.897  0.00  0.00     0.196 C 
HETATM   11  O           1     -21.170  -8.380  -5.760  0.00  0.00    -0.646 OA
HETATM   12  O           1     -19.507  -7.191  -6.473  0.00  0.00    -0.646 OA
ENDBRANCH   5  10
ENDBRANCH   1   5
BRANCH   2  13
HETATM   13  C           1     -22.397  -3.753  -8.243  0.00  0.00     0.332 C 
BRANCH  13  14
HETATM   14  N           1     -23.848  -4.047  -8.002  0.00  0.00    -0.071 N 
HETATM   15  H           1     -24.063  -3.927  -6.987  0.00  0.00     0.274 HD
HETATM   16  H           1     -24.056  -5.030  -8.290  0.00  0.00     0.274 HD
HETATM   17  H           1     -24.435  -3.389  -8.562  0.00  0.00     0.274 HD
ENDBRANCH  13  14
ENDBRANCH   2  13
TORSDOF 7
ENDMDL
MODEL 4
REMARK VINA RESULT:      -4.4     14.505     16.190
REMARK  7 active torsions:
REMARK  status: ('A' for Active; 'I' for Inactive)
REMARK    1  A    between atoms: N_2  and  C_15 
REMARK       I    between atoms: N_2  and  C_3 
REMARK    2  A    between atoms: C_3  and  C_17 
REMARK    3  A    between atoms: N_7  and  C_17 
REMARK    4  A    between atoms: Se_12  and  C_13 
REMARK    5  A    between atoms: C_13  and  C_14 
REMARK    6  A    between atoms: C_14  and  C_15 
REMARK    7  A    between atoms: C_15  and  C_16 
ROOT
HETATM    1  N           1     -21.128  -5.631  -4.930  0.00  0.00    -0.345 N 
HETATM    2  C           1     -21.529  -6.766  -4.279  0.00  0.00     0.243 C 
HETATM    3  O           1     -21.952  -7.707  -4.909  0.00  0.00    -0.272 OA
HETATM    4  H           1     -20.773  -4.844  -4.403  0.00  0.00     0.163 HD
ENDROOT
BRANCH   1   5
HETATM    5  C           1     -21.210  -5.557  -6.376  0.00  0.00     0.185 C 
BRANCH   5   6
HETATM    6  C           1     -21.717  -4.181  -6.785  0.00  0.00     0.036 C 
BRANCH   6   7
HETATM    7  C           1     -23.015  -4.330  -7.568  0.00  0.00     0.003 C 
BRANCH   7   8
HETATM    8 Se           1     -22.664  -4.064  -9.466  0.00  0.00     0.000 Se
HETATM    9  C           1     -24.465  -3.442  -9.879  0.00  0.00     0.000 C 
ENDBRANCH   7   8
ENDBRANCH   6   7
ENDBRANCH   5   6
BRANCH   5  10
HETATM   10  C           1     -19.841  -5.786  -6.969  0.00  0.00     0.196 C 
HETATM   11  O           1     -19.353  -6.937  -6.991  0.00  0.00    -0.646 OA
HETATM   12  O           1     -19.194  -4.824  -7.437  0.00  0.00    -0.646 OA
ENDBRANCH   5  10
ENDBRANCH   1   5
BRANCH   2  13
HETATM   13  C           1     -21.444  -6.843  -2.775  0.00  0.00     0.332 C 
BRANCH  13  14
HETATM   14  N           1     -22.371  -5.833  -2.167  0.00  0.00    -0.071 N 
HETATM   15  H           1     -22.866  -5.314  -2.928  0.00  0.00     0.274 HD
HETATM   16  H           1     -21.820  -5.161  -1.587  0.00  0.00     0.274 HD
HETATM   17  H           1     -23.072  -6.319  -1.565  0.00  0.00     0.274 HD
ENDBRANCH  13  14
ENDBRANCH   2  13
TORSDOF 7
ENDMDL
MODEL 5
REMARK VINA RESULT:      -4.3     12.741     13.998
REMARK  7 active torsions:
REMARK  status: ('A' for Active; 'I' for Inactive)
REMARK    1  A    between atoms: N_2  and  C_15 
REMARK       I    between atoms: N_2  and  C_3 
REMARK    2  A    between atoms: C_3  and  C_17 
REMARK    3  A    between atoms: N_7  and  C_17 
REMARK    4  A    between atoms: Se_12  and  C_13 
REMARK    5  A    between atoms: C_13  and  C_14 
REMARK    6  A    between atoms: C_14  and  C_15 
REMARK    7  A    between atoms: C_15  and  C_16 
ROOT
HETATM    1  N           1     -22.556  -3.748  -8.175  0.00  0.00    -0.345 N 
HETATM    2  C           1     -23.565  -4.013  -9.061  0.00  0.00     0.243 C 
HETATM    3  O           1     -23.625  -5.089  -9.605  0.00  0.00    -0.272 OA
HETATM    4  H           1     -22.507  -2.846  -7.719  0.00  0.00     0.163 HD
ENDROOT
BRANCH   1   5
HETATM    5  C           1     -21.558  -4.760  -7.890  0.00  0.00     0.185 C 
BRANCH   5   6
HETATM    6  C           1     -20.205  -4.299  -8.416  0.00  0.00     0.036 C 
BRANCH   6   7
HETATM    7  C           1     -20.048  -4.738  -9.866  0.00  0.00     0.003 C 
BRANCH   7   8
HETATM    8 Se           1     -20.461  -3.244 -11.047  0.00  0.00     0.000 Se
HETATM    9  C           1     -21.719  -4.248 -12.146  0.00  0.00     0.000 C 
ENDBRANCH   7   8
ENDBRANCH   6   7
ENDBRANCH   5   6
BRANCH   5  10
HETATM   10  C           1     -21.472  -4.974  -6.398  0.00  0.00     0.196 C 
HETATM   11  O           1     -22.399  -5.557  -5.796  0.00  0.00    -0.646 OA
HETATM   12  O           1     -20.474  -4.567  -5.765  0.00  0.00    -0.646 OA
ENDBRANCH   5  10
ENDBRANCH   1   5
BRANCH   2  13
HETATM   13  C           1     -24.605  -2.959  -9.358  0.00  0.00     0.332 C 
BRANCH  13  14
HETATM   14  N           1     -25.923  -3.619  -9.634  0.00  0.00    -0.071 N 
HETATM   15  H           1     -26.307  -3.262 -10.538  0.00  0.00     0.274 HD
HETATM   16  H           1     -26.590  -3.399  -8.860  0.00  0.00     0.274 HD
HETATM   17  H           1     -25.790  -4.653  -9.697  0.00  0.00     0.274 HD
ENDBRANCH  13  14
ENDBRANCH   2  13
TORSDOF 7
ENDMDL
MODEL 6
REMARK VINA RESULT:      -4.3     13.465     14.585
REMARK  7 active torsions:
REMARK  status: ('A' for Active; 'I' for Inactive)
REMARK    1  A    between atoms: N_2  and  C_15 
REMARK       I    between atoms: N_2  and  C_3 
REMARK    2  A    between atoms: C_3  and  C_17 
REMARK    3  A    between atoms: N_7  and  C_17 
REMARK    4  A    between atoms: Se_12  and  C_13 
REMARK    5  A    between atoms: C_13  and  C_14 
REMARK    6  A    between atoms: C_14  and  C_15 
REMARK    7  A    between atoms: C_15  and  C_16 
ROOT
HETATM    1  N           1     -22.314  -4.551  -9.207  0.00  0.00    -0.345 N 
HETATM    2  C           1     -22.874  -4.101 -10.373  0.00  0.00     0.243 C 
HETATM    3  O           1     -22.517  -3.050 -10.848  0.00  0.00    -0.272 OA
HETATM    4  H           1     -22.613  -5.432  -8.809  0.00  0.00     0.163 HD
ENDROOT
BRANCH   1   5
HETATM    5  C           1     -21.293  -3.765  -8.543  0.00  0.00     0.185 C 
BRANCH   5   6
HETATM    6  C           1     -21.570  -3.734  -7.046  0.00  0.00     0.036 C 
BRANCH   6   7
HETATM    7  C           1     -22.050  -5.106  -6.590  0.00  0.00     0.003 C 
BRANCH   7   8
HETATM    8 Se           1     -20.895  -5.757  -5.162  0.00  0.00     0.000 Se
HETATM    9  C           1     -21.894  -7.407  -4.884  0.00  0.00     0.000 C 
ENDBRANCH   7   8
ENDBRANCH   6   7
ENDBRANCH   5   6
BRANCH   5  10
HETATM   10  C           1     -19.940  -4.386  -8.792  0.00  0.00     0.196 C 
HETATM   11  O           1     -19.731  -5.027  -9.845  0.00  0.00    -0.646 OA
HETATM   12  O           1     -19.030  -4.262  -7.944  0.00  0.00    -0.646 OA
ENDBRANCH   5  10
ENDBRANCH   1   5
BRANCH   2  13
HETATM   13  C           1     -23.937  -4.920 -11.064  0.00  0.00     0.332 C 
BRANCH  13  14
HETATM   14  N           1     -23.514  -5.204 -12.474  0.00  0.00    -0.071 N 
HETATM   15  H           1     -22.588  -4.755 -12.656  0.00  0.00     0.274 HD
HETATM   16  H           1     -24.226  -4.817 -13.135  0.00  0.00     0.274 HD
HETATM   17  H           1     -23.434  -6.236 -12.614  0.00  0.00     0.274 HD
ENDBRANCH  13  14
ENDBRANCH   2  13
TORSDOF 7
ENDMDL
MODEL 7
REMARK VINA RESULT:      -4.1     14.279     15.504
REMARK  7 active torsions:
REMARK  status: ('A' for Active; 'I' for Inactive)
REMARK    1  A    between atoms: N_2  and  C_15 
REMARK       I    between atoms: N_2  and  C_3 
REMARK    2  A    between atoms: C_3  and  C_17 
REMARK    3  A    between atoms: N_7  and  C_17 
REMARK    4  A    between atoms: Se_12  and  C_13 
REMARK    5  A    between atoms: C_13  and  C_14 
REMARK    6  A    between atoms: C_14  and  C_15 
REMARK    7  A    between atoms: C_15  and  C_16 
ROOT
HETATM    1  N           1     -22.150  -5.243  -7.318  0.00  0.00    -0.345 N 
HETATM    2  C           1     -22.261  -4.050  -7.978  0.00  0.00     0.243 C 
HETATM    3  O           1     -21.668  -3.078  -7.575  0.00  0.00    -0.272 OA
HETATM    4  H           1     -22.646  -6.057  -7.656  0.00  0.00     0.163 HD
ENDROOT
BRANCH   1   5
HETATM    5  C           1     -21.319  -5.341  -6.133  0.00  0.00     0.185 C 
BRANCH   5   6
HETATM    6  C           1     -21.891  -6.400  -5.199  0.00  0.00     0.036 C 
BRANCH   6   7
HETATM    7  C           1     -21.399  -6.144  -3.780  0.00  0.00     0.003 C 
BRANCH   7   8
HETATM    8 Se           1     -21.148  -7.845  -2.863  0.00  0.00     0.000 Se
HETATM    9  C           1     -21.434  -8.933  -4.454  0.00  0.00     0.000 C 
ENDBRANCH   7   8
ENDBRANCH   6   7
ENDBRANCH   5   6
BRANCH   5  10
HETATM   10  C           1     -19.917  -5.728  -6.534  0.00  0.00     0.196 C 
HETATM   11  O           1     -19.038  -4.848  -6.661  0.00  0.00    -0.646 OA
HETATM   12  O           1     -19.634  -6.928  -6.740  0.00  0.00    -0.646 OA
ENDBRANCH   5  10
ENDBRANCH   1   5
BRANCH   2  13
HETATM   13  C           1     -23.126  -3.948  -9.211  0.00  0.00     0.332 C 
BRANCH  13  14
HETATM   14  N           1     -24.496  -3.476  -8.826  0.00  0.00    -0.071 N 
HETATM   15  H           1     -25.084  -3.377  -9.684  0.00  0.00     0.274 HD
HETATM   16  H           1     -24.422  -2.551  -8.344  0.00  0.00     0.274 HD
HETATM   17  H           1     -24.936  -4.170  -8.181  0.00  0.00     0.274 HD
ENDBRANCH  13  14
ENDBRANCH   2  13
TORSDOF 7
ENDMDL
MODEL 8
REMARK VINA RESULT:      -4.0     17.396     18.838
REMARK  7 active torsions:
REMARK  status: ('A' for Active; 'I' for Inactive)
REMARK    1  A    between atoms: N_2  and  C_15 
REMARK       I    between atoms: N_2  and  C_3 
REMARK    2  A    between atoms: C_3  and  C_17 
REMARK    3  A    between atoms: N_7  and  C_17 
REMARK    4  A    between atoms: Se_12  and  C_13 
REMARK    5  A    between atoms: C_13  and  C_14 
REMARK    6  A    between atoms: C_14  and  C_15 
REMARK    7  A    between atoms: C_15  and  C_16 
ROOT
HETATM    1  N           1     -21.654  -8.386  -1.600  0.00  0.00    -0.345 N 
HETATM    2  C           1     -21.956  -7.059  -1.746  0.00  0.00     0.243 C 
HETATM    3  O           1     -22.726  -6.528  -0.982  0.00  0.00    -0.272 OA
HETATM    4  H           1     -21.008  -8.832  -2.239  0.00  0.00     0.163 HD
ENDROOT
BRANCH   1   5
HETATM    5  C           1     -22.259  -9.154  -0.529  0.00  0.00     0.185 C 
BRANCH   5   6
HETATM    6  C           1     -22.788 -10.470  -1.085  0.00  0.00     0.036 C 
BRANCH   6   7
HETATM    7  C           1     -23.887 -11.000  -0.174  0.00  0.00     0.003 C 
BRANCH   7   8
HETATM    8 Se           1     -23.377 -12.753   0.509  0.00  0.00     0.000 Se
HETATM    9  C           1     -24.098 -13.736  -1.011  0.00  0.00     0.000 C 
ENDBRANCH   7   8
ENDBRANCH   6   7
ENDBRANCH   5   6
BRANCH   5  10
HETATM   10  C           1     -21.224  -9.437   0.532  0.00  0.00     0.196 C 
HETATM   11  O           1     -21.078  -8.646   1.490  0.00  0.00    -0.646 OA
HETATM   12  O           1     -20.512 -10.462   0.454  0.00  0.00    -0.646 OA
ENDBRANCH   5  10
ENDBRANCH   1   5
BRANCH   2  13
HETATM   13  C           1     -21.326  -6.260  -2.860  0.00  0.00     0.332 C 
BRANCH  13  14
HETATM   14  N           1     -22.254  -6.224  -4.038  0.00  0.00    -0.071 N 
HETATM   15  H           1     -23.193  -6.581  -3.751  0.00  0.00     0.274 HD
HETATM   16  H           1     -21.870  -6.825  -4.802  0.00  0.00     0.274 HD
HETATM   17  H           1     -22.346  -5.241  -4.380  0.00  0.00     0.274 HD
ENDBRANCH  13  14
ENDBRANCH   2  13
TORSDOF 7
ENDMDL
MODEL 9
REMARK VINA RESULT:      -4.0     15.669     16.998
REMARK  7 active torsions:
REMARK  status: ('A' for Active; 'I' for Inactive)
REMARK    1  A    between atoms: N_2  and  C_15 
REMARK       I    between atoms: N_2  and  C_3 
REMARK    2  A    between atoms: C_3  and  C_17 
REMARK    3  A    between atoms: N_7  and  C_17 
REMARK    4  A    between atoms: Se_12  and  C_13 
REMARK    5  A    between atoms: C_13  and  C_14 
REMARK    6  A    between atoms: C_14  and  C_15 
REMARK    7  A    between atoms: C_15  and  C_16 
ROOT
HETATM    1  N           1     -20.884  -6.260  -4.977  0.00  0.00    -0.345 N 
HETATM    2  C           1     -21.533  -5.403  -5.824  0.00  0.00     0.243 C 
HETATM    3  O           1     -22.736  -5.447  -5.923  0.00  0.00    -0.272 OA
HETATM    4  H           1     -19.877  -6.223  -4.893  0.00  0.00     0.163 HD
ENDROOT
BRANCH   1   5
HETATM    5  C           1     -21.641  -7.222  -4.199  0.00  0.00     0.185 C 
BRANCH   5   6
HETATM    6  C           1     -21.005  -8.599  -4.338  0.00  0.00     0.036 C 
BRANCH   6   7
HETATM    7  C           1     -19.665  -8.469  -5.051  0.00  0.00     0.003 C 
BRANCH   7   8
HETATM    8 Se           1     -18.327  -9.539  -4.121  0.00  0.00     0.000 Se
HETATM    9  C           1     -17.325  -9.984  -5.732  0.00  0.00     0.000 C 
ENDBRANCH   7   8
ENDBRANCH   6   7
ENDBRANCH   5   6
BRANCH   5  10
HETATM   10  C           1     -21.636  -6.810  -2.748  0.00  0.00     0.196 C 
HETATM   11  O           1     -22.419  -5.921  -2.348  0.00  0.00    -0.646 OA
HETATM   12  O           1     -20.849  -7.356  -1.945  0.00  0.00    -0.646 OA
ENDBRANCH   5  10
ENDBRANCH   1   5
BRANCH   2  13
HETATM   13  C           1     -20.745  -4.401  -6.633  0.00  0.00     0.332 C 
BRANCH  13  14
HETATM   14  N           1     -21.685  -3.423  -7.272  0.00  0.00    -0.071 N 
HETATM   15  H           1     -21.785  -2.584  -6.658  0.00  0.00     0.274 HD
HETATM   16  H           1     -22.619  -3.874  -7.404  0.00  0.00     0.274 HD
HETATM   17  H           1     -21.306  -3.131  -8.201  0.00  0.00     0.274 HD
ENDBRANCH  13  14
ENDBRANCH   2  13
TORSDOF 7
ENDMDL
