MODEL 1
REMARK VINA RESULT:      -8.7      0.000      0.000
REMARK  8 active torsions:
REMARK  status: ('A' for Active; 'I' for Inactive)
REMARK    1  A    between atoms: N_1  and  C_2 
REMARK    2  A    between atoms: C_2  and  C_15 
REMARK    3  A    between atoms: C_2  and  C_22 
REMARK    4  A    between atoms: C_4  and  C_10 
REMARK    5  A    between atoms: C_6  and  C_22 
REMARK    6  A    between atoms: C_10  and  C_13 
REMARK    7  A    between atoms: C_10  and  N_16 
REMARK    8  A    between atoms: C_13  and  O_14 
REMARK       I    between atoms: C_15  and  N_16 
ROOT
HETATM    1  C           1     -21.224  -5.873  -7.045  0.00  0.00     0.278 C 
ENDROOT
BRANCH   1   2
HETATM    2  N           1     -19.775  -6.101  -7.361  0.00  0.00    -0.066 N 
HETATM    3  H           1     -19.674  -6.980  -7.916  0.00  0.00     0.275 HD
HETATM    4  H           1     -19.409  -5.294  -7.915  0.00  0.00     0.275 HD
HETATM    5  H           1     -19.234  -6.187  -6.471  0.00  0.00     0.275 HD
ENDBRANCH   1   2
BRANCH   1   6
HETATM    6  C           1     -21.731  -4.692  -7.835  0.00  0.00     0.249 C 
HETATM    7  O           1     -21.783  -3.599  -7.323  0.00  0.00    -0.271 OA
HETATM    8  N           1     -22.132  -4.859  -9.134  0.00  0.00    -0.343 N 
HETATM    9  H           1     -22.088  -5.773  -9.564  0.00  0.00     0.163 HD
BRANCH   8  10
HETATM   10  C           1     -22.619  -3.723  -9.893  0.00  0.00     0.214 C 
BRANCH  10  11
HETATM   11  C           1     -24.091  -3.901 -10.172  0.00  0.00     0.199 C 
HETATM   12  O           1     -24.652  -4.985  -9.906  0.00  0.00    -0.646 OA
HETATM   13  O           1     -24.750  -2.962 -10.671  0.00  0.00    -0.646 OA
ENDBRANCH  10  11
BRANCH  10  14
HETATM   14  C           1     -21.860  -3.630 -11.211  0.00  0.00     0.147 C 
HETATM   15  C           1     -20.443  -4.151 -11.019  0.00  0.00     0.042 C 
BRANCH  14  16
HETATM   16  O           1     -22.515  -4.402 -12.181  0.00  0.00    -0.393 OA
HETATM   17  H           1     -21.872  -4.624 -12.834  0.00  0.00     0.210 HD
ENDBRANCH  14  16
ENDBRANCH  10  14
ENDBRANCH   8  10
ENDBRANCH   1   6
BRANCH   1  18
HETATM   18  C           1     -21.380  -5.593  -5.556  0.00  0.00     0.083 C 
BRANCH  18  19
HETATM   19  C           1     -21.385  -6.886  -4.802  0.00  0.00    -0.028 A 
HETATM   20  C           1     -21.125  -8.132  -5.326  0.00  0.00     0.096 A 
HETATM   21  N           1     -21.231  -9.044  -4.310  0.00  0.00    -0.365 N 
HETATM   22  C           1     -21.557  -8.409  -3.132  0.00  0.00     0.042 A 
HETATM   23  H           1     -21.085 -10.079  -4.414  0.00  0.00     0.165 HD
HETATM   24  C           1     -21.766  -8.933  -1.850  0.00  0.00     0.030 A 
HETATM   25  C           1     -21.660  -7.047  -3.416  0.00  0.00    -0.002 A 
HETATM   26  C           1     -22.089  -8.033  -0.830  0.00  0.00     0.002 A 
HETATM   27  C           1     -22.199  -6.667  -1.084  0.00  0.00     0.001 A 
HETATM   28  C           1     -21.987  -6.161  -2.372  0.00  0.00     0.014 A 
ENDBRANCH  18  19
ENDBRANCH   1  18
TORSDOF 8
ENDMDL
MODEL 2
REMARK VINA RESULT:      -7.4      3.530      7.712
REMARK  8 active torsions:
REMARK  status: ('A' for Active; 'I' for Inactive)
REMARK    1  A    between atoms: N_1  and  C_2 
REMARK    2  A    between atoms: C_2  and  C_15 
REMARK    3  A    between atoms: C_2  and  C_22 
REMARK    4  A    between atoms: C_4  and  C_10 
REMARK    5  A    between atoms: C_6  and  C_22 
REMARK    6  A    between atoms: C_10  and  C_13 
REMARK    7  A    between atoms: C_10  and  N_16 
REMARK    8  A    between atoms: C_13  and  O_14 
REMARK       I    between atoms: C_15  and  N_16 
ROOT
HETATM    1  C           1     -21.667  -6.321  -5.433  0.00  0.00     0.278 C 
ENDROOT
BRANCH   1   2
HETATM    2  N           1     -21.881  -5.941  -3.997  0.00  0.00    -0.066 N 
HETATM    3  H           1     -21.617  -4.940  -3.859  0.00  0.00     0.275 HD
HETATM    4  H           1     -22.888  -6.074  -3.749  0.00  0.00     0.275 HD
HETATM    5  H           1     -21.289  -6.546  -3.385  0.00  0.00     0.275 HD
ENDBRANCH   1   2
BRANCH   1   6
HETATM    6  C           1     -20.773  -7.534  -5.503  0.00  0.00     0.249 C 
HETATM    7  O           1     -19.773  -7.509  -6.181  0.00  0.00    -0.271 OA
HETATM    8  N           1     -21.094  -8.663  -4.800  0.00  0.00    -0.343 N 
HETATM    9  H           1     -21.931  -8.685  -4.232  0.00  0.00     0.163 HD
BRANCH   8  10
HETATM   10  C           1     -20.234  -9.829  -4.868  0.00  0.00     0.214 C 
BRANCH  10  11
HETATM   11  C           1     -20.991 -10.975  -5.494  0.00  0.00     0.199 C 
HETATM   12  O           1     -21.786 -11.650  -4.806  0.00  0.00    -0.646 OA
HETATM   13  O           1     -20.822 -11.248  -6.702  0.00  0.00    -0.646 OA
ENDBRANCH  10  11
BRANCH  10  14
HETATM   14  C           1     -19.795 -10.220  -3.462  0.00  0.00     0.147 C 
HETATM   15  C           1     -18.576  -9.398  -3.065  0.00  0.00     0.042 C 
BRANCH  14  16
HETATM   16  O           1     -20.839  -9.971  -2.561  0.00  0.00    -0.393 OA
HETATM   17  H           1     -20.481 -10.059  -1.694  0.00  0.00     0.210 HD
ENDBRANCH  14  16
ENDBRANCH  10  14
ENDBRANCH   8  10
ENDBRANCH   1   6
BRANCH   1  18
HETATM   18  C           1     -21.012  -5.162  -6.172  0.00  0.00     0.083 C 
BRANCH  18  19
HETATM   19  C           1     -21.908  -4.703  -7.279  0.00  0.00    -0.028 A 
HETATM   20  C           1     -23.252  -4.425  -7.172  0.00  0.00     0.096 A 
HETATM   21  N           1     -23.699  -4.038  -8.408  0.00  0.00    -0.365 N 
HETATM   22  C           1     -22.665  -4.060  -9.316  0.00  0.00     0.042 A 
HETATM   23  H           1     -24.688  -3.763  -8.629  0.00  0.00     0.165 HD
HETATM   24  C           1     -22.653  -3.747 -10.681  0.00  0.00     0.030 A 
HETATM   25  C           1     -21.524  -4.477  -8.630  0.00  0.00    -0.002 A 
HETATM   26  C           1     -21.436  -3.862 -11.360  0.00  0.00     0.002 A 
HETATM   27  C           1     -20.280  -4.276 -10.700  0.00  0.00     0.001 A 
HETATM   28  C           1     -20.311  -4.586  -9.334  0.00  0.00     0.014 A 
ENDBRANCH  18  19
ENDBRANCH   1  18
TORSDOF 8
ENDMDL
MODEL 3
REMARK VINA RESULT:      -7.3      1.132      2.021
REMARK  8 active torsions:
REMARK  status: ('A' for Active; 'I' for Inactive)
REMARK    1  A    between atoms: N_1  and  C_2 
REMARK    2  A    between atoms: C_2  and  C_15 
REMARK    3  A    between atoms: C_2  and  C_22 
REMARK    4  A    between atoms: C_4  and  C_10 
REMARK    5  A    between atoms: C_6  and  C_22 
REMARK    6  A    between atoms: C_10  and  C_13 
REMARK    7  A    between atoms: C_10  and  N_16 
REMARK    8  A    between atoms: C_13  and  O_14 
REMARK       I    between atoms: C_15  and  N_16 
ROOT
HETATM    1  C           1     -21.081  -5.734  -6.959  0.00  0.00     0.278 C 
ENDROOT
BRANCH   1   2
HETATM    2  N           1     -19.887  -6.313  -7.660  0.00  0.00    -0.066 N 
HETATM    3  H           1     -20.164  -6.628  -8.617  0.00  0.00     0.275 HD
HETATM    4  H           1     -19.141  -5.585  -7.735  0.00  0.00     0.275 HD
HETATM    5  H           1     -19.526  -7.128  -7.115  0.00  0.00     0.275 HD
ENDBRANCH   1   2
BRANCH   1   6
HETATM    6  C           1     -21.629  -4.584  -7.768  0.00  0.00     0.249 C 
HETATM    7  O           1     -21.734  -3.489  -7.268  0.00  0.00    -0.271 OA
HETATM    8  N           1     -22.008  -4.781  -9.069  0.00  0.00    -0.343 N 
HETATM    9  H           1     -21.921  -5.697  -9.488  0.00  0.00     0.163 HD
BRANCH   8  10
HETATM   10  C           1     -22.535  -3.676  -9.846  0.00  0.00     0.214 C 
BRANCH  10  11
HETATM   11  C           1     -23.993  -3.923 -10.146  0.00  0.00     0.199 C 
HETATM   12  O           1     -24.484  -5.059  -9.967  0.00  0.00    -0.646 OA
HETATM   13  O           1     -24.710  -2.992 -10.573  0.00  0.00    -0.646 OA
ENDBRANCH  10  11
BRANCH  10  14
HETATM   14  C           1     -21.761  -3.558 -11.153  0.00  0.00     0.147 C 
HETATM   15  C           1     -20.364  -4.134 -10.968  0.00  0.00     0.042 C 
BRANCH  14  16
HETATM   16  O           1     -22.431  -4.271 -12.157  0.00  0.00    -0.393 OA
HETATM   17  H           1     -23.220  -4.613 -11.771  0.00  0.00     0.210 HD
ENDBRANCH  14  16
ENDBRANCH  10  14
ENDBRANCH   8  10
ENDBRANCH   1   6
BRANCH   1  18
HETATM   18  C           1     -20.667  -5.235  -5.581  0.00  0.00     0.083 C 
BRANCH  18  19
HETATM   19  C           1     -21.004  -6.268  -4.553  0.00  0.00    -0.028 A 
HETATM   20  C           1     -21.928  -6.134  -3.541  0.00  0.00     0.096 A 
HETATM   21  N           1     -21.934  -7.301  -2.823  0.00  0.00    -0.365 N 
HETATM   22  C           1     -21.029  -8.192  -3.354  0.00  0.00     0.042 A 
HETATM   23  H           1     -22.543  -7.489  -1.988  0.00  0.00     0.165 HD
HETATM   24  C           1     -20.698  -9.493  -2.954  0.00  0.00     0.030 A 
HETATM   25  C           1     -20.428  -7.564  -4.446  0.00  0.00    -0.002 A 
HETATM   26  C           1     -19.725 -10.169  -3.696  0.00  0.00     0.002 A 
HETATM   27  C           1     -19.109  -9.567  -4.792  0.00  0.00     0.001 A 
HETATM   28  C           1     -19.452  -8.266  -5.178  0.00  0.00     0.014 A 
ENDBRANCH  18  19
ENDBRANCH   1  18
TORSDOF 8
ENDMDL
MODEL 4
REMARK VINA RESULT:      -7.2      3.273      7.797
REMARK  8 active torsions:
REMARK  status: ('A' for Active; 'I' for Inactive)
REMARK    1  A    between atoms: N_1  and  C_2 
REMARK    2  A    between atoms: C_2  and  C_15 
REMARK    3  A    between atoms: C_2  and  C_22 
REMARK    4  A    between atoms: C_4  and  C_10 
REMARK    5  A    between atoms: C_6  and  C_22 
REMARK    6  A    between atoms: C_10  and  C_13 
REMARK    7  A    between atoms: C_10  and  N_16 
REMARK    8  A    between atoms: C_13  and  O_14 
REMARK       I    between atoms: C_15  and  N_16 
ROOT
HETATM    1  C           1     -20.221  -5.862  -5.964  0.00  0.00     0.278 C 
ENDROOT
BRANCH   1   2
HETATM    2  N           1     -20.629  -6.651  -7.173  0.00  0.00    -0.066 N 
HETATM    3  H           1     -21.645  -6.498  -7.362  0.00  0.00     0.275 HD
HETATM    4  H           1     -20.070  -6.337  -7.998  0.00  0.00     0.275 HD
HETATM    5  H           1     -20.456  -7.667  -7.000  0.00  0.00     0.275 HD
ENDBRANCH   1   2
BRANCH   1   6
HETATM    6  C           1     -20.881  -6.444  -4.738  0.00  0.00     0.249 C 
HETATM    7  O           1     -21.568  -5.745  -4.032  0.00  0.00    -0.271 OA
HETATM    8  N           1     -20.700  -7.765  -4.425  0.00  0.00    -0.343 N 
HETATM    9  H           1     -20.125  -8.351  -5.016  0.00  0.00     0.163 HD
BRANCH   8  10
HETATM   10  C           1     -21.335  -8.324  -3.247  0.00  0.00     0.214 C 
BRANCH  10  11
HETATM   11  C           1     -20.328  -8.404  -2.126  0.00  0.00     0.199 C 
HETATM   12  O           1     -19.173  -8.824  -2.351  0.00  0.00    -0.646 OA
HETATM   13  O           1     -20.650  -8.051  -0.970  0.00  0.00    -0.646 OA
ENDBRANCH  10  11
BRANCH  10  14
HETATM   14  C           1     -21.854  -9.721  -3.563  0.00  0.00     0.147 C 
HETATM   15  C           1     -21.238 -10.208  -4.868  0.00  0.00     0.042 C 
BRANCH  14  16
HETATM   16  O           1     -21.502 -10.595  -2.525  0.00  0.00    -0.393 OA
HETATM   17  H           1     -21.235 -10.062  -1.796  0.00  0.00     0.210 HD
ENDBRANCH  14  16
ENDBRANCH  10  14
ENDBRANCH   8  10
ENDBRANCH   1   6
BRANCH   1  18
HETATM   18  C           1     -20.653  -4.412  -6.134  0.00  0.00     0.083 C 
BRANCH  18  19
HETATM   19  C           1     -21.692  -4.323  -7.208  0.00  0.00    -0.028 A 
HETATM   20  C           1     -23.055  -4.387  -7.025  0.00  0.00     0.096 A 
HETATM   21  N           1     -23.648  -4.266  -8.254  0.00  0.00    -0.365 N 
HETATM   22  C           1     -22.691  -4.125  -9.233  0.00  0.00     0.042 A 
HETATM   23  H           1     -24.685  -4.280  -8.423  0.00  0.00     0.165 HD
HETATM   24  C           1     -22.829  -3.972 -10.618  0.00  0.00     0.030 A 
HETATM   25  C           1     -21.449  -4.157  -8.599  0.00  0.00    -0.002 A 
HETATM   26  C           1     -21.660  -3.847 -11.374  0.00  0.00     0.002 A 
HETATM   27  C           1     -20.405  -3.877 -10.768  0.00  0.00     0.001 A 
HETATM   28  C           1     -20.286  -4.031  -9.382  0.00  0.00     0.014 A 
ENDBRANCH  18  19
ENDBRANCH   1  18
TORSDOF 8
ENDMDL
MODEL 5
REMARK VINA RESULT:      -7.1      4.093      7.556
REMARK  8 active torsions:
REMARK  status: ('A' for Active; 'I' for Inactive)
REMARK    1  A    between atoms: N_1  and  C_2 
REMARK    2  A    between atoms: C_2  and  C_15 
REMARK    3  A    between atoms: C_2  and  C_22 
REMARK    4  A    between atoms: C_4  and  C_10 
REMARK    5  A    between atoms: C_6  and  C_22 
REMARK    6  A    between atoms: C_10  and  C_13 
REMARK    7  A    between atoms: C_10  and  N_16 
REMARK    8  A    between atoms: C_13  and  O_14 
REMARK       I    between atoms: C_15  and  N_16 
ROOT
HETATM    1  C           1     -21.309  -6.838  -5.148  0.00  0.00     0.278 C 
ENDROOT
BRANCH   1   2
HETATM    2  N           1     -21.543  -5.984  -3.937  0.00  0.00    -0.066 N 
HETATM    3  H           1     -21.969  -6.563  -3.179  0.00  0.00     0.275 HD
HETATM    4  H           1     -20.632  -5.592  -3.607  0.00  0.00     0.275 HD
HETATM    5  H           1     -22.191  -5.202  -4.183  0.00  0.00     0.275 HD
ENDBRANCH   1   2
BRANCH   1   6
HETATM    6  C           1     -20.501  -8.051  -4.758  0.00  0.00     0.249 C 
HETATM    7  O           1     -20.183  -8.222  -3.605  0.00  0.00    -0.271 OA
HETATM    8  N           1     -20.125  -8.959  -5.713  0.00  0.00    -0.343 N 
HETATM    9  H           1     -20.390  -8.817  -6.678  0.00  0.00     0.163 HD
BRANCH   8  10
HETATM   10  C           1     -19.348 -10.124  -5.338  0.00  0.00     0.214 C 
BRANCH  10  11
HETATM   11  C           1     -17.915  -9.931  -5.770  0.00  0.00     0.199 C 
HETATM   12  O           1     -17.010 -10.627  -5.263  0.00  0.00    -0.646 OA
HETATM   13  O           1     -17.634  -9.074  -6.636  0.00  0.00    -0.646 OA
ENDBRANCH  10  11
BRANCH  10  14
HETATM   14  C           1     -19.921 -11.359  -6.021  0.00  0.00     0.147 C 
HETATM   15  C           1     -21.413 -11.162  -6.257  0.00  0.00     0.042 C 
BRANCH  14  16
HETATM   16  O           1     -19.276 -11.555  -7.250  0.00  0.00    -0.393 OA
HETATM   17  H           1     -18.454 -11.096  -7.205  0.00  0.00     0.210 HD
ENDBRANCH  14  16
ENDBRANCH  10  14
ENDBRANCH   8  10
ENDBRANCH   1   6
BRANCH   1  18
HETATM   18  C           1     -20.549  -6.035  -6.195  0.00  0.00     0.083 C 
BRANCH  18  19
HETATM   19  C           1     -21.520  -5.282  -7.049  0.00  0.00    -0.028 A 
HETATM   20  C           1     -22.789  -4.893  -6.685  0.00  0.00     0.096 A 
HETATM   21  N           1     -23.345  -4.230  -7.747  0.00  0.00    -0.365 N 
HETATM   22  C           1     -22.456  -4.183  -8.797  0.00  0.00     0.042 A 
HETATM   23  H           1     -24.311  -3.818  -7.759  0.00  0.00     0.165 HD
HETATM   24  C           1     -22.588  -3.615 -10.070  0.00  0.00     0.030 A 
HETATM   25  C           1     -21.297  -4.839  -8.382  0.00  0.00    -0.002 A 
HETATM   26  C           1     -21.500  -3.721 -10.942  0.00  0.00     0.002 A 
HETATM   27  C           1     -20.329  -4.371 -10.555  0.00  0.00     0.001 A 
HETATM   28  C           1     -20.215  -4.934  -9.278  0.00  0.00     0.014 A 
ENDBRANCH  18  19
ENDBRANCH   1  18
TORSDOF 8
ENDMDL
MODEL 6
REMARK VINA RESULT:      -7.0      2.187      3.177
REMARK  8 active torsions:
REMARK  status: ('A' for Active; 'I' for Inactive)
REMARK    1  A    between atoms: N_1  and  C_2 
REMARK    2  A    between atoms: C_2  and  C_15 
REMARK    3  A    between atoms: C_2  and  C_22 
REMARK    4  A    between atoms: C_4  and  C_10 
REMARK    5  A    between atoms: C_6  and  C_22 
REMARK    6  A    between atoms: C_10  and  C_13 
REMARK    7  A    between atoms: C_10  and  N_16 
REMARK    8  A    between atoms: C_13  and  O_14 
REMARK       I    between atoms: C_15  and  N_16 
ROOT
HETATM    1  C           1     -21.143  -7.899  -4.739  0.00  0.00     0.278 C 
ENDROOT
BRANCH   1   2
HETATM    2  N           1     -21.187  -8.737  -5.984  0.00  0.00    -0.066 N 
HETATM    3  H           1     -22.008  -8.456  -6.564  0.00  0.00     0.275 HD
HETATM    4  H           1     -20.308  -8.592  -6.530  0.00  0.00     0.275 HD
HETATM    5  H           1     -21.273  -9.745  -5.722  0.00  0.00     0.275 HD
ENDBRANCH   1   2
BRANCH   1   6
HETATM    6  C           1     -21.229  -6.440  -5.113  0.00  0.00     0.249 C 
HETATM    7  O           1     -21.388  -5.605  -4.255  0.00  0.00    -0.271 OA
HETATM    8  N           1     -21.126  -6.062  -6.425  0.00  0.00    -0.343 N 
HETATM    9  H           1     -20.992  -6.761  -7.144  0.00  0.00     0.163 HD
BRANCH   8  10
HETATM   10  C           1     -21.208  -4.660  -6.784  0.00  0.00     0.214 C 
BRANCH  10  11
HETATM   11  C           1     -22.566  -4.372  -7.376  0.00  0.00     0.199 C 
HETATM   12  O           1     -23.600  -4.623  -6.719  0.00  0.00    -0.646 OA
HETATM   13  O           1     -22.657  -3.883  -8.523  0.00  0.00    -0.646 OA
ENDBRANCH  10  11
BRANCH  10  14
HETATM   14  C           1     -20.129  -4.332  -7.808  0.00  0.00     0.147 C 
HETATM   15  C           1     -18.758  -4.455  -7.157  0.00  0.00     0.042 C 
BRANCH  14  16
HETATM   16  O           1     -20.218  -5.230  -8.882  0.00  0.00    -0.393 OA
HETATM   17  H           1     -19.342  -5.520  -9.070  0.00  0.00     0.210 HD
ENDBRANCH  14  16
ENDBRANCH  10  14
ENDBRANCH   8  10
ENDBRANCH   1   6
BRANCH   1  18
HETATM   18  C           1     -19.838  -8.159  -3.999  0.00  0.00     0.083 C 
BRANCH  18  19
HETATM   19  C           1     -20.122  -8.896  -2.728  0.00  0.00    -0.028 A 
HETATM   20  C           1     -19.609 -10.122  -2.369  0.00  0.00     0.096 A 
HETATM   21  N           1     -20.113 -10.442  -1.136  0.00  0.00    -0.365 N 
HETATM   22  C           1     -20.947  -9.442  -0.689  0.00  0.00     0.042 A 
HETATM   23  H           1     -19.895 -11.324  -0.609  0.00  0.00     0.165 HD
HETATM   24  C           1     -21.677  -9.338   0.502  0.00  0.00     0.030 A 
HETATM   25  C           1     -20.970  -8.455  -1.674  0.00  0.00    -0.002 A 
HETATM   26  C           1     -22.450  -8.188   0.688  0.00  0.00     0.002 A 
HETATM   27  C           1     -22.492  -7.185  -0.280  0.00  0.00     0.001 A 
HETATM   28  C           1     -21.756  -7.307  -1.465  0.00  0.00     0.014 A 
ENDBRANCH  18  19
ENDBRANCH   1  18
TORSDOF 8
ENDMDL
MODEL 7
REMARK VINA RESULT:      -6.9      3.785      7.853
REMARK  8 active torsions:
REMARK  status: ('A' for Active; 'I' for Inactive)
REMARK    1  A    between atoms: N_1  and  C_2 
REMARK    2  A    between atoms: C_2  and  C_15 
REMARK    3  A    between atoms: C_2  and  C_22 
REMARK    4  A    between atoms: C_4  and  C_10 
REMARK    5  A    between atoms: C_6  and  C_22 
REMARK    6  A    between atoms: C_10  and  C_13 
REMARK    7  A    between atoms: C_10  and  N_16 
REMARK    8  A    between atoms: C_13  and  O_14 
REMARK       I    between atoms: C_15  and  N_16 
ROOT
HETATM    1  C           1     -20.440  -6.965  -6.062  0.00  0.00     0.278 C 
ENDROOT
BRANCH   1   2
HETATM    2  N           1     -21.646  -7.585  -6.705  0.00  0.00    -0.066 N 
HETATM    3  H           1     -21.342  -8.341  -7.358  0.00  0.00     0.275 HD
HETATM    4  H           1     -22.264  -7.990  -5.966  0.00  0.00     0.275 HD
HETATM    5  H           1     -22.170  -6.854  -7.237  0.00  0.00     0.275 HD
ENDBRANCH   1   2
BRANCH   1   6
HETATM    6  C           1     -20.161  -7.654  -4.749  0.00  0.00     0.249 C 
HETATM    7  O           1     -19.141  -8.284  -4.601  0.00  0.00    -0.271 OA
HETATM    8  N           1     -21.065  -7.566  -3.724  0.00  0.00    -0.343 N 
HETATM    9  H           1     -21.919  -7.038  -3.846  0.00  0.00     0.163 HD
BRANCH   8  10
HETATM   10  C           1     -20.797  -8.228  -2.462  0.00  0.00     0.214 C 
BRANCH  10  11
HETATM   11  C           1     -21.286  -9.655  -2.531  0.00  0.00     0.199 C 
HETATM   12  O           1     -20.732 -10.538  -1.842  0.00  0.00    -0.646 OA
HETATM   13  O           1     -22.243  -9.951  -3.277  0.00  0.00    -0.646 OA
ENDBRANCH  10  11
BRANCH  10  14
HETATM   14  C           1     -21.522  -7.497  -1.339  0.00  0.00     0.147 C 
HETATM   15  C           1     -22.203  -6.255  -1.899  0.00  0.00     0.042 C 
BRANCH  14  16
HETATM   16  O           1     -22.487  -8.345  -0.778  0.00  0.00    -0.393 OA
HETATM   17  H           1     -23.291  -7.855  -0.734  0.00  0.00     0.210 HD
ENDBRANCH  14  16
ENDBRANCH  10  14
ENDBRANCH   8  10
ENDBRANCH   1   6
BRANCH   1  18
HETATM   18  C           1     -20.702  -5.486  -5.814  0.00  0.00     0.083 C 
BRANCH  18  19
HETATM   19  C           1     -21.635  -4.961  -6.860  0.00  0.00    -0.028 A 
HETATM   20  C           1     -22.965  -4.654  -6.681  0.00  0.00     0.096 A 
HETATM   21  N           1     -23.456  -4.206  -7.879  0.00  0.00    -0.365 N 
HETATM   22  C           1     -22.465  -4.218  -8.834  0.00  0.00     0.042 A 
HETATM   23  H           1     -24.447  -3.898  -8.044  0.00  0.00     0.165 HD
HETATM   24  C           1     -22.505  -3.850 -10.185  0.00  0.00     0.030 A 
HETATM   25  C           1     -21.306  -4.690  -8.217  0.00  0.00    -0.002 A 
HETATM   26  C           1     -21.324  -3.968 -10.923  0.00  0.00     0.002 A 
HETATM   27  C           1     -20.151  -4.437 -10.333  0.00  0.00     0.001 A 
HETATM   28  C           1     -20.129  -4.801  -8.980  0.00  0.00     0.014 A 
ENDBRANCH  18  19
ENDBRANCH   1  18
TORSDOF 8
ENDMDL
MODEL 8
REMARK VINA RESULT:      -6.9     12.658     14.831
REMARK  8 active torsions:
REMARK  status: ('A' for Active; 'I' for Inactive)
REMARK    1  A    between atoms: N_1  and  C_2 
REMARK    2  A    between atoms: C_2  and  C_15 
REMARK    3  A    between atoms: C_2  and  C_22 
REMARK    4  A    between atoms: C_4  and  C_10 
REMARK    5  A    between atoms: C_6  and  C_22 
REMARK    6  A    between atoms: C_10  and  C_13 
REMARK    7  A    between atoms: C_10  and  N_16 
REMARK    8  A    between atoms: C_13  and  O_14 
REMARK       I    between atoms: C_15  and  N_16 
ROOT
HETATM    1  C           1     -33.312  -4.475 -16.551  0.00  0.00     0.278 C 
ENDROOT
BRANCH   1   2
HETATM    2  N           1     -33.744  -3.226 -17.262  0.00  0.00    -0.066 N 
HETATM    3  H           1     -33.918  -3.442 -18.269  0.00  0.00     0.275 HD
HETATM    4  H           1     -34.623  -2.865 -16.826  0.00  0.00     0.275 HD
HETATM    5  H           1     -32.993  -2.504 -17.184  0.00  0.00     0.275 HD
ENDBRANCH   1   2
BRANCH   1   6
HETATM    6  C           1     -34.062  -4.595 -15.247  0.00  0.00     0.249 C 
HETATM    7  O           1     -35.104  -5.203 -15.203  0.00  0.00    -0.271 OA
HETATM    8  N           1     -33.560  -4.015 -14.113  0.00  0.00    -0.343 N 
HETATM    9  H           1     -32.686  -3.506 -14.149  0.00  0.00     0.163 HD
BRANCH   8  10
HETATM   10  C           1     -34.281  -4.130 -12.860  0.00  0.00     0.214 C 
BRANCH  10  11
HETATM   11  C           1     -34.913  -2.803 -12.521  0.00  0.00     0.199 C 
HETATM   12  O           1     -35.664  -2.704 -11.527  0.00  0.00    -0.646 OA
HETATM   13  O           1     -34.686  -1.802 -13.235  0.00  0.00    -0.646 OA
ENDBRANCH  10  11
BRANCH  10  14
HETATM   14  C           1     -33.314  -4.530 -11.752  0.00  0.00     0.147 C 
HETATM   15  C           1     -33.849  -5.759 -11.031  0.00  0.00     0.042 C 
BRANCH  14  16
HETATM   16  O           1     -32.062  -4.823 -12.310  0.00  0.00    -0.393 OA
HETATM   17  H           1     -32.182  -5.564 -12.880  0.00  0.00     0.210 HD
ENDBRANCH  14  16
ENDBRANCH  10  14
ENDBRANCH   8  10
ENDBRANCH   1   6
BRANCH   1  18
HETATM   18  C           1     -31.816  -4.408 -16.273  0.00  0.00     0.083 C 
BRANCH  18  19
HETATM   19  C           1     -31.115  -5.480 -17.046  0.00  0.00    -0.028 A 
HETATM   20  C           1     -31.704  -6.584 -17.620  0.00  0.00     0.096 A 
HETATM   21  N           1     -30.719  -7.313 -18.232  0.00  0.00    -0.365 N 
HETATM   22  C           1     -29.498  -6.700 -18.065  0.00  0.00     0.042 A 
HETATM   23  H           1     -30.874  -8.211 -18.754  0.00  0.00     0.165 HD
HETATM   24  C           1     -28.227  -7.079 -18.512  0.00  0.00     0.030 A 
HETATM   25  C           1     -29.720  -5.541 -17.320  0.00  0.00    -0.002 A 
HETATM   26  C           1     -27.152  -6.245 -18.186  0.00  0.00     0.002 A 
HETATM   27  C           1     -27.344  -5.081 -17.444  0.00  0.00     0.001 A 
HETATM   28  C           1     -28.623  -4.718 -17.004  0.00  0.00     0.014 A 
ENDBRANCH  18  19
ENDBRANCH   1  18
TORSDOF 8
ENDMDL
MODEL 9
REMARK VINA RESULT:      -6.8      4.198      7.947
REMARK  8 active torsions:
REMARK  status: ('A' for Active; 'I' for Inactive)
REMARK    1  A    between atoms: N_1  and  C_2 
REMARK    2  A    between atoms: C_2  and  C_15 
REMARK    3  A    between atoms: C_2  and  C_22 
REMARK    4  A    between atoms: C_4  and  C_10 
REMARK    5  A    between atoms: C_6  and  C_22 
REMARK    6  A    between atoms: C_10  and  C_13 
REMARK    7  A    between atoms: C_10  and  N_16 
REMARK    8  A    between atoms: C_13  and  O_14 
REMARK       I    between atoms: C_15  and  N_16 
ROOT
HETATM    1  C           1     -20.268  -7.569  -5.287  0.00  0.00     0.278 C 
ENDROOT
BRANCH   1   2
HETATM    2  N           1     -21.277  -8.351  -6.077  0.00  0.00    -0.066 N 
HETATM    3  H           1     -22.111  -8.546  -5.480  0.00  0.00     0.275 HD
HETATM    4  H           1     -21.568  -7.797  -6.914  0.00  0.00     0.275 HD
HETATM    5  H           1     -20.851  -9.254  -6.387  0.00  0.00     0.275 HD
ENDBRANCH   1   2
BRANCH   1   6
HETATM    6  C           1     -20.130  -8.172  -3.911  0.00  0.00     0.249 C 
HETATM    7  O           1     -19.112  -8.741  -3.599  0.00  0.00    -0.271 OA
HETATM    8  N           1     -21.161  -8.074  -3.015  0.00  0.00    -0.343 N 
HETATM    9  H           1     -22.015  -7.598  -3.275  0.00  0.00     0.163 HD
BRANCH   8  10
HETATM   10  C           1     -21.029  -8.654  -1.692  0.00  0.00     0.214 C 
BRANCH  10  11
HETATM   11  C           1     -21.607 -10.048  -1.696  0.00  0.00     0.199 C 
HETATM   12  O           1     -21.227 -10.884  -0.847  0.00  0.00    -0.646 OA
HETATM   13  O           1     -22.465 -10.367  -2.548  0.00  0.00    -0.646 OA
ENDBRANCH  10  11
BRANCH  10  14
HETATM   14  C           1     -21.782  -7.795  -0.683  0.00  0.00     0.147 C 
HETATM   15  C           1     -22.277  -6.527  -1.366  0.00  0.00     0.042 C 
BRANCH  14  16
HETATM   16  O           1     -22.877  -8.515  -0.184  0.00  0.00    -0.393 OA
HETATM   17  H           1     -23.368  -7.924   0.361  0.00  0.00     0.210 HD
ENDBRANCH  14  16
ENDBRANCH  10  14
ENDBRANCH   8  10
ENDBRANCH   1   6
BRANCH   1  18
HETATM   18  C           1     -20.730  -6.123  -5.166  0.00  0.00     0.083 C 
BRANCH  18  19
HETATM   19  C           1     -20.491  -5.411  -6.459  0.00  0.00    -0.028 A 
HETATM   20  C           1     -19.266  -5.170  -7.039  0.00  0.00     0.096 A 
HETATM   21  N           1     -19.483  -4.495  -8.211  0.00  0.00    -0.365 N 
HETATM   22  C           1     -20.831  -4.293  -8.402  0.00  0.00     0.042 A 
HETATM   23  H           1     -18.728  -4.177  -8.869  0.00  0.00     0.165 HD
HETATM   24  C           1     -21.512  -3.656  -9.447  0.00  0.00     0.030 A 
HETATM   25  C           1     -21.489  -4.861  -7.311  0.00  0.00    -0.002 A 
HETATM   26  C           1     -22.907  -3.602  -9.372  0.00  0.00     0.002 A 
HETATM   27  C           1     -23.591  -4.161  -8.294  0.00  0.00     0.001 A 
HETATM   28  C           1     -22.894  -4.794  -7.257  0.00  0.00     0.014 A 
ENDBRANCH  18  19
ENDBRANCH   1  18
TORSDOF 8
ENDMDL
