MODEL 1
REMARK VINA RESULT:      -7.2      0.000      0.000
REMARK  10 active torsions:
REMARK  status: ('A' for Active; 'I' for Inactive)
REMARK    1  A    between atoms: C_5  and  C_20 
REMARK    2  A    between atoms: S_7  and  C_23 
REMARK    3  A    between atoms: C_8  and  C_9 
REMARK    4  A    between atoms: C_9  and  C_16 
REMARK    5  A    between atoms: C_12  and  O_25 
REMARK    6  A    between atoms: N_14  and  C_16 
REMARK    7  A    between atoms: C_16  and  C_21 
REMARK    8  A    between atoms: C_20  and  C_24 
REMARK    9  A    between atoms: C_20  and  N_22 
REMARK       I    between atoms: C_21  and  N_22 
REMARK   10  A    between atoms: C_23  and  C_24 
ROOT
HETATM    1  C           1     -22.169  -5.240  -6.635  0.00  0.00     0.278 C 
ENDROOT
BRANCH   1   2
HETATM    2  C           1     -21.527  -3.954  -7.142  0.00  0.00     0.081 C 
BRANCH   2   3
HETATM    3  C           1     -21.573  -3.929  -8.637  0.00  0.00    -0.056 A 
HETATM    4  C           1     -22.763  -3.616  -9.294  0.00  0.00     0.010 A 
HETATM    5  C           1     -22.805  -3.593 -10.688  0.00  0.00     0.037 A 
HETATM    6  C           1     -21.657  -3.883 -11.426  0.00  0.00     0.065 A 
HETATM    7  C           1     -20.467  -4.196 -10.769  0.00  0.00     0.037 A 
HETATM    8  C           1     -20.425  -4.220  -9.375  0.00  0.00     0.010 A 
BRANCH   6   9
HETATM    9  O           1     -21.698  -3.861 -12.779  0.00  0.00    -0.361 OA
HETATM   10  H           1     -21.560  -2.943 -13.069  0.00  0.00     0.217 HD
ENDBRANCH   6   9
ENDBRANCH   2   3
ENDBRANCH   1   2
BRANCH   1  11
HETATM   11  N           1     -23.595  -4.971  -6.258  0.00  0.00    -0.066 N 
HETATM   12  H           1     -23.623  -4.432  -5.363  0.00  0.00     0.275 HD
HETATM   13  H           1     -24.099  -5.878  -6.134  0.00  0.00     0.275 HD
HETATM   14  H           1     -24.057  -4.415  -7.012  0.00  0.00     0.275 HD
ENDBRANCH   1  11
BRANCH   1  15
HETATM   15  C           1     -21.414  -5.738  -5.427  0.00  0.00     0.249 C 
HETATM   16  N           1     -22.097  -6.256  -4.360  0.00  0.00    -0.345 N 
HETATM   17  H           1     -23.107  -6.307  -4.380  0.00  0.00     0.163 HD
HETATM   18  O           1     -20.208  -5.677  -5.401  0.00  0.00    -0.271 OA
BRANCH  16  19
HETATM   19  C           1     -21.372  -6.734  -3.199  0.00  0.00     0.186 C 
BRANCH  19  20
HETATM   20  C           1     -21.011  -8.186  -3.393  0.00  0.00     0.196 C 
HETATM   21  O           1     -19.829  -8.563  -3.239  0.00  0.00    -0.646 OA
HETATM   22  O           1     -21.894  -9.013  -3.710  0.00  0.00    -0.646 OA
ENDBRANCH  19  20
BRANCH  19  23
HETATM   23  C           1     -22.246  -6.591  -1.959  0.00  0.00     0.046 C 
BRANCH  23  24
HETATM   24  C           1     -21.662  -7.423  -0.825  0.00  0.00     0.076 C 
BRANCH  24  25
HETATM   25  S           1     -23.003  -8.022   0.241  0.00  0.00    -0.173 SA
HETATM   26  C           1     -22.960  -9.742  -0.334  0.00  0.00     0.089 C 
ENDBRANCH  24  25
ENDBRANCH  23  24
ENDBRANCH  19  23
ENDBRANCH  16  19
ENDBRANCH   1  15
TORSDOF 10
ENDMDL
MODEL 2
REMARK VINA RESULT:      -6.9      1.429      1.760
REMARK  10 active torsions:
REMARK  status: ('A' for Active; 'I' for Inactive)
REMARK    1  A    between atoms: C_5  and  C_20 
REMARK    2  A    between atoms: S_7  and  C_23 
REMARK    3  A    between atoms: C_8  and  C_9 
REMARK    4  A    between atoms: C_9  and  C_16 
REMARK    5  A    between atoms: C_12  and  O_25 
REMARK    6  A    between atoms: N_14  and  C_16 
REMARK    7  A    between atoms: C_16  and  C_21 
REMARK    8  A    between atoms: C_20  and  C_24 
REMARK    9  A    between atoms: C_20  and  N_22 
REMARK       I    between atoms: C_21  and  N_22 
REMARK   10  A    between atoms: C_23  and  C_24 
ROOT
HETATM    1  C           1     -21.951  -5.486  -6.715  0.00  0.00     0.278 C 
ENDROOT
BRANCH   1   2
HETATM    2  C           1     -21.299  -4.191  -7.181  0.00  0.00     0.081 C 
BRANCH   2   3
HETATM    3  C           1     -21.407  -4.085  -8.670  0.00  0.00    -0.056 A 
HETATM    4  C           1     -22.613  -3.696  -9.256  0.00  0.00     0.010 A 
HETATM    5  C           1     -22.713  -3.598 -10.644  0.00  0.00     0.037 A 
HETATM    6  C           1     -21.609  -3.889 -11.446  0.00  0.00     0.065 A 
HETATM    7  C           1     -20.404  -4.277 -10.860  0.00  0.00     0.037 A 
HETATM    8  C           1     -20.304  -4.375  -9.472  0.00  0.00     0.010 A 
BRANCH   6   9
HETATM    9  O           1     -21.707  -3.793 -12.794  0.00  0.00    -0.361 OA
HETATM   10  H           1     -21.887  -2.865 -13.017  0.00  0.00     0.217 HD
ENDBRANCH   6   9
ENDBRANCH   2   3
ENDBRANCH   1   2
BRANCH   1  11
HETATM   11  N           1     -23.305  -5.187  -6.143  0.00  0.00    -0.066 N 
HETATM   12  H           1     -23.308  -5.408  -5.122  0.00  0.00     0.275 HD
HETATM   13  H           1     -24.024  -5.770  -6.629  0.00  0.00     0.275 HD
HETATM   14  H           1     -23.526  -4.175  -6.281  0.00  0.00     0.275 HD
ENDBRANCH   1  11
BRANCH   1  15
HETATM   15  C           1     -21.090  -6.131  -5.657  0.00  0.00     0.249 C 
HETATM   16  N           1     -20.976  -7.494  -5.605  0.00  0.00    -0.345 N 
HETATM   17  H           1     -21.469  -8.070  -6.275  0.00  0.00     0.163 HD
HETATM   18  O           1     -20.501  -5.445  -4.856  0.00  0.00    -0.271 OA
BRANCH  16  19
HETATM   19  C           1     -20.149  -8.114  -4.588  0.00  0.00     0.186 C 
BRANCH  19  20
HETATM   20  C           1     -19.368  -9.251  -5.199  0.00  0.00     0.196 C 
HETATM   21  O           1     -18.139  -9.348  -4.991  0.00  0.00    -0.646 OA
HETATM   22  O           1     -19.950 -10.096  -5.914  0.00  0.00    -0.646 OA
ENDBRANCH  19  20
BRANCH  19  23
HETATM   23  C           1     -21.034  -8.650  -3.469  0.00  0.00     0.046 C 
BRANCH  23  24
HETATM   24  C           1     -20.454  -8.241  -2.122  0.00  0.00     0.076 C 
BRANCH  24  25
HETATM   25  S           1     -21.796  -7.712  -1.020  0.00  0.00    -0.173 SA
HETATM   26  C           1     -22.213  -6.197  -1.928  0.00  0.00     0.089 C 
ENDBRANCH  24  25
ENDBRANCH  23  24
ENDBRANCH  19  23
ENDBRANCH  16  19
ENDBRANCH   1  15
TORSDOF 10
ENDMDL
MODEL 3
REMARK VINA RESULT:      -6.9      1.200      1.866
REMARK  10 active torsions:
REMARK  status: ('A' for Active; 'I' for Inactive)
REMARK    1  A    between atoms: C_5  and  C_20 
REMARK    2  A    between atoms: S_7  and  C_23 
REMARK    3  A    between atoms: C_8  and  C_9 
REMARK    4  A    between atoms: C_9  and  C_16 
REMARK    5  A    between atoms: C_12  and  O_25 
REMARK    6  A    between atoms: N_14  and  C_16 
REMARK    7  A    between atoms: C_16  and  C_21 
REMARK    8  A    between atoms: C_20  and  C_24 
REMARK    9  A    between atoms: C_20  and  N_22 
REMARK       I    between atoms: C_21  and  N_22 
REMARK   10  A    between atoms: C_23  and  C_24 
ROOT
HETATM    1  C           1     -21.861  -5.716  -6.805  0.00  0.00     0.278 C 
ENDROOT
BRANCH   1   2
HETATM    2  C           1     -21.061  -4.504  -7.263  0.00  0.00     0.081 C 
BRANCH   2   3
HETATM    3  C           1     -21.253  -4.305  -8.734  0.00  0.00    -0.056 A 
HETATM    4  C           1     -20.165  -4.416  -9.601  0.00  0.00     0.010 A 
HETATM    5  C           1     -20.345  -4.231 -10.972  0.00  0.00     0.037 A 
HETATM    6  C           1     -21.611  -3.934 -11.476  0.00  0.00     0.065 A 
HETATM    7  C           1     -22.698  -3.823 -10.609  0.00  0.00     0.037 A 
HETATM    8  C           1     -22.519  -4.008  -9.238  0.00  0.00     0.010 A 
BRANCH   6   9
HETATM    9  O           1     -21.785  -3.754 -12.807  0.00  0.00    -0.361 OA
HETATM   10  H           1     -22.632  -4.160 -13.057  0.00  0.00     0.217 HD
ENDBRANCH   6   9
ENDBRANCH   2   3
ENDBRANCH   1   2
BRANCH   1  11
HETATM   11  N           1     -22.924  -5.277  -5.841  0.00  0.00    -0.066 N 
HETATM   12  H           1     -23.628  -6.040  -5.729  0.00  0.00     0.275 HD
HETATM   13  H           1     -23.394  -4.419  -6.209  0.00  0.00     0.275 HD
HETATM   14  H           1     -22.489  -5.066  -4.915  0.00  0.00     0.275 HD
ENDBRANCH   1  11
BRANCH   1  15
HETATM   15  C           1     -20.941  -6.699  -6.125  0.00  0.00     0.249 C 
HETATM   16  N           1     -21.377  -7.403  -5.035  0.00  0.00    -0.345 N 
HETATM   17  H           1     -22.316  -7.265  -4.685  0.00  0.00     0.163 HD
HETATM   18  O           1     -19.819  -6.864  -6.541  0.00  0.00    -0.271 OA
BRANCH  16  19
HETATM   19  C           1     -20.493  -8.349  -4.381  0.00  0.00     0.186 C 
BRANCH  19  20
HETATM   20  C           1     -20.896  -9.754  -4.753  0.00  0.00     0.196 C 
HETATM   21  O           1     -21.289 -10.546  -3.868  0.00  0.00    -0.646 OA
HETATM   22  O           1     -20.835 -10.128  -5.944  0.00  0.00    -0.646 OA
ENDBRANCH  19  20
BRANCH  19  23
HETATM   23  C           1     -20.591  -8.175  -2.870  0.00  0.00     0.046 C 
BRANCH  23  24
HETATM   24  C           1     -21.273  -6.851  -2.554  0.00  0.00     0.076 C 
BRANCH  24  25
HETATM   25  S           1     -22.245  -7.019  -1.031  0.00  0.00    -0.173 SA
HETATM   26  C           1     -21.209  -8.301  -0.273  0.00  0.00     0.089 C 
ENDBRANCH  24  25
ENDBRANCH  23  24
ENDBRANCH  19  23
ENDBRANCH  16  19
ENDBRANCH   1  15
TORSDOF 10
ENDMDL
MODEL 4
REMARK VINA RESULT:      -6.6      1.795      2.207
REMARK  10 active torsions:
REMARK  status: ('A' for Active; 'I' for Inactive)
REMARK    1  A    between atoms: C_5  and  C_20 
REMARK    2  A    between atoms: S_7  and  C_23 
REMARK    3  A    between atoms: C_8  and  C_9 
REMARK    4  A    between atoms: C_9  and  C_16 
REMARK    5  A    between atoms: C_12  and  O_25 
REMARK    6  A    between atoms: N_14  and  C_16 
REMARK    7  A    between atoms: C_16  and  C_21 
REMARK    8  A    between atoms: C_20  and  C_24 
REMARK    9  A    between atoms: C_20  and  N_22 
REMARK       I    between atoms: C_21  and  N_22 
REMARK   10  A    between atoms: C_23  and  C_24 
ROOT
HETATM    1  C           1     -20.683  -5.502  -6.321  0.00  0.00     0.278 C 
ENDROOT
BRANCH   1   2
HETATM    2  C           1     -20.189  -5.233  -7.736  0.00  0.00     0.081 C 
BRANCH   2   3
HETATM    3  C           1     -21.303  -4.656  -8.552  0.00  0.00    -0.056 A 
HETATM    4  C           1     -22.563  -4.473  -7.982  0.00  0.00     0.010 A 
HETATM    5  C           1     -23.601  -3.935  -8.744  0.00  0.00     0.037 A 
HETATM    6  C           1     -23.379  -3.581 -10.075  0.00  0.00     0.065 A 
HETATM    7  C           1     -22.119  -3.763 -10.645  0.00  0.00     0.037 A 
HETATM    8  C           1     -21.081  -4.301  -9.883  0.00  0.00     0.010 A 
BRANCH   6   9
HETATM    9  O           1     -24.387  -3.058 -10.813  0.00  0.00    -0.361 OA
HETATM   10  H           1     -24.053  -2.908 -11.713  0.00  0.00     0.217 HD
ENDBRANCH   6   9
ENDBRANCH   2   3
ENDBRANCH   1   2
BRANCH   1  11
HETATM   11  N           1     -20.162  -4.439  -5.400  0.00  0.00    -0.066 N 
HETATM   12  H           1     -19.119  -4.405  -5.463  0.00  0.00     0.275 HD
HETATM   13  H           1     -20.445  -4.660  -4.419  0.00  0.00     0.275 HD
HETATM   14  H           1     -20.558  -3.513  -5.677  0.00  0.00     0.275 HD
ENDBRANCH   1  11
BRANCH   1  15
HETATM   15  C           1     -20.187  -6.852  -5.862  0.00  0.00     0.249 C 
HETATM   16  N           1     -20.698  -7.418  -4.726  0.00  0.00    -0.345 N 
HETATM   17  H           1     -21.409  -6.934  -4.194  0.00  0.00     0.163 HD
HETATM   18  O           1     -19.338  -7.431  -6.497  0.00  0.00    -0.271 OA
BRANCH  16  19
HETATM   19  C           1     -20.222  -8.715  -4.285  0.00  0.00     0.186 C 
BRANCH  19  20
HETATM   20  C           1     -21.164  -9.789  -4.771  0.00  0.00     0.196 C 
HETATM   21  O           1     -22.060 -10.223  -4.014  0.00  0.00    -0.646 OA
HETATM   22  O           1     -21.048 -10.246  -5.928  0.00  0.00    -0.646 OA
ENDBRANCH  19  20
BRANCH  19  23
HETATM   23  C           1     -20.162  -8.744  -2.763  0.00  0.00     0.046 C 
BRANCH  23  24
HETATM   24  C           1     -20.842  -7.501  -2.204  0.00  0.00     0.076 C 
BRANCH  24  25
HETATM   25  S           1     -21.942  -7.974  -0.840  0.00  0.00    -0.173 SA
HETATM   26  C           1     -21.218  -9.614  -0.559  0.00  0.00     0.089 C 
ENDBRANCH  24  25
ENDBRANCH  23  24
ENDBRANCH  19  23
ENDBRANCH  16  19
ENDBRANCH   1  15
TORSDOF 10
ENDMDL
MODEL 5
REMARK VINA RESULT:      -6.6      2.213      2.614
REMARK  10 active torsions:
REMARK  status: ('A' for Active; 'I' for Inactive)
REMARK    1  A    between atoms: C_5  and  C_20 
REMARK    2  A    between atoms: S_7  and  C_23 
REMARK    3  A    between atoms: C_8  and  C_9 
REMARK    4  A    between atoms: C_9  and  C_16 
REMARK    5  A    between atoms: C_12  and  O_25 
REMARK    6  A    between atoms: N_14  and  C_16 
REMARK    7  A    between atoms: C_16  and  C_21 
REMARK    8  A    between atoms: C_20  and  C_24 
REMARK    9  A    between atoms: C_20  and  N_22 
REMARK       I    between atoms: C_21  and  N_22 
REMARK   10  A    between atoms: C_23  and  C_24 
ROOT
HETATM    1  C           1     -20.437  -5.119  -6.543  0.00  0.00     0.278 C 
ENDROOT
BRANCH   1   2
HETATM    2  C           1     -21.165  -3.880  -7.046  0.00  0.00     0.081 C 
BRANCH   2   3
HETATM    3  C           1     -21.474  -4.038  -8.502  0.00  0.00    -0.056 A 
HETATM    4  C           1     -22.767  -4.372  -8.908  0.00  0.00     0.010 A 
HETATM    5  C           1     -23.054  -4.520 -10.265  0.00  0.00     0.037 A 
HETATM    6  C           1     -22.050  -4.335 -11.216  0.00  0.00     0.065 A 
HETATM    7  C           1     -20.758  -4.002 -10.809  0.00  0.00     0.037 A 
HETATM    8  C           1     -20.470  -3.854  -9.452  0.00  0.00     0.010 A 
BRANCH   6   9
HETATM    9  O           1     -22.330  -4.479 -12.533  0.00  0.00    -0.361 OA
HETATM   10  H           1     -23.267  -4.260 -12.667  0.00  0.00     0.217 HD
ENDBRANCH   6   9
ENDBRANCH   2   3
ENDBRANCH   1   2
BRANCH   1  11
HETATM   11  N           1     -20.070  -5.990  -7.708  0.00  0.00    -0.066 N 
HETATM   12  H           1     -20.937  -6.272  -8.219  0.00  0.00     0.275 HD
HETATM   13  H           1     -19.576  -6.843  -7.362  0.00  0.00     0.275 HD
HETATM   14  H           1     -19.441  -5.462  -8.355  0.00  0.00     0.275 HD
ENDBRANCH   1  11
BRANCH   1  15
HETATM   15  C           1     -21.336  -5.886  -5.606  0.00  0.00     0.249 C 
HETATM   16  N           1     -20.799  -6.789  -4.728  0.00  0.00    -0.345 N 
HETATM   17  H           1     -19.799  -6.941  -4.706  0.00  0.00     0.163 HD
HETATM   18  O           1     -22.530  -5.706  -5.631  0.00  0.00    -0.271 OA
BRANCH  16  19
HETATM   19  C           1     -21.663  -7.526  -3.826  0.00  0.00     0.186 C 
BRANCH  19  20
HETATM   20  C           1     -21.652  -6.869  -2.469  0.00  0.00     0.196 C 
HETATM   21  O           1     -20.945  -7.340  -1.551  0.00  0.00    -0.646 OA
HETATM   22  O           1     -22.352  -5.854  -2.260  0.00  0.00    -0.646 OA
ENDBRANCH  19  20
BRANCH  19  23
HETATM   23  C           1     -21.160  -8.959  -3.700  0.00  0.00     0.046 C 
BRANCH  23  24
HETATM   24  C           1     -20.172  -9.252  -4.821  0.00  0.00     0.076 C 
BRANCH  24  25
HETATM   25  S           1     -18.561  -9.691  -4.109  0.00  0.00    -0.173 SA
HETATM   26  C           1     -19.192 -10.194  -2.484  0.00  0.00     0.089 C 
ENDBRANCH  24  25
ENDBRANCH  23  24
ENDBRANCH  19  23
ENDBRANCH  16  19
ENDBRANCH   1  15
TORSDOF 10
ENDMDL
MODEL 6
REMARK VINA RESULT:      -6.6     13.475     16.308
REMARK  10 active torsions:
REMARK  status: ('A' for Active; 'I' for Inactive)
REMARK    1  A    between atoms: C_5  and  C_20 
REMARK    2  A    between atoms: S_7  and  C_23 
REMARK    3  A    between atoms: C_8  and  C_9 
REMARK    4  A    between atoms: C_9  and  C_16 
REMARK    5  A    between atoms: C_12  and  O_25 
REMARK    6  A    between atoms: N_14  and  C_16 
REMARK    7  A    between atoms: C_16  and  C_21 
REMARK    8  A    between atoms: C_20  and  C_24 
REMARK    9  A    between atoms: C_20  and  N_22 
REMARK       I    between atoms: C_21  and  N_22 
REMARK   10  A    between atoms: C_23  and  C_24 
ROOT
HETATM    1  C           1     -33.942  -3.112 -11.503  0.00  0.00     0.278 C 
ENDROOT
BRANCH   1   2
HETATM    2  C           1     -34.976  -3.870 -10.680  0.00  0.00     0.081 C 
BRANCH   2   3
HETATM    3  C           1     -34.536  -5.291 -10.511  0.00  0.00    -0.056 A 
HETATM    4  C           1     -33.343  -5.725 -11.089  0.00  0.00     0.010 A 
HETATM    5  C           1     -32.933  -7.049 -10.932  0.00  0.00     0.037 A 
HETATM    6  C           1     -33.717  -7.939 -10.197  0.00  0.00     0.065 A 
HETATM    7  C           1     -34.910  -7.505  -9.619  0.00  0.00     0.037 A 
HETATM    8  C           1     -35.320  -6.181  -9.777  0.00  0.00     0.010 A 
BRANCH   6   9
HETATM    9  O           1     -33.319  -9.225 -10.044  0.00  0.00    -0.361 OA
HETATM   10  H           1     -32.425  -9.309 -10.415  0.00  0.00     0.217 HD
ENDBRANCH   6   9
ENDBRANCH   2   3
ENDBRANCH   1   2
BRANCH   1  11
HETATM   11  N           1     -33.266  -2.091 -10.638  0.00  0.00    -0.066 N 
HETATM   12  H           1     -33.889  -1.849  -9.834  0.00  0.00     0.275 HD
HETATM   13  H           1     -33.074  -1.231 -11.200  0.00  0.00     0.275 HD
HETATM   14  H           1     -32.366  -2.479 -10.277  0.00  0.00     0.275 HD
ENDBRANCH   1  11
BRANCH   1  15
HETATM   15  C           1     -34.625  -2.421 -12.657  0.00  0.00     0.249 C 
HETATM   16  N           1     -35.275  -1.234 -12.456  0.00  0.00    -0.345 N 
HETATM   17  H           1     -35.297  -0.817 -11.534  0.00  0.00     0.163 HD
HETATM   18  O           1     -34.601  -2.917 -13.758  0.00  0.00    -0.271 OA
BRANCH  16  19
HETATM   19  C           1     -35.932  -0.569 -13.565  0.00  0.00     0.186 C 
BRANCH  19  20
HETATM   20  C           1     -34.997   0.452 -14.165  0.00  0.00     0.196 C 
HETATM   21  O           1     -34.543   0.282 -15.318  0.00  0.00    -0.646 OA
HETATM   22  O           1     -34.676   1.467 -13.510  0.00  0.00    -0.646 OA
ENDBRANCH  19  20
BRANCH  19  23
HETATM   23  C           1     -37.191   0.128 -13.066  0.00  0.00     0.046 C 
BRANCH  23  24
HETATM   24  C           1     -37.737  -0.614 -11.853  0.00  0.00     0.076 C 
BRANCH  24  25
HETATM   25  S           1     -37.695   0.479 -10.404  0.00  0.00    -0.173 SA
HETATM   26  C           1     -36.795  -0.664  -9.319  0.00  0.00     0.089 C 
ENDBRANCH  24  25
ENDBRANCH  23  24
ENDBRANCH  19  23
ENDBRANCH  16  19
ENDBRANCH   1  15
TORSDOF 10
ENDMDL
MODEL 7
REMARK VINA RESULT:      -6.5      1.824      2.382
REMARK  10 active torsions:
REMARK  status: ('A' for Active; 'I' for Inactive)
REMARK    1  A    between atoms: C_5  and  C_20 
REMARK    2  A    between atoms: S_7  and  C_23 
REMARK    3  A    between atoms: C_8  and  C_9 
REMARK    4  A    between atoms: C_9  and  C_16 
REMARK    5  A    between atoms: C_12  and  O_25 
REMARK    6  A    between atoms: N_14  and  C_16 
REMARK    7  A    between atoms: C_16  and  C_21 
REMARK    8  A    between atoms: C_20  and  C_24 
REMARK    9  A    between atoms: C_20  and  N_22 
REMARK       I    between atoms: C_21  and  N_22 
REMARK   10  A    between atoms: C_23  and  C_24 
ROOT
HETATM    1  C           1     -20.334  -5.200  -6.541  0.00  0.00     0.278 C 
ENDROOT
BRANCH   1   2
HETATM    2  C           1     -21.063  -3.947  -7.007  0.00  0.00     0.081 C 
BRANCH   2   3
HETATM    3  C           1     -21.410  -4.081  -8.456  0.00  0.00    -0.056 A 
HETATM    4  C           1     -20.427  -3.901  -9.429  0.00  0.00     0.010 A 
HETATM    5  C           1     -20.752  -4.026 -10.780  0.00  0.00     0.037 A 
HETATM    6  C           1     -22.060  -4.329 -11.159  0.00  0.00     0.065 A 
HETATM    7  C           1     -23.043  -4.510 -10.186  0.00  0.00     0.037 A 
HETATM    8  C           1     -22.718  -4.385  -8.835  0.00  0.00     0.010 A 
BRANCH   6   9
HETATM    9  O           1     -22.375  -4.451 -12.470  0.00  0.00    -0.361 OA
HETATM   10  H           1     -23.251  -4.054 -12.607  0.00  0.00     0.217 HD
ENDBRANCH   6   9
ENDBRANCH   2   3
ENDBRANCH   1   2
BRANCH   1  11
HETATM   11  N           1     -19.996  -6.053  -7.729  0.00  0.00    -0.066 N 
HETATM   12  H           1     -19.565  -6.947  -7.403  0.00  0.00     0.275 HD
HETATM   13  H           1     -19.321  -5.543  -8.342  0.00  0.00     0.275 HD
HETATM   14  H           1     -20.867  -6.262  -8.267  0.00  0.00     0.275 HD
ENDBRANCH   1  11
BRANCH   1  15
HETATM   15  C           1     -21.220  -5.978  -5.600  0.00  0.00     0.249 C 
HETATM   16  N           1     -20.675  -6.915  -4.764  0.00  0.00    -0.345 N 
HETATM   17  H           1     -19.678  -7.087  -4.777  0.00  0.00     0.163 HD
HETATM   18  O           1     -22.410  -5.774  -5.584  0.00  0.00    -0.271 OA
BRANCH  16  19
HETATM   19  C           1     -21.527  -7.663  -3.859  0.00  0.00     0.186 C 
BRANCH  19  20
HETATM   20  C           1     -21.570  -6.969  -2.520  0.00  0.00     0.196 C 
HETATM   21  O           1     -22.387  -6.043  -2.323  0.00  0.00    -0.646 OA
HETATM   22  O           1     -20.789  -7.318  -1.609  0.00  0.00    -0.646 OA
ENDBRANCH  19  20
BRANCH  19  23
HETATM   23  C           1     -20.969  -9.070  -3.683  0.00  0.00     0.046 C 
BRANCH  23  24
HETATM   24  C           1     -22.111 -10.039  -3.406  0.00  0.00     0.076 C 
BRANCH  24  25
HETATM   25  S           1     -21.887 -10.787  -1.768  0.00  0.00    -0.173 SA
HETATM   26  C           1     -23.628 -11.229  -1.511  0.00  0.00     0.089 C 
ENDBRANCH  24  25
ENDBRANCH  23  24
ENDBRANCH  19  23
ENDBRANCH  16  19
ENDBRANCH   1  15
TORSDOF 10
ENDMDL
MODEL 8
REMARK VINA RESULT:      -6.2      2.808      3.502
REMARK  10 active torsions:
REMARK  status: ('A' for Active; 'I' for Inactive)
REMARK    1  A    between atoms: C_5  and  C_20 
REMARK    2  A    between atoms: S_7  and  C_23 
REMARK    3  A    between atoms: C_8  and  C_9 
REMARK    4  A    between atoms: C_9  and  C_16 
REMARK    5  A    between atoms: C_12  and  O_25 
REMARK    6  A    between atoms: N_14  and  C_16 
REMARK    7  A    between atoms: C_16  and  C_21 
REMARK    8  A    between atoms: C_20  and  C_24 
REMARK    9  A    between atoms: C_20  and  N_22 
REMARK       I    between atoms: C_21  and  N_22 
REMARK   10  A    between atoms: C_23  and  C_24 
ROOT
HETATM    1  C           1     -21.465  -6.223  -5.406  0.00  0.00     0.278 C 
ENDROOT
BRANCH   1   2
HETATM    2  C           1     -20.646  -5.035  -5.892  0.00  0.00     0.081 C 
BRANCH   2   3
HETATM    3  C           1     -21.122  -4.622  -7.249  0.00  0.00    -0.056 A 
HETATM    4  C           1     -22.472  -4.339  -7.458  0.00  0.00     0.010 A 
HETATM    5  C           1     -22.915  -3.954  -8.724  0.00  0.00     0.037 A 
HETATM    6  C           1     -22.010  -3.853  -9.780  0.00  0.00     0.065 A 
HETATM    7  C           1     -20.660  -4.136  -9.571  0.00  0.00     0.037 A 
HETATM    8  C           1     -20.217  -4.521  -8.305  0.00  0.00     0.010 A 
BRANCH   6   9
HETATM    9  O           1     -22.441  -3.479 -11.009  0.00  0.00    -0.361 OA
HETATM   10  H           1     -21.763  -2.905 -11.403  0.00  0.00     0.217 HD
ENDBRANCH   6   9
ENDBRANCH   2   3
ENDBRANCH   1   2
BRANCH   1  11
HETATM   11  N           1     -21.868  -6.002  -3.978  0.00  0.00    -0.066 N 
HETATM   12  H           1     -22.885  -5.765  -3.937  0.00  0.00     0.275 HD
HETATM   13  H           1     -21.310  -5.214  -3.578  0.00  0.00     0.275 HD
HETATM   14  H           1     -21.690  -6.871  -3.426  0.00  0.00     0.275 HD
ENDBRANCH   1  11
BRANCH   1  15
HETATM   15  C           1     -20.636  -7.480  -5.505  0.00  0.00     0.249 C 
HETATM   16  N           1     -21.032  -8.614  -4.848  0.00  0.00    -0.345 N 
HETATM   17  H           1     -21.880  -8.611  -4.297  0.00  0.00     0.163 HD
HETATM   18  O           1     -19.623  -7.486  -6.162  0.00  0.00    -0.271 OA
BRANCH  16  19
HETATM   19  C           1     -20.235  -9.823  -4.943  0.00  0.00     0.186 C 
BRANCH  19  20
HETATM   20  C           1     -21.089 -10.948  -5.474  0.00  0.00     0.196 C 
HETATM   21  O           1     -21.079 -11.218  -6.694  0.00  0.00    -0.646 OA
HETATM   22  O           1     -21.807 -11.609  -4.693  0.00  0.00    -0.646 OA
ENDBRANCH  19  20
BRANCH  19  23
HETATM   23  C           1     -19.708 -10.193  -3.563  0.00  0.00     0.046 C 
BRANCH  23  24
HETATM   24  C           1     -18.311 -10.787  -3.694  0.00  0.00     0.076 C 
BRANCH  24  25
HETATM   25  S           1     -17.087  -9.598  -3.077  0.00  0.00    -0.173 SA
HETATM   26  C           1     -16.090 -10.800  -2.153  0.00  0.00     0.089 C 
ENDBRANCH  24  25
ENDBRANCH  23  24
ENDBRANCH  19  23
ENDBRANCH  16  19
ENDBRANCH   1  15
TORSDOF 10
ENDMDL
MODEL 9
REMARK VINA RESULT:      -6.2      2.689      3.514
REMARK  10 active torsions:
REMARK  status: ('A' for Active; 'I' for Inactive)
REMARK    1  A    between atoms: C_5  and  C_20 
REMARK    2  A    between atoms: S_7  and  C_23 
REMARK    3  A    between atoms: C_8  and  C_9 
REMARK    4  A    between atoms: C_9  and  C_16 
REMARK    5  A    between atoms: C_12  and  O_25 
REMARK    6  A    between atoms: N_14  and  C_16 
REMARK    7  A    between atoms: C_16  and  C_21 
REMARK    8  A    between atoms: C_20  and  C_24 
REMARK    9  A    between atoms: C_20  and  N_22 
REMARK       I    between atoms: C_21  and  N_22 
REMARK   10  A    between atoms: C_23  and  C_24 
ROOT
HETATM    1  C           1     -20.923  -5.850  -5.947  0.00  0.00     0.278 C 
ENDROOT
BRANCH   1   2
HETATM    2  C           1     -20.009  -5.842  -7.166  0.00  0.00     0.081 C 
BRANCH   2   3
HETATM    3  C           1     -20.659  -5.072  -8.272  0.00  0.00    -0.056 A 
HETATM    4  C           1     -19.938  -4.766  -9.427  0.00  0.00     0.010 A 
HETATM    5  C           1     -20.544  -4.047 -10.457  0.00  0.00     0.037 A 
HETATM    6  C           1     -21.871  -3.634 -10.334  0.00  0.00     0.065 A 
HETATM    7  C           1     -22.592  -3.940  -9.180  0.00  0.00     0.037 A 
HETATM    8  C           1     -21.986  -4.659  -8.149  0.00  0.00     0.010 A 
BRANCH   6   9
HETATM    9  O           1     -22.459  -2.937 -11.335  0.00  0.00    -0.361 OA
HETATM   10  H           1     -23.370  -3.261 -11.432  0.00  0.00     0.217 HD
ENDBRANCH   6   9
ENDBRANCH   2   3
ENDBRANCH   1   2
BRANCH   1  11
HETATM   11  N           1     -20.400  -4.885  -4.925  0.00  0.00    -0.066 N 
HETATM   12  H           1     -19.756  -4.204  -5.387  0.00  0.00     0.275 HD
HETATM   13  H           1     -19.881  -5.409  -4.185  0.00  0.00     0.275 HD
HETATM   14  H           1     -21.199  -4.369  -4.491  0.00  0.00     0.275 HD
ENDBRANCH   1  11
BRANCH   1  15
HETATM   15  C           1     -20.961  -7.238  -5.356  0.00  0.00     0.249 C 
HETATM   16  N           1     -20.689  -7.423  -4.027  0.00  0.00    -0.345 N 
HETATM   17  H           1     -20.464  -6.630  -3.440  0.00  0.00     0.163 HD
HETATM   18  O           1     -21.229  -8.185  -6.055  0.00  0.00    -0.271 OA
BRANCH  16  19
HETATM   19  C           1     -20.726  -8.756  -3.458  0.00  0.00     0.186 C 
BRANCH  19  20
HETATM   20  C           1     -21.460  -8.722  -2.141  0.00  0.00     0.196 C 
HETATM   21  O           1     -21.860  -7.631  -1.677  0.00  0.00    -0.646 OA
HETATM   22  O           1     -21.669  -9.782  -1.513  0.00  0.00    -0.646 OA
ENDBRANCH  19  20
BRANCH  19  23
HETATM   23  C           1     -19.302  -9.251  -3.232  0.00  0.00     0.046 C 
BRANCH  23  24
HETATM   24  C           1     -19.015 -10.419  -4.165  0.00  0.00     0.076 C 
BRANCH  24  25
HETATM   25  S           1     -18.001  -9.848  -5.557  0.00  0.00    -0.173 SA
HETATM   26  C           1     -16.635 -11.015  -5.299  0.00  0.00     0.089 C 
ENDBRANCH  24  25
ENDBRANCH  23  24
ENDBRANCH  19  23
ENDBRANCH  16  19
ENDBRANCH   1  15
TORSDOF 10
ENDMDL
