MODEL 1
REMARK VINA RESULT:      -5.9      0.000      0.000
REMARK  8 active torsions:
REMARK  status: ('A' for Active; 'I' for Inactive)
REMARK    1  A    between atoms: N_3  and  C_19 
REMARK    2  A    between atoms: C_4  and  C_11 
REMARK    3  A    between atoms: C_4  and  S_17 
REMARK    4  A    between atoms: C_5  and  C_6 
REMARK    5  A    between atoms: C_6  and  C_15 
REMARK    6  A    between atoms: C_6  and  N_18 
REMARK    7  A    between atoms: C_11  and  C_19 
REMARK       I    between atoms: C_14  and  N_18 
REMARK    8  A    between atoms: C_14  and  C_19 
ROOT
HETATM    1  H           1     -22.344  -5.724  -9.422  0.00  0.00     0.163 HD
HETATM    2  O           1     -21.651  -3.559  -7.260  0.00  0.00    -0.271 OA
HETATM    3  C           1     -21.741  -4.658  -7.755  0.00  0.00     0.249 C 
HETATM    4  N           1     -22.269  -4.803  -9.009  0.00  0.00    -0.344 N 
ENDROOT
BRANCH   3   5
HETATM    5  C           1     -21.270  -5.870  -6.989  0.00  0.00     0.275 C 
BRANCH   5   6
HETATM    6  N           1     -19.797  -5.756  -6.730  0.00  0.00    -0.066 N 
HETATM    7  H           1     -19.278  -5.841  -7.633  0.00  0.00     0.275 HD
HETATM    8  H           1     -19.496  -6.518  -6.082  0.00  0.00     0.275 HD
HETATM    9  H           1     -19.590  -4.827  -6.296  0.00  0.00     0.275 HD
ENDBRANCH   5   6
BRANCH   5  10
HETATM   10  C           1     -22.013  -5.953  -5.662  0.00  0.00     0.053 C 
BRANCH  10  11
HETATM   11  C           1     -21.017  -5.848  -4.515  0.00  0.00     0.076 C 
BRANCH  11  12
HETATM   12  S           1     -21.303  -7.200  -3.338  0.00  0.00    -0.173 SA
HETATM   13  C           1     -22.138  -6.195  -2.078  0.00  0.00     0.089 C 
ENDBRANCH  11  12
ENDBRANCH  10  11
ENDBRANCH   5  10
ENDBRANCH   3   5
BRANCH   4  14
HETATM   14  C           1     -22.721  -3.639  -9.745  0.00  0.00     0.189 C 
BRANCH  14  15
HETATM   15  C           1     -24.180  -3.800 -10.093  0.00  0.00     0.197 C 
HETATM   16  O           1     -24.794  -4.836  -9.754  0.00  0.00    -0.646 OA
HETATM   17  O           1     -24.777  -2.898 -10.719  0.00  0.00    -0.646 OA
ENDBRANCH  14  15
BRANCH  14  18
HETATM   18  C           1     -21.906  -3.499 -11.025  0.00  0.00     0.010 C 
HETATM   19  C           1     -20.423  -3.467 -10.680  0.00  0.00     0.012 C 
HETATM   20  C           1     -22.190  -4.685 -11.938  0.00  0.00     0.012 C 
ENDBRANCH  14  18
ENDBRANCH   4  14
TORSDOF 8
ENDMDL
MODEL 2
REMARK VINA RESULT:      -5.8     10.649     13.053
REMARK  8 active torsions:
REMARK  status: ('A' for Active; 'I' for Inactive)
REMARK    1  A    between atoms: N_3  and  C_19 
REMARK    2  A    between atoms: C_4  and  C_11 
REMARK    3  A    between atoms: C_4  and  S_17 
REMARK    4  A    between atoms: C_5  and  C_6 
REMARK    5  A    between atoms: C_6  and  C_15 
REMARK    6  A    between atoms: C_6  and  N_18 
REMARK    7  A    between atoms: C_11  and  C_19 
REMARK       I    between atoms: C_14  and  N_18 
REMARK    8  A    between atoms: C_14  and  C_19 
ROOT
HETATM    1  H           1     -27.312  -7.372 -18.847  0.00  0.00     0.163 HD
HETATM    2  O           1     -24.353  -6.328 -18.873  0.00  0.00    -0.271 OA
HETATM    3  C           1     -25.332  -6.928 -19.252  0.00  0.00     0.249 C 
HETATM    4  N           1     -26.493  -6.870 -18.530  0.00  0.00    -0.344 N 
ENDROOT
BRANCH   3   5
HETATM    5  C           1     -25.273  -7.741 -20.522  0.00  0.00     0.275 C 
BRANCH   5   6
HETATM    6  N           1     -26.656  -8.183 -20.897  0.00  0.00    -0.066 N 
HETATM    7  H           1     -26.604  -9.098 -21.399  0.00  0.00     0.275 HD
HETATM    8  H           1     -27.095  -7.468 -21.520  0.00  0.00     0.275 HD
HETATM    9  H           1     -27.233  -8.292 -20.032  0.00  0.00     0.275 HD
ENDBRANCH   5   6
BRANCH   5  10
HETATM   10  C           1     -24.690  -6.891 -21.643  0.00  0.00     0.053 C 
BRANCH  10  11
HETATM   11  C           1     -23.816  -7.760 -22.538  0.00  0.00     0.076 C 
BRANCH  11  12
HETATM   12  S           1     -22.551  -8.586 -21.532  0.00  0.00    -0.173 SA
HETATM   13  C           1     -21.778  -9.501 -22.896  0.00  0.00     0.089 C 
ENDBRANCH  11  12
ENDBRANCH  10  11
ENDBRANCH   5  10
ENDBRANCH   3   5
BRANCH   4  14
HETATM   14  C           1     -26.549  -6.088 -17.310  0.00  0.00     0.189 C 
BRANCH  14  15
HETATM   15  C           1     -26.176  -6.960 -16.137  0.00  0.00     0.197 C 
HETATM   16  O           1     -24.974  -7.207 -15.898  0.00  0.00    -0.646 OA
HETATM   17  O           1     -27.069  -7.437 -15.403  0.00  0.00    -0.646 OA
ENDBRANCH  14  15
BRANCH  14  18
HETATM   18  C           1     -27.962  -5.552 -17.115  0.00  0.00     0.010 C 
HETATM   19  C           1     -27.906  -4.049 -16.877  0.00  0.00     0.012 C 
HETATM   20  C           1     -28.789  -5.838 -18.362  0.00  0.00     0.012 C 
ENDBRANCH  14  18
ENDBRANCH   4  14
TORSDOF 8
ENDMDL
MODEL 3
REMARK VINA RESULT:      -5.7     11.846     13.170
REMARK  8 active torsions:
REMARK  status: ('A' for Active; 'I' for Inactive)
REMARK    1  A    between atoms: N_3  and  C_19 
REMARK    2  A    between atoms: C_4  and  C_11 
REMARK    3  A    between atoms: C_4  and  S_17 
REMARK    4  A    between atoms: C_5  and  C_6 
REMARK    5  A    between atoms: C_6  and  C_15 
REMARK    6  A    between atoms: C_6  and  N_18 
REMARK    7  A    between atoms: C_11  and  C_19 
REMARK       I    between atoms: C_14  and  N_18 
REMARK    8  A    between atoms: C_14  and  C_19 
ROOT
HETATM    1  H           1     -27.846  -6.743 -19.594  0.00  0.00     0.163 HD
HETATM    2  O           1     -26.101  -6.208 -17.043  0.00  0.00    -0.271 OA
HETATM    3  C           1     -26.346  -6.414 -18.208  0.00  0.00     0.249 C 
HETATM    4  N           1     -27.642  -6.570 -18.618  0.00  0.00    -0.344 N 
ENDROOT
BRANCH   3   5
HETATM    5  C           1     -25.221  -6.499 -19.211  0.00  0.00     0.275 C 
BRANCH   5   6
HETATM    6  N           1     -24.238  -7.544 -18.771  0.00  0.00    -0.066 N 
HETATM    7  H           1     -24.751  -8.338 -18.328  0.00  0.00     0.275 HD
HETATM    8  H           1     -23.574  -7.129 -18.080  0.00  0.00     0.275 HD
HETATM    9  H           1     -23.706  -7.892 -19.601  0.00  0.00     0.275 HD
ENDBRANCH   5   6
BRANCH   5  10
HETATM   10  C           1     -25.783  -6.874 -20.575  0.00  0.00     0.053 C 
BRANCH  10  11
HETATM   11  C           1     -25.098  -8.138 -21.078  0.00  0.00     0.076 C 
BRANCH  11  12
HETATM   12  S           1     -24.000  -7.723 -22.461  0.00  0.00    -0.173 SA
HETATM   13  C           1     -22.539  -8.590 -21.822  0.00  0.00     0.089 C 
ENDBRANCH  11  12
ENDBRANCH  10  11
ENDBRANCH   5  10
ENDBRANCH   3   5
BRANCH   4  14
HETATM   14  C           1     -28.722  -6.487 -17.654  0.00  0.00     0.189 C 
BRANCH  14  15
HETATM   15  C           1     -29.499  -7.781 -17.658  0.00  0.00     0.197 C 
HETATM   16  O           1     -29.545  -8.486 -16.626  0.00  0.00    -0.646 OA
HETATM   17  O           1     -30.096  -8.149 -18.692  0.00  0.00    -0.646 OA
ENDBRANCH  14  15
BRANCH  14  18
HETATM   18  C           1     -29.649  -5.338 -18.028  0.00  0.00     0.010 C 
HETATM   19  C           1     -30.902  -5.395 -17.164  0.00  0.00     0.012 C 
HETATM   20  C           1     -28.933  -4.013 -17.797  0.00  0.00     0.012 C 
ENDBRANCH  14  18
ENDBRANCH   4  14
TORSDOF 8
ENDMDL
MODEL 4
REMARK VINA RESULT:      -5.6     11.157     13.020
REMARK  8 active torsions:
REMARK  status: ('A' for Active; 'I' for Inactive)
REMARK    1  A    between atoms: N_3  and  C_19 
REMARK    2  A    between atoms: C_4  and  C_11 
REMARK    3  A    between atoms: C_4  and  S_17 
REMARK    4  A    between atoms: C_5  and  C_6 
REMARK    5  A    between atoms: C_6  and  C_15 
REMARK    6  A    between atoms: C_6  and  N_18 
REMARK    7  A    between atoms: C_11  and  C_19 
REMARK       I    between atoms: C_14  and  N_18 
REMARK    8  A    between atoms: C_14  and  C_19 
ROOT
HETATM    1  H           1     -26.338  -6.372 -17.245  0.00  0.00     0.163 HD
HETATM    2  O           1     -27.198  -6.228 -20.259  0.00  0.00    -0.271 OA
HETATM    3  C           1     -26.471  -6.402 -19.310  0.00  0.00     0.249 C 
HETATM    4  N           1     -26.948  -6.227 -18.039  0.00  0.00    -0.344 N 
ENDROOT
BRANCH   3   5
HETATM    5  C           1     -25.034  -6.812 -19.527  0.00  0.00     0.275 C 
BRANCH   5   6
HETATM    6  N           1     -24.492  -7.418 -18.267  0.00  0.00    -0.066 N 
HETATM    7  H           1     -24.214  -8.408 -18.449  0.00  0.00     0.275 HD
HETATM    8  H           1     -25.226  -7.394 -17.523  0.00  0.00     0.275 HD
HETATM    9  H           1     -23.657  -6.874 -17.950  0.00  0.00     0.275 HD
ENDBRANCH   5   6
BRANCH   5  10
HETATM   10  C           1     -24.962  -7.833 -20.654  0.00  0.00     0.053 C 
BRANCH  10  11
HETATM   11  C           1     -24.442  -7.160 -21.917  0.00  0.00     0.076 C 
BRANCH  11  12
HETATM   12  S           1     -23.318  -8.288 -22.787  0.00  0.00    -0.173 SA
HETATM   13  C           1     -22.257  -8.651 -21.359  0.00  0.00     0.089 C 
ENDBRANCH  11  12
ENDBRANCH  10  11
ENDBRANCH   5  10
ENDBRANCH   3   5
BRANCH   4  14
HETATM   14  C           1     -28.328  -5.833 -17.831  0.00  0.00     0.189 C 
BRANCH  14  15
HETATM   15  C           1     -28.377  -4.396 -17.376  0.00  0.00     0.197 C 
HETATM   16  O           1     -27.501  -3.955 -16.600  0.00  0.00    -0.646 OA
HETATM   17  O           1     -29.293  -3.645 -17.773  0.00  0.00    -0.646 OA
ENDBRANCH  14  15
BRANCH  14  18
HETATM   18  C           1     -28.955  -6.725 -16.767  0.00  0.00     0.010 C 
HETATM   19  C           1     -29.670  -7.890 -17.439  0.00  0.00     0.012 C 
HETATM   20  C           1     -27.865  -7.260 -15.848  0.00  0.00     0.012 C 
ENDBRANCH  14  18
ENDBRANCH   4  14
TORSDOF 8
ENDMDL
MODEL 5
REMARK VINA RESULT:      -5.1      3.532      6.764
REMARK  8 active torsions:
REMARK  status: ('A' for Active; 'I' for Inactive)
REMARK    1  A    between atoms: N_3  and  C_19 
REMARK    2  A    between atoms: C_4  and  C_11 
REMARK    3  A    between atoms: C_4  and  S_17 
REMARK    4  A    between atoms: C_5  and  C_6 
REMARK    5  A    between atoms: C_6  and  C_15 
REMARK    6  A    between atoms: C_6  and  N_18 
REMARK    7  A    between atoms: C_11  and  C_19 
REMARK       I    between atoms: C_14  and  N_18 
REMARK    8  A    between atoms: C_14  and  C_19 
ROOT
HETATM    1  H           1     -19.788  -6.431  -4.605  0.00  0.00     0.163 HD
HETATM    2  O           1     -22.698  -5.772  -5.575  0.00  0.00    -0.271 OA
HETATM    3  C           1     -21.494  -5.688  -5.510  0.00  0.00     0.249 C 
HETATM    4  N           1     -20.795  -6.501  -4.660  0.00  0.00    -0.344 N 
ENDROOT
BRANCH   3   5
HETATM    5  C           1     -20.761  -4.686  -6.368  0.00  0.00     0.275 C 
BRANCH   5   6
HETATM    6  N           1     -19.602  -5.358  -7.043  0.00  0.00    -0.066 N 
HETATM    7  H           1     -19.913  -6.275  -7.434  0.00  0.00     0.275 HD
HETATM    8  H           1     -18.838  -5.517  -6.348  0.00  0.00     0.275 HD
HETATM    9  H           1     -19.250  -4.750  -7.816  0.00  0.00     0.275 HD
ENDBRANCH   5   6
BRANCH   5  10
HETATM   10  C           1     -21.708  -4.129  -7.422  0.00  0.00     0.053 C 
BRANCH  10  11
HETATM   11  C           1     -21.020  -4.139  -8.780  0.00  0.00     0.076 C 
BRANCH  11  12
HETATM   12  S           1     -22.261  -3.939 -10.090  0.00  0.00    -0.173 SA
HETATM   13  C           1     -23.710  -3.974  -8.998  0.00  0.00     0.089 C 
ENDBRANCH  11  12
ENDBRANCH  10  11
ENDBRANCH   5  10
ENDBRANCH   3   5
BRANCH   4  14
HETATM   14  C           1     -21.500  -7.465  -3.836  0.00  0.00     0.189 C 
BRANCH  14  15
HETATM   15  C           1     -21.622  -6.930  -2.430  0.00  0.00     0.197 C 
HETATM   16  O           1     -22.356  -5.945  -2.197  0.00  0.00    -0.646 OA
HETATM   17  O           1     -20.989  -7.471  -1.498  0.00  0.00    -0.646 OA
ENDBRANCH  14  15
BRANCH  14  18
HETATM   18  C           1     -20.726  -8.777  -3.815  0.00  0.00     0.010 C 
HETATM   19  C           1     -21.639  -9.911  -4.260  0.00  0.00     0.012 C 
HETATM   20  C           1     -19.537  -8.679  -4.762  0.00  0.00     0.012 C 
ENDBRANCH  14  18
ENDBRANCH   4  14
TORSDOF 8
ENDMDL
MODEL 6
REMARK VINA RESULT:      -5.0      5.133      8.460
REMARK  8 active torsions:
REMARK  status: ('A' for Active; 'I' for Inactive)
REMARK    1  A    between atoms: N_3  and  C_19 
REMARK    2  A    between atoms: C_4  and  C_11 
REMARK    3  A    between atoms: C_4  and  S_17 
REMARK    4  A    between atoms: C_5  and  C_6 
REMARK    5  A    between atoms: C_6  and  C_15 
REMARK    6  A    between atoms: C_6  and  N_18 
REMARK    7  A    between atoms: C_11  and  C_19 
REMARK       I    between atoms: C_14  and  N_18 
REMARK    8  A    between atoms: C_14  and  C_19 
ROOT
HETATM    1  H           1     -22.417  -8.296  -3.136  0.00  0.00     0.163 HD
HETATM    2  O           1     -19.350  -8.893  -2.862  0.00  0.00    -0.271 OA
HETATM    3  C           1     -20.378  -8.539  -3.388  0.00  0.00     0.249 C 
HETATM    4  N           1     -21.556  -8.592  -2.695  0.00  0.00    -0.344 N 
ENDROOT
BRANCH   3   5
HETATM    5  C           1     -20.362  -8.037  -4.812  0.00  0.00     0.275 C 
BRANCH   5   6
HETATM    6  N           1     -20.742  -9.153  -5.739  0.00  0.00    -0.066 N 
HETATM    7  H           1     -21.664  -8.939  -6.181  0.00  0.00     0.275 HD
HETATM    8  H           1     -20.813 -10.046  -5.200  0.00  0.00     0.275 HD
HETATM    9  H           1     -20.013  -9.251  -6.482  0.00  0.00     0.275 HD
ENDBRANCH   5   6
BRANCH   5  10
HETATM   10  C           1     -21.357  -6.894  -4.960  0.00  0.00     0.053 C 
BRANCH  10  11
HETATM   11  C           1     -20.633  -5.653  -5.464  0.00  0.00     0.076 C 
BRANCH  11  12
HETATM   12  S           1     -20.866  -5.503  -7.258  0.00  0.00    -0.173 SA
HETATM   13  C           1     -21.275  -3.734  -7.259  0.00  0.00     0.089 C 
ENDBRANCH  11  12
ENDBRANCH  10  11
ENDBRANCH   5  10
ENDBRANCH   3   5
BRANCH   4  14
HETATM   14  C           1     -21.571  -9.074  -1.327  0.00  0.00     0.189 C 
BRANCH  14  15
HETATM   15  C           1     -22.184 -10.452  -1.286  0.00  0.00     0.197 C 
HETATM   16  O           1     -23.410 -10.585  -1.077  0.00  0.00    -0.646 OA
HETATM   17  O           1     -21.468 -11.461  -1.462  0.00  0.00    -0.646 OA
ENDBRANCH  14  15
BRANCH  14  18
HETATM   18  C           1     -22.394  -8.126  -0.464  0.00  0.00     0.010 C 
HETATM   19  C           1     -21.835  -8.115   0.952  0.00  0.00     0.012 C 
HETATM   20  C           1     -22.326  -6.721  -1.048  0.00  0.00     0.012 C 
ENDBRANCH  14  18
ENDBRANCH   4  14
TORSDOF 8
ENDMDL
MODEL 7
REMARK VINA RESULT:      -5.0     18.283     20.488
REMARK  8 active torsions:
REMARK  status: ('A' for Active; 'I' for Inactive)
REMARK    1  A    between atoms: N_3  and  C_19 
REMARK    2  A    between atoms: C_4  and  C_11 
REMARK    3  A    between atoms: C_4  and  S_17 
REMARK    4  A    between atoms: C_5  and  C_6 
REMARK    5  A    between atoms: C_6  and  C_15 
REMARK    6  A    between atoms: C_6  and  N_18 
REMARK    7  A    between atoms: C_11  and  C_19 
REMARK       I    between atoms: C_14  and  N_18 
REMARK    8  A    between atoms: C_14  and  C_19 
ROOT
HETATM    1  H           1     -12.603   7.920 -21.461  0.00  0.00     0.163 HD
HETATM    2  O           1     -11.754   5.851 -19.260  0.00  0.00    -0.271 OA
HETATM    3  C           1     -12.429   6.341 -20.135  0.00  0.00     0.249 C 
HETATM    4  N           1     -12.037   7.510 -20.729  0.00  0.00    -0.344 N 
ENDROOT
BRANCH   3   5
HETATM    5  C           1     -13.705   5.663 -20.570  0.00  0.00     0.275 C 
BRANCH   5   6
HETATM    6  N           1     -13.820   5.729 -22.064  0.00  0.00    -0.066 N 
HETATM    7  H           1     -14.712   6.207 -22.323  0.00  0.00     0.275 HD
HETATM    8  H           1     -13.817   4.761 -22.458  0.00  0.00     0.275 HD
HETATM    9  H           1     -13.012   6.265 -22.453  0.00  0.00     0.275 HD
ENDBRANCH   5   6
BRANCH   5  10
HETATM   10  C           1     -13.685   4.207 -20.126  0.00  0.00     0.053 C 
BRANCH  10  11
HETATM   11  C           1     -13.241   3.328 -21.288  0.00  0.00     0.076 C 
BRANCH  11  12
HETATM   12  S           1     -11.539   2.766 -21.008  0.00  0.00    -0.173 SA
HETATM   13  C           1     -10.774   3.802 -22.287  0.00  0.00     0.089 C 
ENDBRANCH  11  12
ENDBRANCH  10  11
ENDBRANCH   5  10
ENDBRANCH   3   5
BRANCH   4  14
HETATM   14  C           1     -10.811   8.161 -20.310  0.00  0.00     0.189 C 
BRANCH  14  15
HETATM   15  C           1     -11.073   8.971 -19.064  0.00  0.00     0.197 C 
HETATM   16  O           1     -12.160   9.573 -18.926  0.00  0.00    -0.646 OA
HETATM   17  O           1     -10.203   9.039 -18.169  0.00  0.00    -0.646 OA
ENDBRANCH  14  15
BRANCH  14  18
HETATM   18  C           1     -10.320   9.081 -21.420  0.00  0.00     0.010 C 
HETATM   19  C           1      -8.798   9.117 -21.413  0.00  0.00     0.012 C 
HETATM   20  C           1     -10.810   8.560 -22.765  0.00  0.00     0.012 C 
ENDBRANCH  14  18
ENDBRANCH   4  14
TORSDOF 8
ENDMDL
MODEL 8
REMARK VINA RESULT:      -4.9      5.217      9.135
REMARK  8 active torsions:
REMARK  status: ('A' for Active; 'I' for Inactive)
REMARK    1  A    between atoms: N_3  and  C_19 
REMARK    2  A    between atoms: C_4  and  C_11 
REMARK    3  A    between atoms: C_4  and  S_17 
REMARK    4  A    between atoms: C_5  and  C_6 
REMARK    5  A    between atoms: C_6  and  C_15 
REMARK    6  A    between atoms: C_6  and  N_18 
REMARK    7  A    between atoms: C_11  and  C_19 
REMARK       I    between atoms: C_14  and  N_18 
REMARK    8  A    between atoms: C_14  and  C_19 
ROOT
HETATM    1  H           1     -21.121  -9.549  -2.291  0.00  0.00     0.163 HD
HETATM    2  O           1     -22.342  -6.780  -1.463  0.00  0.00    -0.271 OA
HETATM    3  C           1     -21.711  -7.573  -2.121  0.00  0.00     0.249 C 
HETATM    4  N           1     -21.650  -8.886  -1.740  0.00  0.00    -0.344 N 
ENDROOT
BRANCH   3   5
HETATM    5  C           1     -20.989  -7.114  -3.365  0.00  0.00     0.275 C 
BRANCH   5   6
HETATM    6  N           1     -20.189  -8.252  -3.927  0.00  0.00    -0.066 N 
HETATM    7  H           1     -20.278  -8.258  -4.968  0.00  0.00     0.275 HD
HETATM    8  H           1     -20.547  -9.154  -3.540  0.00  0.00     0.275 HD
HETATM    9  H           1     -19.184  -8.134  -3.664  0.00  0.00     0.275 HD
ENDBRANCH   5   6
BRANCH   5  10
HETATM   10  C           1     -22.004  -6.648  -4.399  0.00  0.00     0.053 C 
BRANCH  10  11
HETATM   11  C           1     -21.311  -6.459  -5.742  0.00  0.00     0.076 C 
BRANCH  11  12
HETATM   12  S           1     -20.329  -4.933  -5.708  0.00  0.00    -0.173 SA
HETATM   13  C           1     -19.814  -4.988  -7.447  0.00  0.00     0.089 C 
ENDBRANCH  11  12
ENDBRANCH  10  11
ENDBRANCH   5  10
ENDBRANCH   3   5
BRANCH   4  14
HETATM   14  C           1     -22.344  -9.326  -0.545  0.00  0.00     0.189 C 
BRANCH  14  15
HETATM   15  C           1     -21.396  -9.292   0.628  0.00  0.00     0.197 C 
HETATM   16  O           1     -21.325  -8.270   1.345  0.00  0.00    -0.646 OA
HETATM   17  O           1     -20.682 -10.285   0.884  0.00  0.00    -0.646 OA
ENDBRANCH  14  15
BRANCH  14  18
HETATM   18  C           1     -22.850 -10.749  -0.748  0.00  0.00     0.010 C 
HETATM   19  C           1     -24.175 -10.924  -0.017  0.00  0.00     0.012 C 
HETATM   20  C           1     -23.052 -11.008  -2.235  0.00  0.00     0.012 C 
ENDBRANCH  14  18
ENDBRANCH   4  14
TORSDOF 8
ENDMDL
MODEL 9
REMARK VINA RESULT:      -4.9     19.096     20.715
REMARK  8 active torsions:
REMARK  status: ('A' for Active; 'I' for Inactive)
REMARK    1  A    between atoms: N_3  and  C_19 
REMARK    2  A    between atoms: C_4  and  C_11 
REMARK    3  A    between atoms: C_4  and  S_17 
REMARK    4  A    between atoms: C_5  and  C_6 
REMARK    5  A    between atoms: C_6  and  C_15 
REMARK    6  A    between atoms: C_6  and  N_18 
REMARK    7  A    between atoms: C_11  and  C_19 
REMARK       I    between atoms: C_14  and  N_18 
REMARK    8  A    between atoms: C_14  and  C_19 
ROOT
HETATM    1  H           1     -11.943   6.723 -20.819  0.00  0.00     0.163 HD
HETATM    2  O           1      -9.057   6.028 -19.803  0.00  0.00    -0.271 OA
HETATM    3  C           1     -10.190   5.832 -20.174  0.00  0.00     0.249 C 
HETATM    4  N           1     -10.995   6.887 -20.508  0.00  0.00    -0.344 N 
ENDROOT
BRANCH   3   5
HETATM    5  C           1     -10.718   4.421 -20.271  0.00  0.00     0.275 C 
BRANCH   5   6
HETATM    6  N           1     -11.963   4.296 -19.444  0.00  0.00    -0.066 N 
HETATM    7  H           1     -12.046   5.124 -18.813  0.00  0.00     0.275 HD
HETATM    8  H           1     -11.915   3.424 -18.870  0.00  0.00     0.275 HD
HETATM    9  H           1     -12.796   4.253 -20.074  0.00  0.00     0.275 HD
ENDBRANCH   5   6
BRANCH   5  10
HETATM   10  C           1     -11.038   4.095 -21.723  0.00  0.00     0.053 C 
BRANCH  10  11
HETATM   11  C           1     -12.468   3.580 -21.825  0.00  0.00     0.076 C 
BRANCH  11  12
HETATM   12  S           1     -13.437   4.690 -22.885  0.00  0.00    -0.173 SA
HETATM   13  C           1     -14.808   4.931 -21.720  0.00  0.00     0.089 C 
ENDBRANCH  11  12
ENDBRANCH  10  11
ENDBRANCH   5  10
ENDBRANCH   3   5
BRANCH   4  14
HETATM   14  C           1     -10.487   8.243 -20.416  0.00  0.00     0.189 C 
BRANCH  14  15
HETATM   15  C           1     -10.885   8.839 -19.088  0.00  0.00     0.197 C 
HETATM   16  O           1     -12.089   9.076 -18.845  0.00  0.00    -0.646 OA
HETATM   17  O           1     -10.013   9.096 -18.231  0.00  0.00    -0.646 OA
ENDBRANCH  14  15
BRANCH  14  18
HETATM   18  C           1     -11.072   9.081 -21.545  0.00  0.00     0.010 C 
HETATM   19  C           1      -9.966   9.457 -22.522  0.00  0.00     0.012 C 
HETATM   20  C           1     -12.141   8.277 -22.273  0.00  0.00     0.012 C 
ENDBRANCH  14  18
ENDBRANCH   4  14
TORSDOF 8
ENDMDL
