MODEL 1
REMARK VINA RESULT:      -5.6      0.000      0.000
REMARK  6 active torsions:
REMARK  status: ('A' for Active; 'I' for Inactive)
REMARK    1  A    between atoms: C_5  and  C_13 
REMARK    2  A    between atoms: C_5  and  N_16 
REMARK    3  A    between atoms: C_6  and  C_7 
REMARK    4  A    between atoms: C_6  and  C_17 
REMARK    5  A    between atoms: C_6  and  N_12 
REMARK    6  A    between atoms: C_7  and  O_8 
REMARK       I    between atoms: N_12  and  C_13 
ROOT
HETATM    1  H           1     -33.964  -1.231 -14.368  0.00  0.00     0.163 HD
HETATM    2  O           1     -36.496  -1.383 -12.523  0.00  0.00    -0.271 OA
HETATM    3  N           1     -34.919  -1.076 -14.074  0.00  0.00    -0.343 N 
HETATM    4  C           1     -35.355  -1.568 -12.873  0.00  0.00     0.248 C 
ENDROOT
BRANCH   3   5
HETATM    5  C           1     -35.827  -0.332 -14.925  0.00  0.00     0.209 C 
BRANCH   5   6
HETATM    6  C           1     -35.360   1.114 -15.025  0.00  0.00     0.200 C 
BRANCH   6   7
HETATM    7  O           1     -36.173   1.807 -15.933  0.00  0.00    -0.398 OA
HETATM    8  H           1     -37.052   1.493 -15.807  0.00  0.00     0.209 HD
ENDBRANCH   6   7
ENDBRANCH   5   6
BRANCH   5   9
HETATM    9  C           1     -35.845  -0.951 -16.301  0.00  0.00     0.198 C 
HETATM   10  O           1     -34.897  -1.676 -16.673  0.00  0.00    -0.646 OA
HETATM   11  O           1     -36.808  -0.740 -17.070  0.00  0.00    -0.646 OA
ENDBRANCH   5   9
ENDBRANCH   3   5
BRANCH   4  12
HETATM   12  C           1     -34.410  -2.342 -11.987  0.00  0.00     0.270 C 
HETATM   13  C           1     -35.145  -3.526 -11.373  0.00  0.00     0.050 C 
BRANCH  12  14
HETATM   14  N           1     -33.904  -1.448 -10.895  0.00  0.00    -0.067 N 
HETATM   15  H           1     -34.154  -1.855  -9.966  0.00  0.00     0.275 HD
HETATM   16  H           1     -34.339  -0.502 -10.989  0.00  0.00     0.275 HD
HETATM   17  H           1     -32.865  -1.360 -10.969  0.00  0.00     0.275 HD
ENDBRANCH  12  14
ENDBRANCH   4  12
TORSDOF 6
ENDMDL
MODEL 2
REMARK VINA RESULT:      -5.5     13.451     14.652
REMARK  6 active torsions:
REMARK  status: ('A' for Active; 'I' for Inactive)
REMARK    1  A    between atoms: C_5  and  C_13 
REMARK    2  A    between atoms: C_5  and  N_16 
REMARK    3  A    between atoms: C_6  and  C_7 
REMARK    4  A    between atoms: C_6  and  C_17 
REMARK    5  A    between atoms: C_6  and  N_12 
REMARK    6  A    between atoms: C_7  and  O_8 
REMARK       I    between atoms: N_12  and  C_13 
ROOT
HETATM    1  H           1     -21.979  -5.777  -9.380  0.00  0.00     0.163 HD
HETATM    2  O           1     -21.651  -3.236  -7.570  0.00  0.00    -0.271 OA
HETATM    3  N           1     -22.008  -4.798  -9.125  0.00  0.00    -0.343 N 
HETATM    4  C           1     -21.615  -4.404  -7.874  0.00  0.00     0.248 C 
ENDROOT
BRANCH   3   5
HETATM    5  C           1     -22.468  -3.813 -10.085  0.00  0.00     0.209 C 
BRANCH   5   6
HETATM    6  C           1     -21.783  -4.051 -11.424  0.00  0.00     0.200 C 
BRANCH   6   7
HETATM    7  O           1     -22.722  -4.522 -12.353  0.00  0.00    -0.398 OA
HETATM    8  H           1     -23.093  -3.765 -12.775  0.00  0.00     0.209 HD
ENDBRANCH   6   7
ENDBRANCH   5   6
BRANCH   5   9
HETATM    9  C           1     -23.962  -3.936 -10.255  0.00  0.00     0.198 C 
HETATM   10  O           1     -24.538  -5.006  -9.963  0.00  0.00    -0.646 OA
HETATM   11  O           1     -24.624  -2.968 -10.685  0.00  0.00    -0.646 OA
ENDBRANCH   5   9
ENDBRANCH   3   5
BRANCH   4  12
HETATM   12  C           1     -21.137  -5.430  -6.876  0.00  0.00     0.270 C 
HETATM   13  C           1     -20.528  -4.722  -5.673  0.00  0.00     0.050 C 
BRANCH  12  14
HETATM   14  N           1     -20.102  -6.306  -7.517  0.00  0.00    -0.067 N 
HETATM   15  H           1     -20.461  -6.655  -8.434  0.00  0.00     0.275 HD
HETATM   16  H           1     -19.897  -7.117  -6.891  0.00  0.00     0.275 HD
HETATM   17  H           1     -19.227  -5.756  -7.671  0.00  0.00     0.275 HD
ENDBRANCH  12  14
ENDBRANCH   4  12
TORSDOF 6
ENDMDL
MODEL 3
REMARK VINA RESULT:      -5.4      1.769      2.310
REMARK  6 active torsions:
REMARK  status: ('A' for Active; 'I' for Inactive)
REMARK    1  A    between atoms: C_5  and  C_13 
REMARK    2  A    between atoms: C_5  and  N_16 
REMARK    3  A    between atoms: C_6  and  C_7 
REMARK    4  A    between atoms: C_6  and  C_17 
REMARK    5  A    between atoms: C_6  and  N_12 
REMARK    6  A    between atoms: C_7  and  O_8 
REMARK       I    between atoms: N_12  and  C_13 
ROOT
HETATM    1  H           1     -34.158  -1.632 -14.034  0.00  0.00     0.163 HD
HETATM    2  O           1     -35.783  -2.374 -11.457  0.00  0.00    -0.271 OA
HETATM    3  N           1     -34.821  -1.515 -13.279  0.00  0.00    -0.343 N 
HETATM    4  C           1     -34.992  -2.513 -12.357  0.00  0.00     0.248 C 
ENDROOT
BRANCH   3   5
HETATM    5  C           1     -35.589  -0.290 -13.172  0.00  0.00     0.209 C 
BRANCH   5   6
HETATM    6  C           1     -34.785   0.866 -13.751  0.00  0.00     0.200 C 
BRANCH   6   7
HETATM    7  O           1     -35.576   1.576 -14.665  0.00  0.00    -0.398 OA
HETATM    8  H           1     -36.297   1.015 -14.896  0.00  0.00     0.209 HD
ENDBRANCH   6   7
ENDBRANCH   5   6
BRANCH   5   9
HETATM    9  C           1     -36.880  -0.439 -13.940  0.00  0.00     0.198 C 
HETATM   10  O           1     -36.857  -0.797 -15.138  0.00  0.00    -0.646 OA
HETATM   11  O           1     -37.972  -0.207 -13.379  0.00  0.00    -0.646 OA
ENDBRANCH   5   9
ENDBRANCH   3   5
BRANCH   4  12
HETATM   12  C           1     -34.191  -3.788 -12.469  0.00  0.00     0.270 C 
HETATM   13  C           1     -32.932  -3.671 -11.620  0.00  0.00     0.050 C 
BRANCH  12  14
HETATM   14  N           1     -33.809  -4.013 -13.901  0.00  0.00    -0.067 N 
HETATM   15  H           1     -34.599  -4.478 -14.404  0.00  0.00     0.275 HD
HETATM   16  H           1     -32.962  -4.624 -13.944  0.00  0.00     0.275 HD
HETATM   17  H           1     -33.599  -3.096 -14.355  0.00  0.00     0.275 HD
ENDBRANCH  12  14
ENDBRANCH   4  12
TORSDOF 6
ENDMDL
MODEL 4
REMARK VINA RESULT:      -5.3     10.057     10.878
REMARK  6 active torsions:
REMARK  status: ('A' for Active; 'I' for Inactive)
REMARK    1  A    between atoms: C_5  and  C_13 
REMARK    2  A    between atoms: C_5  and  N_16 
REMARK    3  A    between atoms: C_6  and  C_7 
REMARK    4  A    between atoms: C_6  and  C_17 
REMARK    5  A    between atoms: C_6  and  N_12 
REMARK    6  A    between atoms: C_7  and  O_8 
REMARK       I    between atoms: N_12  and  C_13 
ROOT
HETATM    1  H           1     -26.668  -6.078 -17.999  0.00  0.00     0.163 HD
HETATM    2  O           1     -25.937  -7.440 -15.270  0.00  0.00    -0.271 OA
HETATM    3  N           1     -26.815  -6.457 -17.072  0.00  0.00    -0.343 N 
HETATM    4  C           1     -25.762  -6.987 -16.376  0.00  0.00     0.248 C 
ENDROOT
BRANCH   3   5
HETATM    5  C           1     -28.139  -6.439 -16.483  0.00  0.00     0.209 C 
BRANCH   5   6
HETATM    6  C           1     -28.426  -5.054 -15.919  0.00  0.00     0.200 C 
BRANCH   6   7
HETATM    7  O           1     -27.789  -4.086 -16.709  0.00  0.00    -0.398 OA
HETATM    8  H           1     -27.034  -3.793 -16.225  0.00  0.00     0.209 HD
ENDBRANCH   6   7
ENDBRANCH   5   6
BRANCH   5   9
HETATM    9  C           1     -29.163  -6.774 -17.539  0.00  0.00     0.198 C 
HETATM   10  O           1     -29.675  -7.914 -17.574  0.00  0.00    -0.646 OA
HETATM   11  O           1     -29.500  -5.912 -18.379  0.00  0.00    -0.646 OA
ENDBRANCH   5   9
ENDBRANCH   3   5
BRANCH   4  12
HETATM   12  C           1     -24.383  -7.005 -16.990  0.00  0.00     0.270 C 
HETATM   13  C           1     -24.505  -7.054 -18.507  0.00  0.00     0.050 C 
BRANCH  12  14
HETATM   14  N           1     -23.639  -8.215 -16.510  0.00  0.00    -0.067 N 
HETATM   15  H           1     -22.998  -7.943 -15.731  0.00  0.00     0.275 HD
HETATM   16  H           1     -23.080  -8.616 -17.297  0.00  0.00     0.275 HD
HETATM   17  H           1     -24.320  -8.930 -16.168  0.00  0.00     0.275 HD
ENDBRANCH  12  14
ENDBRANCH   4  12
TORSDOF 6
ENDMDL
MODEL 5
REMARK VINA RESULT:      -5.3     12.997     14.202
REMARK  6 active torsions:
REMARK  status: ('A' for Active; 'I' for Inactive)
REMARK    1  A    between atoms: C_5  and  C_13 
REMARK    2  A    between atoms: C_5  and  N_16 
REMARK    3  A    between atoms: C_6  and  C_7 
REMARK    4  A    between atoms: C_6  and  C_17 
REMARK    5  A    between atoms: C_6  and  N_12 
REMARK    6  A    between atoms: C_7  and  O_8 
REMARK       I    between atoms: N_12  and  C_13 
ROOT
HETATM    1  H           1     -21.439  -3.871  -9.731  0.00  0.00     0.163 HD
HETATM    2  O           1     -23.137  -4.528  -7.177  0.00  0.00    -0.271 OA
HETATM    3  N           1     -22.247  -4.147  -9.189  0.00  0.00    -0.343 N 
HETATM    4  C           1     -22.172  -4.196  -7.823  0.00  0.00     0.248 C 
ENDROOT
BRANCH   3   5
HETATM    5  C           1     -23.486  -4.493  -9.860  0.00  0.00     0.209 C 
BRANCH   5   6
HETATM    6  C           1     -24.479  -3.348  -9.714  0.00  0.00     0.200 C 
BRANCH   6   7
HETATM    7  O           1     -25.145  -3.148 -10.931  0.00  0.00    -0.398 OA
HETATM    8  H           1     -24.629  -2.536 -11.428  0.00  0.00     0.209 HD
ENDBRANCH   6   7
ENDBRANCH   5   6
BRANCH   5   9
HETATM    9  C           1     -23.212  -4.737 -11.324  0.00  0.00     0.198 C 
HETATM   10  O           1     -22.357  -4.050 -11.923  0.00  0.00    -0.646 OA
HETATM   11  O           1     -23.838  -5.629 -11.936  0.00  0.00    -0.646 OA
ENDBRANCH   5   9
ENDBRANCH   3   5
BRANCH   4  12
HETATM   12  C           1     -20.883  -3.837  -7.125  0.00  0.00     0.270 C 
HETATM   13  C           1     -19.718  -4.011  -8.091  0.00  0.00     0.050 C 
BRANCH  12  14
HETATM   14  N           1     -20.689  -4.736  -5.941  0.00  0.00    -0.067 N 
HETATM   15  H           1     -19.838  -5.326  -6.087  0.00  0.00     0.275 HD
HETATM   16  H           1     -21.525  -5.352  -5.831  0.00  0.00     0.275 HD
HETATM   17  H           1     -20.568  -4.157  -5.080  0.00  0.00     0.275 HD
ENDBRANCH  12  14
ENDBRANCH   4  12
TORSDOF 6
ENDMDL
MODEL 6
REMARK VINA RESULT:      -5.2      8.483      9.744
REMARK  6 active torsions:
REMARK  status: ('A' for Active; 'I' for Inactive)
REMARK    1  A    between atoms: C_5  and  C_13 
REMARK    2  A    between atoms: C_5  and  N_16 
REMARK    3  A    between atoms: C_6  and  C_7 
REMARK    4  A    between atoms: C_6  and  C_17 
REMARK    5  A    between atoms: C_6  and  N_12 
REMARK    6  A    between atoms: C_7  and  O_8 
REMARK       I    between atoms: N_12  and  C_13 
ROOT
HETATM    1  H           1     -28.228  -4.278 -17.215  0.00  0.00     0.163 HD
HETATM    2  O           1     -30.487  -6.452 -17.115  0.00  0.00    -0.271 OA
HETATM    3  N           1     -28.641  -5.202 -17.231  0.00  0.00    -0.343 N 
HETATM    4  C           1     -29.995  -5.349 -17.096  0.00  0.00     0.248 C 
ENDROOT
BRANCH   3   5
HETATM    5  C           1     -27.796  -6.369 -17.395  0.00  0.00     0.209 C 
BRANCH   5   6
HETATM    6  C           1     -27.068  -6.285 -18.729  0.00  0.00     0.200 C 
BRANCH   6   7
HETATM    7  O           1     -25.725  -6.648 -18.554  0.00  0.00    -0.398 OA
HETATM    8  H           1     -25.267  -5.873 -18.272  0.00  0.00     0.209 HD
ENDBRANCH   6   7
ENDBRANCH   5   6
BRANCH   5   9
HETATM    9  C           1     -26.788  -6.421 -16.274  0.00  0.00     0.198 C 
HETATM   10  O           1     -26.770  -7.399 -15.494  0.00  0.00    -0.646 OA
HETATM   11  O           1     -25.970  -5.488 -16.124  0.00  0.00    -0.646 OA
ENDBRANCH   5   9
ENDBRANCH   3   5
BRANCH   4  12
HETATM   12  C           1     -30.873  -4.134 -16.925  0.00  0.00     0.270 C 
HETATM   13  C           1     -32.331  -4.568 -16.850  0.00  0.00     0.050 C 
BRANCH  12  14
HETATM   14  N           1     -30.686  -3.214 -18.095  0.00  0.00    -0.067 N 
HETATM   15  H           1     -31.613  -2.837 -18.394  0.00  0.00     0.275 HD
HETATM   16  H           1     -30.251  -3.740 -18.886  0.00  0.00     0.275 HD
HETATM   17  H           1     -30.060  -2.423 -17.819  0.00  0.00     0.275 HD
ENDBRANCH  12  14
ENDBRANCH   4  12
TORSDOF 6
ENDMDL
MODEL 7
REMARK VINA RESULT:      -5.1      3.119      4.005
REMARK  6 active torsions:
REMARK  status: ('A' for Active; 'I' for Inactive)
REMARK    1  A    between atoms: C_5  and  C_13 
REMARK    2  A    between atoms: C_5  and  N_16 
REMARK    3  A    between atoms: C_6  and  C_7 
REMARK    4  A    between atoms: C_6  and  C_17 
REMARK    5  A    between atoms: C_6  and  N_12 
REMARK    6  A    between atoms: C_7  and  O_8 
REMARK       I    between atoms: N_12  and  C_13 
ROOT
HETATM    1  H           1     -35.314   0.780 -10.612  0.00  0.00     0.163 HD
HETATM    2  O           1     -37.859  -1.025 -10.935  0.00  0.00    -0.271 OA
HETATM    3  N           1     -35.958   0.140 -11.059  0.00  0.00    -0.343 N 
HETATM    4  C           1     -37.091  -0.260 -10.402  0.00  0.00     0.248 C 
ENDROOT
BRANCH   3   5
HETATM    5  C           1     -35.681  -0.354 -12.394  0.00  0.00     0.209 C 
BRANCH   5   6
HETATM    6  C           1     -35.024   0.747 -13.216  0.00  0.00     0.200 C 
BRANCH   6   7
HETATM    7  O           1     -34.607   0.226 -14.449  0.00  0.00    -0.398 OA
HETATM    8  H           1     -33.920  -0.392 -14.266  0.00  0.00     0.209 HD
ENDBRANCH   6   7
ENDBRANCH   5   6
BRANCH   5   9
HETATM    9  C           1     -34.752  -1.540 -12.307  0.00  0.00     0.198 C 
HETATM   10  O           1     -33.987  -1.664 -11.326  0.00  0.00    -0.646 OA
HETATM   11  O           1     -34.748  -2.398 -13.215  0.00  0.00    -0.646 OA
ENDBRANCH   5   9
ENDBRANCH   3   5
BRANCH   4  12
HETATM   12  C           1     -37.379   0.254  -9.013  0.00  0.00     0.270 C 
HETATM   13  C           1     -38.075   1.605  -9.106  0.00  0.00     0.050 C 
BRANCH  12  14
HETATM   14  N           1     -36.091   0.406  -8.260  0.00  0.00    -0.067 N 
HETATM   15  H           1     -36.269   0.289  -7.237  0.00  0.00     0.275 HD
HETATM   16  H           1     -35.694   1.357  -8.438  0.00  0.00     0.275 HD
HETATM   17  H           1     -35.411  -0.320  -8.581  0.00  0.00     0.275 HD
ENDBRANCH  12  14
ENDBRANCH   4  12
TORSDOF 6
ENDMDL
MODEL 8
REMARK VINA RESULT:      -5.0      2.569      5.270
REMARK  6 active torsions:
REMARK  status: ('A' for Active; 'I' for Inactive)
REMARK    1  A    between atoms: C_5  and  C_13 
REMARK    2  A    between atoms: C_5  and  N_16 
REMARK    3  A    between atoms: C_6  and  C_7 
REMARK    4  A    between atoms: C_6  and  C_17 
REMARK    5  A    between atoms: C_6  and  N_12 
REMARK    6  A    between atoms: C_7  and  O_8 
REMARK       I    between atoms: N_12  and  C_13 
ROOT
HETATM    1  H           1     -35.110  -0.015 -12.387  0.00  0.00     0.163 HD
HETATM    2  O           1     -37.896  -0.699 -13.654  0.00  0.00    -0.271 OA
HETATM    3  N           1     -36.062  -0.356 -12.429  0.00  0.00    -0.343 N 
HETATM    4  C           1     -36.760  -0.293 -13.604  0.00  0.00     0.248 C 
ENDROOT
BRANCH   3   5
HETATM    5  C           1     -36.685  -0.912 -11.243  0.00  0.00     0.209 C 
BRANCH   5   6
HETATM    6  C           1     -35.729  -1.894 -10.580  0.00  0.00     0.200 C 
BRANCH   6   7
HETATM    7  O           1     -34.418  -1.406 -10.670  0.00  0.00    -0.398 OA
HETATM    8  H           1     -33.957  -1.720  -9.911  0.00  0.00     0.209 HD
ENDBRANCH   6   7
ENDBRANCH   5   6
BRANCH   5   9
HETATM    9  C           1     -37.011   0.202 -10.279  0.00  0.00     0.198 C 
HETATM   10  O           1     -36.219   0.479  -9.352  0.00  0.00    -0.646 OA
HETATM   11  O           1     -38.072   0.850 -10.407  0.00  0.00    -0.646 OA
ENDBRANCH   5   9
ENDBRANCH   3   5
BRANCH   4  12
HETATM   12  C           1     -36.111   0.285 -14.838  0.00  0.00     0.270 C 
HETATM   13  C           1     -34.979   1.216 -14.425  0.00  0.00     0.050 C 
BRANCH  12  14
HETATM   14  N           1     -37.130   1.055 -15.624  0.00  0.00    -0.067 N 
HETATM   15  H           1     -36.880   2.070 -15.618  0.00  0.00     0.275 HD
HETATM   16  H           1     -38.073   0.926 -15.193  0.00  0.00     0.275 HD
HETATM   17  H           1     -37.147   0.706 -16.609  0.00  0.00     0.275 HD
ENDBRANCH  12  14
ENDBRANCH   4  12
TORSDOF 6
ENDMDL
MODEL 9
REMARK VINA RESULT:      -4.6      8.227      9.504
REMARK  6 active torsions:
REMARK  status: ('A' for Active; 'I' for Inactive)
REMARK    1  A    between atoms: C_5  and  C_13 
REMARK    2  A    between atoms: C_5  and  N_16 
REMARK    3  A    between atoms: C_6  and  C_7 
REMARK    4  A    between atoms: C_6  and  C_17 
REMARK    5  A    between atoms: C_6  and  N_12 
REMARK    6  A    between atoms: C_7  and  O_8 
REMARK       I    between atoms: N_12  and  C_13 
ROOT
HETATM    1  H           1     -28.503  -4.260 -17.468  0.00  0.00     0.163 HD
HETATM    2  O           1     -30.723  -6.423 -16.989  0.00  0.00    -0.271 OA
HETATM    3  N           1     -28.909  -5.183 -17.383  0.00  0.00    -0.343 N 
HETATM    4  C           1     -30.240  -5.321 -17.092  0.00  0.00     0.248 C 
ENDROOT
BRANCH   3   5
HETATM    5  C           1     -28.080  -6.359 -17.567  0.00  0.00     0.209 C 
BRANCH   5   6
HETATM    6  C           1     -28.166  -6.819 -19.016  0.00  0.00     0.200 C 
BRANCH   6   7
HETATM    7  O           1     -28.969  -7.965 -19.097  0.00  0.00    -0.398 OA
HETATM    8  H           1     -29.854  -7.669 -19.230  0.00  0.00     0.209 HD
ENDBRANCH   6   7
ENDBRANCH   5   6
BRANCH   5   9
HETATM    9  C           1     -26.649  -6.022 -17.229  0.00  0.00     0.198 C 
HETATM   10  O           1     -26.388  -5.357 -16.203  0.00  0.00    -0.646 OA
HETATM   11  O           1     -25.723  -6.409 -17.974  0.00  0.00    -0.646 OA
ENDBRANCH   5   9
ENDBRANCH   3   5
BRANCH   4  12
HETATM   12  C           1     -31.101  -4.097 -16.901  0.00  0.00     0.270 C 
HETATM   13  C           1     -32.564  -4.513 -16.831  0.00  0.00     0.050 C 
BRANCH  12  14
HETATM   14  N           1     -30.902  -3.162 -18.056  0.00  0.00    -0.067 N 
HETATM   15  H           1     -31.825  -2.768 -18.349  0.00  0.00     0.275 HD
HETATM   16  H           1     -30.476  -3.682 -18.856  0.00  0.00     0.275 HD
HETATM   17  H           1     -30.266  -2.384 -17.769  0.00  0.00     0.275 HD
ENDBRANCH  12  14
ENDBRANCH   4  12
TORSDOF 6
ENDMDL
