MODEL 1
REMARK VINA RESULT:      -7.3      0.000      0.000
REMARK  8 active torsions:
REMARK  status: ('A' for Active; 'I' for Inactive)
REMARK    1  A    between atoms: C_3  and  C_21 
REMARK    2  A    between atoms: N_4  and  C_22 
REMARK    3  A    between atoms: N_6  and  C_23 
REMARK       I    between atoms: N_6  and  C_19 
REMARK    4  A    between atoms: C_12  and  C_16 
REMARK    5  A    between atoms: C_16  and  C_22 
REMARK    6  A    between atoms: C_19  and  C_22 
REMARK    7  A    between atoms: C_21  and  C_23 
REMARK    8  A    between atoms: C_23  and  C_24 
ROOT
HETATM    1  O           1     -20.353  -5.155  -5.906  0.00  0.00    -0.271 OA
HETATM    2  N           1     -21.692  -6.847  -5.329  0.00  0.00    -0.344 N 
HETATM    3  H           1     -22.584  -7.311  -5.441  0.00  0.00     0.163 HD
HETATM    4  C           1     -21.418  -5.709  -6.040  0.00  0.00     0.249 C 
ENDROOT
BRANCH   4   5
HETATM    5  C           1     -22.447  -5.148  -6.991  0.00  0.00     0.278 C 
BRANCH   5   6
HETATM    6  N           1     -23.720  -4.878  -6.247  0.00  0.00    -0.066 N 
HETATM    7  H           1     -24.428  -4.477  -6.902  0.00  0.00     0.275 HD
HETATM    8  H           1     -24.085  -5.770  -5.844  0.00  0.00     0.275 HD
HETATM    9  H           1     -23.535  -4.198  -5.475  0.00  0.00     0.275 HD
ENDBRANCH   5   6
BRANCH   5  10
HETATM   10  C           1     -21.927  -3.850  -7.594  0.00  0.00     0.081 C 
BRANCH  10  11
HETATM   11  C           1     -21.806  -4.002  -9.079  0.00  0.00    -0.056 A 
HETATM   12  C           1     -22.941  -4.256  -9.848  0.00  0.00     0.007 A 
HETATM   13  C           1     -22.829  -4.399 -11.231  0.00  0.00     0.001 A 
HETATM   14  C           1     -21.581  -4.288 -11.844  0.00  0.00     0.000 A 
HETATM   15  C           1     -20.446  -4.035 -11.075  0.00  0.00     0.001 A 
HETATM   16  C           1     -20.558  -3.892  -9.691  0.00  0.00     0.007 A 
ENDBRANCH  10  11
ENDBRANCH   5  10
ENDBRANCH   4   5
BRANCH   2  17
HETATM   17  C           1     -20.703  -7.386  -4.415  0.00  0.00     0.189 C 
BRANCH  17  18
HETATM   18  C           1     -21.369  -7.721  -3.086  0.00  0.00     0.014 C 
HETATM   19  C           1     -20.335  -8.316  -2.138  0.00  0.00     0.012 C 
BRANCH  18  20
HETATM   20  C           1     -21.948  -6.453  -2.474  0.00  0.00     0.002 C 
HETATM   21  C           1     -22.349  -6.723  -1.030  0.00  0.00     0.005 C 
ENDBRANCH  18  20
ENDBRANCH  17  18
BRANCH  17  22
HETATM   22  C           1     -20.104  -8.638  -5.006  0.00  0.00     0.197 C 
HETATM   23  O           1     -20.846  -9.506  -5.515  0.00  0.00    -0.646 OA
HETATM   24  O           1     -18.867  -8.809  -4.987  0.00  0.00    -0.646 OA
ENDBRANCH  17  22
ENDBRANCH   2  17
TORSDOF 8
ENDMDL
MODEL 2
REMARK VINA RESULT:      -7.0      2.023      2.997
REMARK  8 active torsions:
REMARK  status: ('A' for Active; 'I' for Inactive)
REMARK    1  A    between atoms: C_3  and  C_21 
REMARK    2  A    between atoms: N_4  and  C_22 
REMARK    3  A    between atoms: N_6  and  C_23 
REMARK       I    between atoms: N_6  and  C_19 
REMARK    4  A    between atoms: C_12  and  C_16 
REMARK    5  A    between atoms: C_16  and  C_22 
REMARK    6  A    between atoms: C_19  and  C_22 
REMARK    7  A    between atoms: C_21  and  C_23 
REMARK    8  A    between atoms: C_23  and  C_24 
ROOT
HETATM    1  O           1     -22.903  -5.995  -5.357  0.00  0.00    -0.271 OA
HETATM    2  N           1     -20.961  -6.699  -4.509  0.00  0.00    -0.344 N 
HETATM    3  H           1     -19.951  -6.639  -4.515  0.00  0.00     0.163 HD
HETATM    4  C           1     -21.697  -5.923  -5.364  0.00  0.00     0.249 C 
ENDROOT
BRANCH   4   5
HETATM    5  C           1     -21.003  -4.978  -6.313  0.00  0.00     0.278 C 
BRANCH   5   6
HETATM    6  N           1     -19.752  -4.456  -5.673  0.00  0.00    -0.066 N 
HETATM    7  H           1     -19.111  -4.085  -6.411  0.00  0.00     0.275 HD
HETATM    8  H           1     -19.994  -3.690  -5.005  0.00  0.00     0.275 HD
HETATM    9  H           1     -19.276  -5.230  -5.156  0.00  0.00     0.275 HD
ENDBRANCH   5   6
BRANCH   5  10
HETATM   10  C           1     -20.646  -5.717  -7.596  0.00  0.00     0.081 C 
BRANCH  10  11
HETATM   11  C           1     -21.061  -4.897  -8.778  0.00  0.00    -0.056 A 
HETATM   12  C           1     -20.149  -4.637  -9.800  0.00  0.00     0.007 A 
HETATM   13  C           1     -20.534  -3.872 -10.901  0.00  0.00     0.001 A 
HETATM   14  C           1     -21.832  -3.366 -10.979  0.00  0.00     0.000 A 
HETATM   15  C           1     -22.743  -3.625  -9.955  0.00  0.00     0.001 A 
HETATM   16  C           1     -22.358  -4.390  -8.854  0.00  0.00     0.007 A 
ENDBRANCH  10  11
ENDBRANCH   5  10
ENDBRANCH   4   5
BRANCH   2  17
HETATM   17  C           1     -21.628  -7.607  -3.597  0.00  0.00     0.189 C 
BRANCH  17  18
HETATM   18  C           1     -20.864  -8.924  -3.540  0.00  0.00     0.014 C 
HETATM   19  C           1     -21.704 -10.024  -4.177  0.00  0.00     0.012 C 
BRANCH  18  20
HETATM   20  C           1     -19.552  -8.784  -4.300  0.00  0.00     0.002 C 
HETATM   21  C           1     -18.410  -9.313  -3.444  0.00  0.00     0.005 C 
ENDBRANCH  18  20
ENDBRANCH  17  18
BRANCH  17  22
HETATM   22  C           1     -21.672  -6.993  -2.220  0.00  0.00     0.197 C 
HETATM   23  O           1     -21.055  -7.532  -1.275  0.00  0.00    -0.646 OA
HETATM   24  O           1     -22.324  -5.945  -2.022  0.00  0.00    -0.646 OA
ENDBRANCH  17  22
ENDBRANCH   2  17
TORSDOF 8
ENDMDL
MODEL 3
REMARK VINA RESULT:      -6.7      1.660      7.194
REMARK  8 active torsions:
REMARK  status: ('A' for Active; 'I' for Inactive)
REMARK    1  A    between atoms: C_3  and  C_21 
REMARK    2  A    between atoms: N_4  and  C_22 
REMARK    3  A    between atoms: N_6  and  C_23 
REMARK       I    between atoms: N_6  and  C_19 
REMARK    4  A    between atoms: C_12  and  C_16 
REMARK    5  A    between atoms: C_16  and  C_22 
REMARK    6  A    between atoms: C_19  and  C_22 
REMARK    7  A    between atoms: C_21  and  C_23 
REMARK    8  A    between atoms: C_23  and  C_24 
ROOT
HETATM    1  O           1     -20.590  -6.737  -7.192  0.00  0.00    -0.271 OA
HETATM    2  N           1     -21.868  -4.933  -7.510  0.00  0.00    -0.344 N 
HETATM    3  H           1     -22.477  -4.232  -7.108  0.00  0.00     0.163 HD
HETATM    4  C           1     -21.316  -5.899  -6.712  0.00  0.00     0.249 C 
ENDROOT
BRANCH   4   5
HETATM    5  C           1     -21.616  -5.918  -5.233  0.00  0.00     0.278 C 
BRANCH   5   6
HETATM    6  N           1     -23.073  -6.197  -5.022  0.00  0.00    -0.066 N 
HETATM    7  H           1     -23.315  -6.049  -4.016  0.00  0.00     0.275 HD
HETATM    8  H           1     -23.642  -5.551  -5.615  0.00  0.00     0.275 HD
HETATM    9  H           1     -23.281  -7.186  -5.288  0.00  0.00     0.275 HD
ENDBRANCH   5   6
BRANCH   5  10
HETATM   10  C           1     -20.788  -7.006  -4.561  0.00  0.00     0.081 C 
BRANCH  10  11
HETATM   11  C           1     -21.310  -7.247  -3.178  0.00  0.00    -0.056 A 
HETATM   12  C           1     -21.372  -8.546  -2.674  0.00  0.00     0.007 A 
HETATM   13  C           1     -21.858  -8.772  -1.386  0.00  0.00     0.001 A 
HETATM   14  C           1     -22.283  -7.698  -0.603  0.00  0.00     0.000 A 
HETATM   15  C           1     -22.222  -6.400  -1.108  0.00  0.00     0.001 A 
HETATM   16  C           1     -21.735  -6.174  -2.396  0.00  0.00     0.007 A 
ENDBRANCH  10  11
ENDBRANCH   5  10
ENDBRANCH   4   5
BRANCH   2  17
HETATM   17  C           1     -21.581  -4.915  -8.931  0.00  0.00     0.189 C 
BRANCH  17  18
HETATM   18  C           1     -22.563  -3.988  -9.637  0.00  0.00     0.014 C 
HETATM   19  C           1     -22.835  -4.514 -11.041  0.00  0.00     0.012 C 
BRANCH  18  20
HETATM   20  C           1     -23.867  -3.937  -8.853  0.00  0.00     0.002 C 
HETATM   21  C           1     -24.942  -3.269  -9.698  0.00  0.00     0.005 C 
ENDBRANCH  18  20
ENDBRANCH  17  18
BRANCH  17  22
HETATM   22  C           1     -20.174  -4.417  -9.152  0.00  0.00     0.197 C 
HETATM   23  O           1     -19.659  -3.618  -8.340  0.00  0.00    -0.646 OA
HETATM   24  O           1     -19.523  -4.803 -10.147  0.00  0.00    -0.646 OA
ENDBRANCH  17  22
ENDBRANCH   2  17
TORSDOF 8
ENDMDL
MODEL 4
REMARK VINA RESULT:      -6.6      2.207      7.328
REMARK  8 active torsions:
REMARK  status: ('A' for Active; 'I' for Inactive)
REMARK    1  A    between atoms: C_3  and  C_21 
REMARK    2  A    between atoms: N_4  and  C_22 
REMARK    3  A    between atoms: N_6  and  C_23 
REMARK       I    between atoms: N_6  and  C_19 
REMARK    4  A    between atoms: C_12  and  C_16 
REMARK    5  A    between atoms: C_16  and  C_22 
REMARK    6  A    between atoms: C_19  and  C_22 
REMARK    7  A    between atoms: C_21  and  C_23 
REMARK    8  A    between atoms: C_23  and  C_24 
ROOT
HETATM    1  O           1     -21.762  -3.890  -6.375  0.00  0.00    -0.271 OA
HETATM    2  N           1     -22.195  -5.310  -8.044  0.00  0.00    -0.344 N 
HETATM    3  H           1     -22.317  -6.269  -8.344  0.00  0.00     0.163 HD
HETATM    4  C           1     -21.909  -5.035  -6.733  0.00  0.00     0.249 C 
ENDROOT
BRANCH   4   5
HETATM    5  C           1     -21.777  -6.160  -5.737  0.00  0.00     0.278 C 
BRANCH   5   6
HETATM    6  N           1     -21.164  -7.352  -6.408  0.00  0.00    -0.066 N 
HETATM    7  H           1     -20.427  -7.035  -7.078  0.00  0.00     0.275 HD
HETATM    8  H           1     -20.734  -7.977  -5.688  0.00  0.00     0.275 HD
HETATM    9  H           1     -21.903  -7.878  -6.927  0.00  0.00     0.275 HD
ENDBRANCH   5   6
BRANCH   5  10
HETATM   10  C           1     -20.888  -5.716  -4.582  0.00  0.00     0.081 C 
BRANCH  10  11
HETATM   11  C           1     -21.210  -6.524  -3.364  0.00  0.00    -0.056 A 
HETATM   12  C           1     -20.672  -7.803  -3.215  0.00  0.00     0.007 A 
HETATM   13  C           1     -20.972  -8.557  -2.080  0.00  0.00     0.001 A 
HETATM   14  C           1     -21.810  -8.033  -1.096  0.00  0.00     0.000 A 
HETATM   15  C           1     -22.348  -6.755  -1.247  0.00  0.00     0.001 A 
HETATM   16  C           1     -22.048  -6.000  -2.381  0.00  0.00     0.007 A 
ENDBRANCH  10  11
ENDBRANCH   5  10
ENDBRANCH   4   5
BRANCH   2  17
HETATM   17  C           1     -22.322  -4.229  -9.001  0.00  0.00     0.189 C 
BRANCH  17  18
HETATM   18  C           1     -21.391  -4.482 -10.181  0.00  0.00     0.014 C 
HETATM   19  C           1     -21.369  -3.254 -11.081  0.00  0.00     0.012 C 
BRANCH  18  20
HETATM   20  C           1     -19.984  -4.761  -9.669  0.00  0.00     0.002 C 
HETATM   21  C           1     -19.479  -3.555  -8.889  0.00  0.00     0.005 C 
ENDBRANCH  18  20
ENDBRANCH  17  18
BRANCH  17  22
HETATM   22  C           1     -23.746  -4.158  -9.492  0.00  0.00     0.197 C 
HETATM   23  O           1     -24.218  -5.089 -10.179  0.00  0.00    -0.646 OA
HETATM   24  O           1     -24.455  -3.167  -9.213  0.00  0.00    -0.646 OA
ENDBRANCH  17  22
ENDBRANCH   2  17
TORSDOF 8
ENDMDL
MODEL 5
REMARK VINA RESULT:      -6.5      1.767      2.585
REMARK  8 active torsions:
REMARK  status: ('A' for Active; 'I' for Inactive)
REMARK    1  A    between atoms: C_3  and  C_21 
REMARK    2  A    between atoms: N_4  and  C_22 
REMARK    3  A    between atoms: N_6  and  C_23 
REMARK       I    between atoms: N_6  and  C_19 
REMARK    4  A    between atoms: C_12  and  C_16 
REMARK    5  A    between atoms: C_16  and  C_22 
REMARK    6  A    between atoms: C_19  and  C_22 
REMARK    7  A    between atoms: C_21  and  C_23 
REMARK    8  A    between atoms: C_23  and  C_24 
ROOT
HETATM    1  O           1     -19.493  -7.384  -6.405  0.00  0.00    -0.271 OA
HETATM    2  N           1     -20.454  -8.259  -4.588  0.00  0.00    -0.344 N 
HETATM    3  H           1     -21.187  -8.200  -3.893  0.00  0.00     0.163 HD
HETATM    4  C           1     -20.369  -7.314  -5.576  0.00  0.00     0.249 C 
ENDROOT
BRANCH   4   5
HETATM    5  C           1     -21.370  -6.185  -5.628  0.00  0.00     0.278 C 
BRANCH   5   6
HETATM    6  N           1     -22.008  -6.021  -4.282  0.00  0.00    -0.066 N 
HETATM    7  H           1     -21.270  -6.031  -3.543  0.00  0.00     0.275 HD
HETATM    8  H           1     -22.522  -5.112  -4.248  0.00  0.00     0.275 HD
HETATM    9  H           1     -22.678  -6.806  -4.116  0.00  0.00     0.275 HD
ENDBRANCH   5   6
BRANCH   5  10
HETATM   10  C           1     -20.660  -4.894  -6.014  0.00  0.00     0.081 C 
BRANCH  10  11
HETATM   11  C           1     -21.015  -4.530  -7.422  0.00  0.00    -0.056 A 
HETATM   12  C           1     -20.041  -4.572  -8.419  0.00  0.00     0.007 A 
HETATM   13  C           1     -20.372  -4.232  -9.732  0.00  0.00     0.001 A 
HETATM   14  C           1     -21.676  -3.850 -10.045  0.00  0.00     0.000 A 
HETATM   15  C           1     -22.649  -3.807  -9.047  0.00  0.00     0.001 A 
HETATM   16  C           1     -22.319  -4.147  -7.735  0.00  0.00     0.007 A 
ENDBRANCH  10  11
ENDBRANCH   5  10
ENDBRANCH   4   5
BRANCH   2  17
HETATM   17  C           1     -19.492  -9.343  -4.538  0.00  0.00     0.189 C 
BRANCH  17  18
HETATM   18  C           1     -19.102  -9.610  -3.089  0.00  0.00     0.014 C 
HETATM   19  C           1     -17.599  -9.420  -2.927  0.00  0.00     0.012 C 
BRANCH  18  20
HETATM   20  C           1     -19.838  -8.637  -2.177  0.00  0.00     0.002 C 
HETATM   21  C           1     -20.642  -9.417  -1.146  0.00  0.00     0.005 C 
ENDBRANCH  18  20
ENDBRANCH  17  18
BRANCH  17  22
HETATM   22  C           1     -20.107 -10.587  -5.129  0.00  0.00     0.197 C 
HETATM   23  O           1     -19.965 -10.837  -6.346  0.00  0.00    -0.646 OA
HETATM   24  O           1     -20.761 -11.367  -4.404  0.00  0.00    -0.646 OA
ENDBRANCH  17  22
ENDBRANCH   2  17
TORSDOF 8
ENDMDL
MODEL 6
REMARK VINA RESULT:      -6.4     11.729     14.230
REMARK  8 active torsions:
REMARK  status: ('A' for Active; 'I' for Inactive)
REMARK    1  A    between atoms: C_3  and  C_21 
REMARK    2  A    between atoms: N_4  and  C_22 
REMARK    3  A    between atoms: N_6  and  C_23 
REMARK       I    between atoms: N_6  and  C_19 
REMARK    4  A    between atoms: C_12  and  C_16 
REMARK    5  A    between atoms: C_16  and  C_22 
REMARK    6  A    between atoms: C_19  and  C_22 
REMARK    7  A    between atoms: C_21  and  C_23 
REMARK    8  A    between atoms: C_23  and  C_24 
ROOT
HETATM    1  O           1     -24.823  -6.225 -18.779  0.00  0.00    -0.271 OA
HETATM    2  N           1     -26.998  -6.677 -18.542  0.00  0.00    -0.344 N 
HETATM    3  H           1     -27.805  -7.197 -18.861  0.00  0.00     0.163 HD
HETATM    4  C           1     -25.787  -6.847 -19.159  0.00  0.00     0.249 C 
ENDROOT
BRANCH   4   5
HETATM    5  C           1     -25.657  -7.810 -20.314  0.00  0.00     0.278 C 
BRANCH   5   6
HETATM    6  N           1     -27.019  -8.144 -20.842  0.00  0.00    -0.066 N 
HETATM    7  H           1     -27.297  -9.096 -20.513  0.00  0.00     0.275 HD
HETATM    8  H           1     -27.711  -7.441 -20.494  0.00  0.00     0.275 HD
HETATM    9  H           1     -27.002  -8.127 -21.886  0.00  0.00     0.275 HD
ENDBRANCH   5   6
BRANCH   5  10
HETATM   10  C           1     -24.827  -7.170 -21.419  0.00  0.00     0.081 C 
BRANCH  10  11
HETATM   11  C           1     -23.539  -7.917 -21.573  0.00  0.00    -0.056 A 
HETATM   12  C           1     -22.609  -7.923 -20.533  0.00  0.00     0.007 A 
HETATM   13  C           1     -21.408  -8.618 -20.675  0.00  0.00     0.001 A 
HETATM   14  C           1     -21.137  -9.306 -21.859  0.00  0.00     0.000 A 
HETATM   15  C           1     -22.066  -9.298 -22.899  0.00  0.00     0.001 A 
HETATM   16  C           1     -23.268  -8.603 -22.756  0.00  0.00     0.007 A 
ENDBRANCH  10  11
ENDBRANCH   5  10
ENDBRANCH   4   5
BRANCH   2  17
HETATM   17  C           1     -27.123  -5.751 -17.433  0.00  0.00     0.189 C 
BRANCH  17  18
HETATM   18  C           1     -28.595  -5.444 -17.191  0.00  0.00     0.014 C 
HETATM   19  C           1     -28.878  -3.994 -17.562  0.00  0.00     0.012 C 
BRANCH  18  20
HETATM   20  C           1     -29.455  -6.365 -18.047  0.00  0.00     0.002 C 
HETATM   21  C           1     -30.784  -6.615 -17.348  0.00  0.00     0.005 C 
ENDBRANCH  18  20
ENDBRANCH  17  18
BRANCH  17  22
HETATM   22  C           1     -26.528  -6.371 -16.193  0.00  0.00     0.197 C 
HETATM   23  O           1     -27.126  -7.302 -15.611  0.00  0.00    -0.646 OA
HETATM   24  O           1     -25.438  -5.954 -15.747  0.00  0.00    -0.646 OA
ENDBRANCH  17  22
ENDBRANCH   2  17
TORSDOF 8
ENDMDL
MODEL 7
REMARK VINA RESULT:      -6.1      2.426      3.855
REMARK  8 active torsions:
REMARK  status: ('A' for Active; 'I' for Inactive)
REMARK    1  A    between atoms: C_3  and  C_21 
REMARK    2  A    between atoms: N_4  and  C_22 
REMARK    3  A    between atoms: N_6  and  C_23 
REMARK       I    between atoms: N_6  and  C_19 
REMARK    4  A    between atoms: C_12  and  C_16 
REMARK    5  A    between atoms: C_16  and  C_22 
REMARK    6  A    between atoms: C_19  and  C_22 
REMARK    7  A    between atoms: C_21  and  C_23 
REMARK    8  A    between atoms: C_23  and  C_24 
ROOT
HETATM    1  O           1     -19.341  -8.614  -2.913  0.00  0.00    -0.271 OA
HETATM    2  N           1     -21.572  -8.674  -2.823  0.00  0.00    -0.344 N 
HETATM    3  H           1     -22.454  -8.444  -3.262  0.00  0.00     0.163 HD
HETATM    4  C           1     -20.394  -8.340  -3.438  0.00  0.00     0.249 C 
ENDROOT
BRANCH   4   5
HETATM    5  C           1     -20.412  -7.631  -4.769  0.00  0.00     0.278 C 
BRANCH   5   6
HETATM    6  N           1     -21.151  -8.467  -5.771  0.00  0.00    -0.066 N 
HETATM    7  H           1     -20.720  -9.418  -5.817  0.00  0.00     0.275 HD
HETATM    8  H           1     -22.153  -8.553  -5.483  0.00  0.00     0.275 HD
HETATM    9  H           1     -21.097  -8.013  -6.711  0.00  0.00     0.275 HD
ENDBRANCH   5   6
BRANCH   5  10
HETATM   10  C           1     -21.109  -6.285  -4.619  0.00  0.00     0.081 C 
BRANCH  10  11
HETATM   11  C           1     -20.955  -5.499  -5.884  0.00  0.00    -0.056 A 
HETATM   12  C           1     -22.085  -5.062  -6.575  0.00  0.00     0.007 A 
HETATM   13  C           1     -21.943  -4.330  -7.754  0.00  0.00     0.001 A 
HETATM   14  C           1     -20.669  -4.036  -8.242  0.00  0.00     0.000 A 
HETATM   15  C           1     -19.540  -4.474  -7.551  0.00  0.00     0.001 A 
HETATM   16  C           1     -19.682  -5.206  -6.372  0.00  0.00     0.007 A 
ENDBRANCH  10  11
ENDBRANCH   5  10
ENDBRANCH   4   5
BRANCH   2  17
HETATM   17  C           1     -21.554  -9.356  -1.544  0.00  0.00     0.189 C 
BRANCH  17  18
HETATM   18  C           1     -22.623  -8.760  -0.636  0.00  0.00     0.014 C 
HETATM   19  C           1     -23.383  -9.885   0.056  0.00  0.00     0.012 C 
BRANCH  18  20
HETATM   20  C           1     -21.964  -7.873   0.413  0.00  0.00     0.002 C 
HETATM   21  C           1     -21.067  -8.721   1.304  0.00  0.00     0.005 C 
ENDBRANCH  18  20
ENDBRANCH  17  18
BRANCH  17  22
HETATM   22  C           1     -21.834 -10.823  -1.753  0.00  0.00     0.197 C 
HETATM   23  O           1     -22.679 -11.184  -2.600  0.00  0.00    -0.646 OA
HETATM   24  O           1     -21.221 -11.679  -1.079  0.00  0.00    -0.646 OA
ENDBRANCH  17  22
ENDBRANCH   2  17
TORSDOF 8
ENDMDL
MODEL 8
REMARK VINA RESULT:      -6.1      3.972      6.999
REMARK  8 active torsions:
REMARK  status: ('A' for Active; 'I' for Inactive)
REMARK    1  A    between atoms: C_3  and  C_21 
REMARK    2  A    between atoms: N_4  and  C_22 
REMARK    3  A    between atoms: N_6  and  C_23 
REMARK       I    between atoms: N_6  and  C_19 
REMARK    4  A    between atoms: C_12  and  C_16 
REMARK    5  A    between atoms: C_16  and  C_22 
REMARK    6  A    between atoms: C_19  and  C_22 
REMARK    7  A    between atoms: C_21  and  C_23 
REMARK    8  A    between atoms: C_23  and  C_24 
ROOT
HETATM    1  O           1     -21.834 -10.078  -4.401  0.00  0.00    -0.271 OA
HETATM    2  N           1     -20.497  -8.290  -4.326  0.00  0.00    -0.344 N 
HETATM    3  H           1     -19.585  -7.893  -4.514  0.00  0.00     0.163 HD
HETATM    4  C           1     -20.745  -9.604  -4.625  0.00  0.00     0.249 C 
ENDROOT
BRANCH   4   5
HETATM    5  C           1     -19.660 -10.457  -5.234  0.00  0.00     0.278 C 
BRANCH   5   6
HETATM    6  N           1     -20.132 -11.003  -6.548  0.00  0.00    -0.066 N 
HETATM    7  H           1     -20.940 -11.645  -6.389  0.00  0.00     0.275 HD
HETATM    8  H           1     -20.431 -10.215  -7.167  0.00  0.00     0.275 HD
HETATM    9  H           1     -19.354 -11.528  -7.007  0.00  0.00     0.275 HD
ENDBRANCH   5   6
BRANCH   5  10
HETATM   10  C           1     -18.412  -9.613  -5.454  0.00  0.00     0.081 C 
BRANCH  10  11
HETATM   11  C           1     -17.310 -10.111  -4.570  0.00  0.00    -0.056 A 
HETATM   12  C           1     -17.185  -9.621  -3.270  0.00  0.00     0.007 A 
HETATM   13  C           1     -16.158 -10.083  -2.446  0.00  0.00     0.001 A 
HETATM   14  C           1     -15.258 -11.036  -2.923  0.00  0.00     0.000 A 
HETATM   15  C           1     -15.383 -11.524  -4.224  0.00  0.00     0.001 A 
HETATM   16  C           1     -16.409 -11.062  -5.048  0.00  0.00     0.007 A 
ENDBRANCH  10  11
ENDBRANCH   5  10
ENDBRANCH   4   5
BRANCH   2  17
HETATM   17  C           1     -21.540  -7.470  -3.742  0.00  0.00     0.189 C 
BRANCH  17  18
HETATM   18  C           1     -21.062  -6.917  -2.405  0.00  0.00     0.014 C 
HETATM   19  C           1     -22.225  -6.238  -1.693  0.00  0.00     0.012 C 
BRANCH  18  20
HETATM   20  C           1     -20.535  -8.056  -1.542  0.00  0.00     0.002 C 
HETATM   21  C           1     -21.381  -8.173  -0.282  0.00  0.00     0.005 C 
ENDBRANCH  18  20
ENDBRANCH  17  18
BRANCH  17  22
HETATM   22  C           1     -21.860  -6.326  -4.672  0.00  0.00     0.197 C 
HETATM   23  O           1     -20.962  -5.526  -5.011  0.00  0.00    -0.646 OA
HETATM   24  O           1     -23.024  -6.178  -5.103  0.00  0.00    -0.646 OA
ENDBRANCH  17  22
ENDBRANCH   2  17
TORSDOF 8
ENDMDL
MODEL 9
REMARK VINA RESULT:      -5.9      6.179      7.425
REMARK  8 active torsions:
REMARK  status: ('A' for Active; 'I' for Inactive)
REMARK    1  A    between atoms: C_3  and  C_21 
REMARK    2  A    between atoms: N_4  and  C_22 
REMARK    3  A    between atoms: N_6  and  C_23 
REMARK       I    between atoms: N_6  and  C_19 
REMARK    4  A    between atoms: C_12  and  C_16 
REMARK    5  A    between atoms: C_16  and  C_22 
REMARK    6  A    between atoms: C_19  and  C_22 
REMARK    7  A    between atoms: C_21  and  C_23 
REMARK    8  A    between atoms: C_23  and  C_24 
ROOT
HETATM    1  O           1     -19.960 -11.319   0.060  0.00  0.00    -0.271 OA
HETATM    2  N           1     -21.185 -10.083  -1.340  0.00  0.00    -0.344 N 
HETATM    3  H           1     -21.289  -9.684  -2.264  0.00  0.00     0.163 HD
HETATM    4  C           1     -20.085 -10.843  -1.043  0.00  0.00     0.249 C 
ENDROOT
BRANCH   4   5
HETATM    5  C           1     -19.028 -11.083  -2.093  0.00  0.00     0.278 C 
BRANCH   5   6
HETATM    6  N           1     -19.155 -12.482  -2.618  0.00  0.00    -0.066 N 
HETATM    7  H           1     -18.891 -13.161  -1.869  0.00  0.00     0.275 HD
HETATM    8  H           1     -20.143 -12.656  -2.912  0.00  0.00     0.275 HD
HETATM    9  H           1     -18.521 -12.605  -3.439  0.00  0.00     0.275 HD
ENDBRANCH   5   6
BRANCH   5  10
HETATM   10  C           1     -19.212 -10.094  -3.236  0.00  0.00     0.081 C 
BRANCH  10  11
HETATM   11  C           1     -17.926  -9.958  -3.991  0.00  0.00    -0.056 A 
HETATM   12  C           1     -17.927 -10.010  -5.385  0.00  0.00     0.007 A 
HETATM   13  C           1     -16.729  -9.884  -6.089  0.00  0.00     0.001 A 
HETATM   14  C           1     -15.530  -9.706  -5.398  0.00  0.00     0.000 A 
HETATM   15  C           1     -15.530  -9.655  -4.004  0.00  0.00     0.001 A 
HETATM   16  C           1     -16.728  -9.780  -3.300  0.00  0.00     0.007 A 
ENDBRANCH  10  11
ENDBRANCH   5  10
ENDBRANCH   4   5
BRANCH   2  17
HETATM   17  C           1     -22.200  -9.852  -0.331  0.00  0.00     0.189 C 
BRANCH  17  18
HETATM   18  C           1     -22.481  -8.358  -0.226  0.00  0.00     0.014 C 
HETATM   19  C           1     -22.177  -7.885   1.190  0.00  0.00     0.012 C 
BRANCH  18  20
HETATM   20  C           1     -21.600  -7.604  -1.213  0.00  0.00     0.002 C 
HETATM   21  C           1     -22.324  -6.351  -1.685  0.00  0.00     0.005 C 
ENDBRANCH  18  20
ENDBRANCH  17  18
BRANCH  17  22
HETATM   22  C           1     -23.466 -10.575  -0.718  0.00  0.00     0.197 C 
HETATM   23  O           1     -24.407 -10.669   0.099  0.00  0.00    -0.646 OA
HETATM   24  O           1     -23.575 -11.081  -1.856  0.00  0.00    -0.646 OA
ENDBRANCH  17  22
ENDBRANCH   2  17
TORSDOF 8
ENDMDL
