MODEL 1
REMARK VINA RESULT:      -6.3      0.000      0.000
REMARK  7 active torsions:
REMARK  status: ('A' for Active; 'I' for Inactive)
REMARK       I    between atoms: C_1  and  N_7 
REMARK    1  A    between atoms: C_1  and  C_9 
REMARK    2  A    between atoms: N_7  and  C_17 
REMARK    3  A    between atoms: C_9  and  N_10 
REMARK    4  A    between atoms: C_11  and  C_17 
REMARK    5  A    between atoms: C_13  and  C_15 
REMARK    6  A    between atoms: C_15  and  C_16 
REMARK    7  A    between atoms: C_16  and  C_17 
ROOT
HETATM    1  C           1     -25.377  -6.527 -16.623  0.00  0.00     0.243 C 
HETATM    2  N           1     -26.650  -6.683 -17.101  0.00  0.00    -0.345 N 
HETATM    3  H           1     -26.850  -7.402 -17.784  0.00  0.00     0.163 HD
HETATM    4  O           1     -25.139  -5.668 -15.807  0.00  0.00    -0.272 OA
ENDROOT
BRANCH   2   5
HETATM    5  C           1     -27.713  -5.816 -16.629  0.00  0.00     0.186 C 
BRANCH   5   6
HETATM    6  C           1     -28.356  -6.429 -15.409  0.00  0.00     0.196 C 
HETATM    7  O           1     -29.207  -5.784 -14.762  0.00  0.00    -0.646 OA
HETATM    8  O           1     -28.037  -7.583 -15.047  0.00  0.00    -0.646 OA
ENDBRANCH   5   6
BRANCH   5   9
HETATM    9  C           1     -28.757  -5.652 -17.727  0.00  0.00     0.046 C 
BRANCH   9  10
HETATM   10  C           1     -29.153  -4.185 -17.837  0.00  0.00     0.116 C 
BRANCH  10  11
HETATM   11  C           1     -30.612  -4.030 -17.482  0.00  0.00     0.172 C 
HETATM   12  O           1     -31.154  -2.906 -17.545  0.00  0.00    -0.648 OA
HETATM   13  O           1     -31.277  -5.027 -17.125  0.00  0.00    -0.648 OA
ENDBRANCH  10  11
ENDBRANCH   9  10
ENDBRANCH   5   9
ENDBRANCH   2   5
BRANCH   1  14
HETATM   14  C           1     -24.271  -7.428 -17.114  0.00  0.00     0.332 C 
BRANCH  14  15
HETATM   15  N           1     -24.277  -7.456 -18.613  0.00  0.00    -0.071 N 
HETATM   16  H           1     -25.162  -7.030 -18.967  0.00  0.00     0.274 HD
HETATM   17  H           1     -23.460  -6.913 -18.975  0.00  0.00     0.274 HD
HETATM   18  H           1     -24.211  -8.446 -18.944  0.00  0.00     0.274 HD
ENDBRANCH  14  15
ENDBRANCH   1  14
TORSDOF 7
ENDMDL
MODEL 2
REMARK VINA RESULT:      -6.1      9.762     11.386
REMARK  7 active torsions:
REMARK  status: ('A' for Active; 'I' for Inactive)
REMARK       I    between atoms: C_1  and  N_7 
REMARK    1  A    between atoms: C_1  and  C_9 
REMARK    2  A    between atoms: N_7  and  C_17 
REMARK    3  A    between atoms: C_9  and  N_10 
REMARK    4  A    between atoms: C_11  and  C_17 
REMARK    5  A    between atoms: C_13  and  C_15 
REMARK    6  A    between atoms: C_15  and  C_16 
REMARK    7  A    between atoms: C_16  and  C_17 
ROOT
HETATM    1  C           1     -37.290   0.011 -10.830  0.00  0.00     0.243 C 
HETATM    2  N           1     -36.148   0.210 -11.558  0.00  0.00    -0.345 N 
HETATM    3  H           1     -35.490   0.928 -11.282  0.00  0.00     0.163 HD
HETATM    4  O           1     -38.074  -0.846 -11.159  0.00  0.00    -0.272 OA
ENDROOT
BRANCH   2   5
HETATM    5  C           1     -35.881  -0.607 -12.726  0.00  0.00     0.186 C 
BRANCH   5   6
HETATM    6  C           1     -34.800  -1.609 -12.402  0.00  0.00     0.196 C 
HETATM    7  O           1     -34.590  -2.571 -13.170  0.00  0.00    -0.646 OA
HETATM    8  O           1     -34.115  -1.475 -11.365  0.00  0.00    -0.646 OA
ENDBRANCH   5   6
BRANCH   5   9
HETATM    9  C           1     -35.421   0.284 -13.873  0.00  0.00     0.046 C 
BRANCH   9  10
HETATM   10  C           1     -36.500   0.326 -14.948  0.00  0.00     0.116 C 
BRANCH  10  11
HETATM   11  C           1     -36.090  -0.549 -16.107  0.00  0.00     0.172 C 
HETATM   12  O           1     -36.879  -0.739 -17.058  0.00  0.00    -0.648 OA
HETATM   13  O           1     -34.960  -1.084 -16.117  0.00  0.00    -0.648 OA
ENDBRANCH  10  11
ENDBRANCH   9  10
ENDBRANCH   5   9
ENDBRANCH   2   5
BRANCH   1  14
HETATM   14  C           1     -37.567   0.862  -9.615  0.00  0.00     0.332 C 
BRANCH  14  15
HETATM   15  N           1     -36.270   1.272  -8.984  0.00  0.00    -0.071 N 
HETATM   16  H           1     -36.461   1.868  -8.148  0.00  0.00     0.274 HD
HETATM   17  H           1     -35.740   0.420  -8.690  0.00  0.00     0.274 HD
HETATM   18  H           1     -35.702   1.813  -9.675  0.00  0.00     0.274 HD
ENDBRANCH  14  15
ENDBRANCH   1  14
TORSDOF 7
ENDMDL
MODEL 3
REMARK VINA RESULT:      -6.1      2.995      5.728
REMARK  7 active torsions:
REMARK  status: ('A' for Active; 'I' for Inactive)
REMARK       I    between atoms: C_1  and  N_7 
REMARK    1  A    between atoms: C_1  and  C_9 
REMARK    2  A    between atoms: N_7  and  C_17 
REMARK    3  A    between atoms: C_9  and  N_10 
REMARK    4  A    between atoms: C_11  and  C_17 
REMARK    5  A    between atoms: C_13  and  C_15 
REMARK    6  A    between atoms: C_15  and  C_16 
REMARK    7  A    between atoms: C_16  and  C_17 
ROOT
HETATM    1  C           1     -31.726  -4.551 -16.909  0.00  0.00     0.243 C 
HETATM    2  N           1     -31.323  -5.858 -16.851  0.00  0.00    -0.345 N 
HETATM    3  H           1     -31.957  -6.569 -16.510  0.00  0.00     0.163 HD
HETATM    4  O           1     -30.969  -3.703 -17.316  0.00  0.00    -0.272 OA
ENDROOT
BRANCH   2   5
HETATM    5  C           1     -29.986  -6.223 -17.277  0.00  0.00     0.186 C 
BRANCH   5   6
HETATM    6  C           1     -29.983  -7.658 -17.747  0.00  0.00     0.196 C 
HETATM    7  O           1     -29.411  -8.536 -17.066  0.00  0.00    -0.646 OA
HETATM    8  O           1     -30.554  -7.967 -18.815  0.00  0.00    -0.646 OA
ENDBRANCH   5   6
BRANCH   5   9
HETATM    9  C           1     -29.022  -6.069 -16.107  0.00  0.00     0.046 C 
BRANCH   9  10
HETATM   10  C           1     -27.683  -5.550 -16.615  0.00  0.00     0.116 C 
BRANCH  10  11
HETATM   11  C           1     -26.564  -6.330 -15.970  0.00  0.00     0.172 C 
HETATM   12  O           1     -25.394  -5.890 -16.006  0.00  0.00    -0.648 OA
HETATM   13  O           1     -26.806  -7.416 -15.400  0.00  0.00    -0.648 OA
ENDBRANCH  10  11
ENDBRANCH   9  10
ENDBRANCH   5   9
ENDBRANCH   2   5
BRANCH   1  14
HETATM   14  C           1     -33.117  -4.170 -16.466  0.00  0.00     0.332 C 
BRANCH  14  15
HETATM   15  N           1     -33.588  -2.987 -17.257  0.00  0.00    -0.071 N 
HETATM   16  H           1     -33.891  -3.299 -18.207  0.00  0.00     0.274 HD
HETATM   17  H           1     -34.395  -2.538 -16.766  0.00  0.00     0.274 HD
HETATM   18  H           1     -32.809  -2.296 -17.350  0.00  0.00     0.274 HD
ENDBRANCH  14  15
ENDBRANCH   1  14
TORSDOF 7
ENDMDL
MODEL 4
REMARK VINA RESULT:      -6.0      8.697     10.446
REMARK  7 active torsions:
REMARK  status: ('A' for Active; 'I' for Inactive)
REMARK       I    between atoms: C_1  and  N_7 
REMARK    1  A    between atoms: C_1  and  C_9 
REMARK    2  A    between atoms: N_7  and  C_17 
REMARK    3  A    between atoms: C_9  and  N_10 
REMARK    4  A    between atoms: C_11  and  C_17 
REMARK    5  A    between atoms: C_13  and  C_15 
REMARK    6  A    between atoms: C_15  and  C_16 
REMARK    7  A    between atoms: C_16  and  C_17 
ROOT
HETATM    1  C           1     -35.074  -0.254 -13.395  0.00  0.00     0.243 C 
HETATM    2  N           1     -34.561  -0.529 -12.157  0.00  0.00    -0.345 N 
HETATM    3  H           1     -34.016   0.169 -11.668  0.00  0.00     0.163 HD
HETATM    4  O           1     -35.725  -1.087 -13.979  0.00  0.00    -0.272 OA
ENDROOT
BRANCH   2   5
HETATM    5  C           1     -34.798  -1.822 -11.546  0.00  0.00     0.186 C 
BRANCH   5   6
HETATM    6  C           1     -35.906  -1.701 -10.527  0.00  0.00     0.196 C 
HETATM    7  O           1     -36.811  -2.561 -10.484  0.00  0.00    -0.646 OA
HETATM    8  O           1     -35.917  -0.740  -9.727  0.00  0.00    -0.646 OA
ENDBRANCH   5   6
BRANCH   5   9
HETATM    9  C           1     -33.525  -2.299 -10.858  0.00  0.00     0.046 C 
BRANCH   9  10
HETATM   10  C           1     -32.993  -3.535 -11.572  0.00  0.00     0.116 C 
BRANCH  10  11
HETATM   11  C           1     -33.945  -4.687 -11.360  0.00  0.00     0.172 C 
HETATM   12  O           1     -34.073  -5.191 -10.223  0.00  0.00    -0.648 OA
HETATM   13  O           1     -34.607  -5.137 -12.321  0.00  0.00    -0.648 OA
ENDBRANCH  10  11
ENDBRANCH   9  10
ENDBRANCH   5   9
ENDBRANCH   2   5
BRANCH   1  14
HETATM   14  C           1     -34.827   1.093 -14.032  0.00  0.00     0.332 C 
BRANCH  14  15
HETATM   15  N           1     -35.862   1.345 -15.087  0.00  0.00    -0.071 N 
HETATM   16  H           1     -36.329   0.445 -15.341  0.00  0.00     0.274 HD
HETATM   17  H           1     -36.576   2.015 -14.722  0.00  0.00     0.274 HD
HETATM   18  H           1     -35.405   1.751 -15.935  0.00  0.00     0.274 HD
ENDBRANCH  14  15
ENDBRANCH   1  14
TORSDOF 7
ENDMDL
MODEL 5
REMARK VINA RESULT:      -5.8      2.226      3.243
REMARK  7 active torsions:
REMARK  status: ('A' for Active; 'I' for Inactive)
REMARK       I    between atoms: C_1  and  N_7 
REMARK    1  A    between atoms: C_1  and  C_9 
REMARK    2  A    between atoms: N_7  and  C_17 
REMARK    3  A    between atoms: C_9  and  N_10 
REMARK    4  A    between atoms: C_11  and  C_17 
REMARK    5  A    between atoms: C_13  and  C_15 
REMARK    6  A    between atoms: C_15  and  C_16 
REMARK    7  A    between atoms: C_16  and  C_17 
ROOT
HETATM    1  C           1     -26.495  -6.252 -16.702  0.00  0.00     0.243 C 
HETATM    2  N           1     -27.691  -5.807 -16.206  0.00  0.00    -0.345 N 
HETATM    3  H           1     -27.863  -5.825 -15.209  0.00  0.00     0.163 HD
HETATM    4  O           1     -26.289  -6.230 -17.892  0.00  0.00    -0.272 OA
ENDROOT
BRANCH   2   5
HETATM    5  C           1     -28.711  -5.310 -17.109  0.00  0.00     0.186 C 
BRANCH   5   6
HETATM    6  C           1     -28.738  -3.802 -17.055  0.00  0.00     0.196 C 
HETATM    7  O           1     -27.797  -3.180 -16.520  0.00  0.00    -0.646 OA
HETATM    8  O           1     -29.702  -3.176 -17.547  0.00  0.00    -0.646 OA
ENDBRANCH   5   6
BRANCH   5   9
HETATM    9  C           1     -30.069  -5.859 -16.690  0.00  0.00     0.046 C 
BRANCH   9  10
HETATM   10  C           1     -30.693  -6.617 -17.855  0.00  0.00     0.116 C 
BRANCH  10  11
HETATM   11  C           1     -29.980  -7.934 -18.038  0.00  0.00     0.172 C 
HETATM   12  O           1     -30.007  -8.511 -19.147  0.00  0.00    -0.648 OA
HETATM   13  O           1     -29.361  -8.449 -17.081  0.00  0.00    -0.648 OA
ENDBRANCH  10  11
ENDBRANCH   9  10
ENDBRANCH   5   9
ENDBRANCH   2   5
BRANCH   1  14
HETATM   14  C           1     -25.434  -6.769 -15.762  0.00  0.00     0.332 C 
BRANCH  14  15
HETATM   15  N           1     -24.418  -7.554 -16.538  0.00  0.00    -0.071 N 
HETATM   16  H           1     -24.842  -7.883 -17.435  0.00  0.00     0.274 HD
HETATM   17  H           1     -23.593  -6.947 -16.745  0.00  0.00     0.274 HD
HETATM   18  H           1     -24.111  -8.379 -15.975  0.00  0.00     0.274 HD
ENDBRANCH  14  15
ENDBRANCH   1  14
TORSDOF 7
ENDMDL
MODEL 6
REMARK VINA RESULT:      -5.7      9.575     11.028
REMARK  7 active torsions:
REMARK  status: ('A' for Active; 'I' for Inactive)
REMARK       I    between atoms: C_1  and  N_7 
REMARK    1  A    between atoms: C_1  and  C_9 
REMARK    2  A    between atoms: N_7  and  C_17 
REMARK    3  A    between atoms: C_9  and  N_10 
REMARK    4  A    between atoms: C_11  and  C_17 
REMARK    5  A    between atoms: C_13  and  C_15 
REMARK    6  A    between atoms: C_15  and  C_16 
REMARK    7  A    between atoms: C_16  and  C_17 
ROOT
HETATM    1  C           1     -21.193  -5.875  -6.171  0.00  0.00     0.243 C 
HETATM    2  N           1     -21.410  -4.708  -6.853  0.00  0.00    -0.345 N 
HETATM    3  H           1     -21.460  -3.831  -6.352  0.00  0.00     0.163 HD
HETATM    4  O           1     -21.133  -6.923  -6.769  0.00  0.00    -0.272 OA
ENDROOT
BRANCH   2   5
HETATM    5  C           1     -21.569  -4.731  -8.294  0.00  0.00     0.186 C 
BRANCH   5   6
HETATM    6  C           1     -20.238  -4.456  -8.950  0.00  0.00     0.196 C 
HETATM    7  O           1     -19.298  -3.980  -8.280  0.00  0.00    -0.646 OA
HETATM    8  O           1     -20.077  -4.707 -10.165  0.00  0.00    -0.646 OA
ENDBRANCH   5   6
BRANCH   5   9
HETATM    9  C           1     -22.572  -3.661  -8.709  0.00  0.00     0.046 C 
BRANCH   9  10
HETATM   10  C           1     -23.866  -4.325  -9.161  0.00  0.00     0.116 C 
BRANCH  10  11
HETATM   11  C           1     -24.152  -3.946 -10.594  0.00  0.00     0.172 C 
HETATM   12  O           1     -23.422  -4.378 -11.513  0.00  0.00    -0.648 OA
HETATM   13  O           1     -25.118  -3.198 -10.862  0.00  0.00    -0.648 OA
ENDBRANCH  10  11
ENDBRANCH   9  10
ENDBRANCH   5   9
ENDBRANCH   2   5
BRANCH   1  14
HETATM   14  C           1     -21.027  -5.852  -4.670  0.00  0.00     0.332 C 
BRANCH  14  15
HETATM   15  N           1     -22.323  -6.231  -4.018  0.00  0.00    -0.071 N 
HETATM   16  H           1     -22.312  -7.249  -3.784  0.00  0.00     0.274 HD
HETATM   17  H           1     -22.449  -5.674  -3.142  0.00  0.00     0.274 HD
HETATM   18  H           1     -23.114  -6.033  -4.672  0.00  0.00     0.274 HD
ENDBRANCH  14  15
ENDBRANCH   1  14
TORSDOF 7
ENDMDL
MODEL 7
REMARK VINA RESULT:      -5.6      1.862      4.277
REMARK  7 active torsions:
REMARK  status: ('A' for Active; 'I' for Inactive)
REMARK       I    between atoms: C_1  and  N_7 
REMARK    1  A    between atoms: C_1  and  C_9 
REMARK    2  A    between atoms: N_7  and  C_17 
REMARK    3  A    between atoms: C_9  and  N_10 
REMARK    4  A    between atoms: C_11  and  C_17 
REMARK    5  A    between atoms: C_13  and  C_15 
REMARK    6  A    between atoms: C_15  and  C_16 
REMARK    7  A    between atoms: C_16  and  C_17 
ROOT
HETATM    1  C           1     -28.204  -6.278 -18.946  0.00  0.00     0.243 C 
HETATM    2  N           1     -28.179  -5.122 -18.213  0.00  0.00    -0.345 N 
HETATM    3  H           1     -27.466  -4.427 -18.389  0.00  0.00     0.163 HD
HETATM    4  O           1     -29.056  -7.108 -18.737  0.00  0.00    -0.272 OA
ENDROOT
BRANCH   2   5
HETATM    5  C           1     -29.177  -4.895 -17.185  0.00  0.00     0.186 C 
BRANCH   5   6
HETATM    6  C           1     -29.738  -3.501 -17.330  0.00  0.00     0.196 C 
HETATM    7  O           1     -30.969  -3.335 -17.459  0.00  0.00    -0.646 OA
HETATM    8  O           1     -28.971  -2.514 -17.319  0.00  0.00    -0.646 OA
ENDBRANCH   5   6
BRANCH   5   9
HETATM    9  C           1     -28.532  -5.044 -15.813  0.00  0.00     0.046 C 
BRANCH   9  10
HETATM   10  C           1     -28.053  -6.479 -15.629  0.00  0.00     0.116 C 
BRANCH  10  11
HETATM   11  C           1     -26.552  -6.531 -15.774  0.00  0.00     0.172 C 
HETATM   12  O           1     -25.911  -7.494 -15.300  0.00  0.00    -0.648 OA
HETATM   13  O           1     -25.949  -5.610 -16.367  0.00  0.00    -0.648 OA
ENDBRANCH  10  11
ENDBRANCH   9  10
ENDBRANCH   5   9
ENDBRANCH   2   5
BRANCH   1  14
HETATM   14  C           1     -27.166  -6.515 -20.016  0.00  0.00     0.332 C 
BRANCH  14  15
HETATM   15  N           1     -25.851  -6.844 -19.373  0.00  0.00    -0.071 N 
HETATM   16  H           1     -25.905  -7.789 -18.931  0.00  0.00     0.274 HD
HETATM   17  H           1     -25.099  -6.843 -20.099  0.00  0.00     0.274 HD
HETATM   18  H           1     -25.631  -6.129 -18.643  0.00  0.00     0.274 HD
ENDBRANCH  14  15
ENDBRANCH   1  14
TORSDOF 7
ENDMDL
MODEL 8
REMARK VINA RESULT:      -5.6      1.720      2.001
REMARK  7 active torsions:
REMARK  status: ('A' for Active; 'I' for Inactive)
REMARK       I    between atoms: C_1  and  N_7 
REMARK    1  A    between atoms: C_1  and  C_9 
REMARK    2  A    between atoms: N_7  and  C_17 
REMARK    3  A    between atoms: C_9  and  N_10 
REMARK    4  A    between atoms: C_11  and  C_17 
REMARK    5  A    between atoms: C_13  and  C_15 
REMARK    6  A    between atoms: C_15  and  C_16 
REMARK    7  A    between atoms: C_16  and  C_17 
ROOT
HETATM    1  C           1     -26.465  -6.481 -16.256  0.00  0.00     0.243 C 
HETATM    2  N           1     -27.626  -7.107 -16.621  0.00  0.00    -0.345 N 
HETATM    3  H           1     -27.695  -8.115 -16.570  0.00  0.00     0.163 HD
HETATM    4  O           1     -26.383  -5.278 -16.316  0.00  0.00    -0.272 OA
ENDROOT
BRANCH   2   5
HETATM    5  C           1     -28.757  -6.325 -17.081  0.00  0.00     0.186 C 
BRANCH   5   6
HETATM    6  C           1     -29.896  -7.250 -17.435  0.00  0.00     0.196 C 
HETATM    7  O           1     -31.066  -6.952 -17.112  0.00  0.00    -0.646 OA
HETATM    8  O           1     -29.669  -8.313 -18.053  0.00  0.00    -0.646 OA
ENDBRANCH   5   6
BRANCH   5   9
HETATM    9  C           1     -28.352  -5.523 -18.311  0.00  0.00     0.046 C 
BRANCH   9  10
HETATM   10  C           1     -29.484  -4.581 -18.700  0.00  0.00     0.116 C 
BRANCH  10  11
HETATM   11  C           1     -29.630  -3.509 -17.648  0.00  0.00     0.172 C 
HETATM   12  O           1     -30.768  -3.157 -17.268  0.00  0.00    -0.648 OA
HETATM   13  O           1     -28.613  -2.973 -17.156  0.00  0.00    -0.648 OA
ENDBRANCH  10  11
ENDBRANCH   9  10
ENDBRANCH   5   9
ENDBRANCH   2   5
BRANCH   1  14
HETATM   14  C           1     -25.287  -7.295 -15.778  0.00  0.00     0.332 C 
BRANCH  14  15
HETATM   15  N           1     -24.332  -7.509 -16.915  0.00  0.00    -0.071 N 
HETATM   16  H           1     -23.419  -7.856 -16.544  0.00  0.00     0.274 HD
HETATM   17  H           1     -24.730  -8.216 -17.575  0.00  0.00     0.274 HD
HETATM   18  H           1     -24.183  -6.606 -17.420  0.00  0.00     0.274 HD
ENDBRANCH  14  15
ENDBRANCH   1  14
TORSDOF 7
ENDMDL
MODEL 9
REMARK VINA RESULT:      -5.6      8.979     11.352
REMARK  7 active torsions:
REMARK  status: ('A' for Active; 'I' for Inactive)
REMARK       I    between atoms: C_1  and  N_7 
REMARK    1  A    between atoms: C_1  and  C_9 
REMARK    2  A    between atoms: N_7  and  C_17 
REMARK    3  A    between atoms: C_9  and  N_10 
REMARK    4  A    between atoms: C_11  and  C_17 
REMARK    5  A    between atoms: C_13  and  C_15 
REMARK    6  A    between atoms: C_15  and  C_16 
REMARK    7  A    between atoms: C_16  and  C_17 
ROOT
HETATM    1  C           1     -36.538  -0.156 -13.667  0.00  0.00     0.243 C 
HETATM    2  N           1     -35.939  -0.254 -12.440  0.00  0.00    -0.345 N 
HETATM    3  H           1     -35.029   0.161 -12.286  0.00  0.00     0.163 HD
HETATM    4  O           1     -37.624  -0.651 -13.850  0.00  0.00    -0.272 OA
ENDROOT
BRANCH   2   5
HETATM    5  C           1     -36.609  -0.953 -11.360  0.00  0.00     0.186 C 
BRANCH   5   6
HETATM    6  C           1     -36.941   0.025 -10.259  0.00  0.00     0.196 C 
HETATM    7  O           1     -37.890   0.825 -10.401  0.00  0.00    -0.646 OA
HETATM    8  O           1     -36.268   0.033  -9.206  0.00  0.00    -0.646 OA
ENDBRANCH   5   6
BRANCH   5   9
HETATM    9  C           1     -35.691  -2.040 -10.815  0.00  0.00     0.046 C 
BRANCH   9  10
HETATM   10  C           1     -34.287  -1.847 -11.373  0.00  0.00     0.116 C 
BRANCH  10  11
HETATM   11  C           1     -33.973  -2.962 -12.341  0.00  0.00     0.172 C 
HETATM   12  O           1     -34.594  -3.045 -13.422  0.00  0.00    -0.648 OA
HETATM   13  O           1     -33.091  -3.804 -12.061  0.00  0.00    -0.648 OA
ENDBRANCH  10  11
ENDBRANCH   9  10
ENDBRANCH   5   9
ENDBRANCH   2   5
BRANCH   1  14
HETATM   14  C           1     -35.841   0.571 -14.791  0.00  0.00     0.332 C 
BRANCH  14  15
HETATM   15  N           1     -36.863   1.198 -15.691  0.00  0.00    -0.071 N 
HETATM   16  H           1     -37.780   1.253 -15.193  0.00  0.00     0.274 HD
HETATM   17  H           1     -36.552   2.161 -15.954  0.00  0.00     0.274 HD
HETATM   18  H           1     -36.970   0.619 -16.554  0.00  0.00     0.274 HD
ENDBRANCH  14  15
ENDBRANCH   1  14
TORSDOF 7
ENDMDL
