MODEL 1
REMARK VINA RESULT:      -5.6      0.000      0.000
REMARK  8 active torsions:
REMARK  status: ('A' for Active; 'I' for Inactive)
REMARK    1  A    between atoms: C_2  and  S_12 
REMARK    2  A    between atoms: C_2  and  C_3 
REMARK    3  A    between atoms: C_3  and  C_19 
REMARK    4  A    between atoms: C_3  and  N_15 
REMARK    5  A    between atoms: C_4  and  C_16 
REMARK    6  A    between atoms: C_4  and  C_5 
REMARK    7  A    between atoms: C_4  and  N_9 
REMARK    8  A    between atoms: C_5  and  C_6 
REMARK       I    between atoms: N_15  and  C_16 
ROOT
HETATM    1  O           1     -34.504  -3.018 -13.466  0.00  0.00    -0.271 OA
HETATM    2  N           1     -35.177  -1.202 -12.353  0.00  0.00    -0.344 N 
HETATM    3  C           1     -34.467  -2.369 -12.447  0.00  0.00     0.249 C 
HETATM    4  H           1     -35.144  -0.658 -11.500  0.00  0.00     0.163 HD
ENDROOT
BRANCH   3   5
HETATM    5  C           1     -33.636  -2.844 -11.280  0.00  0.00     0.284 C 
BRANCH   5   6
HETATM    6  C           1     -34.267  -4.095 -10.682  0.00  0.00     0.155 C 
BRANCH   6   7
HETATM    7  C           1     -33.480  -5.309 -11.109  0.00  0.00     0.175 C 
HETATM    8  O           1     -33.888  -6.453 -10.815  0.00  0.00    -0.648 OA
HETATM    9  O           1     -32.420  -5.171 -11.757  0.00  0.00    -0.648 OA
ENDBRANCH   6   7
ENDBRANCH   5   6
BRANCH   5  10
HETATM   10  N           1     -33.578  -1.766 -10.238  0.00  0.00    -0.066 N 
HETATM   11  H           1     -33.745  -2.185  -9.295  0.00  0.00     0.275 HD
HETATM   12  H           1     -32.636  -1.315 -10.256  0.00  0.00     0.275 HD
HETATM   13  H           1     -34.311  -1.049 -10.438  0.00  0.00     0.275 HD
ENDBRANCH   5  10
ENDBRANCH   3   5
BRANCH   2  14
HETATM   14  C           1     -35.974  -0.746 -13.475  0.00  0.00     0.194 C 
BRANCH  14  15
HETATM   15  C           1     -37.235  -0.067 -12.957  0.00  0.00     0.106 C 
BRANCH  15  16
HETATM   16  S           1     -37.246  -0.113 -11.142  0.00  0.00    -0.180 SA
HETATM   17  H           1     -35.911  -0.043 -10.992  0.00  0.00     0.101 HD
ENDBRANCH  15  16
ENDBRANCH  14  15
BRANCH  14  18
HETATM   18  C           1     -35.173   0.235 -14.294  0.00  0.00     0.197 C 
HETATM   19  O           1     -34.924   1.372 -13.839  0.00  0.00    -0.646 OA
HETATM   20  O           1     -34.760  -0.088 -15.428  0.00  0.00    -0.646 OA
ENDBRANCH  14  18
ENDBRANCH   2  14
TORSDOF 8
ENDMDL
MODEL 2
REMARK VINA RESULT:      -5.5      2.620      3.170
REMARK  8 active torsions:
REMARK  status: ('A' for Active; 'I' for Inactive)
REMARK    1  A    between atoms: C_2  and  S_12 
REMARK    2  A    between atoms: C_2  and  C_3 
REMARK    3  A    between atoms: C_3  and  C_19 
REMARK    4  A    between atoms: C_3  and  N_15 
REMARK    5  A    between atoms: C_4  and  C_16 
REMARK    6  A    between atoms: C_4  and  C_5 
REMARK    7  A    between atoms: C_4  and  N_9 
REMARK    8  A    between atoms: C_5  and  C_6 
REMARK       I    between atoms: N_15  and  C_16 
ROOT
HETATM    1  O           1     -33.567  -1.426 -10.645  0.00  0.00    -0.271 OA
HETATM    2  N           1     -35.575  -1.837 -11.531  0.00  0.00    -0.344 N 
HETATM    3  C           1     -34.382  -2.245 -10.997  0.00  0.00     0.249 C 
HETATM    4  H           1     -36.259  -2.524 -11.825  0.00  0.00     0.163 HD
ENDROOT
BRANCH   3   5
HETATM    5  C           1     -34.085  -3.717 -10.849  0.00  0.00     0.284 C 
BRANCH   5   6
HETATM    6  C           1     -33.336  -4.212 -12.079  0.00  0.00     0.155 C 
BRANCH   6   7
HETATM    7  C           1     -34.287  -4.296 -13.247  0.00  0.00     0.175 C 
HETATM    8  O           1     -35.033  -5.291 -13.375  0.00  0.00    -0.648 OA
HETATM    9  O           1     -34.329  -3.371 -14.087  0.00  0.00    -0.648 OA
ENDBRANCH   6   7
ENDBRANCH   5   6
BRANCH   5  10
HETATM   10  N           1     -35.373  -4.474 -10.709  0.00  0.00    -0.066 N 
HETATM   11  H           1     -35.491  -4.780  -9.717  0.00  0.00     0.275 HD
HETATM   12  H           1     -36.171  -3.856 -10.979  0.00  0.00     0.275 HD
HETATM   13  H           1     -35.354  -5.311 -11.334  0.00  0.00     0.275 HD
ENDBRANCH   5  10
ENDBRANCH   3   5
BRANCH   2  14
HETATM   14  C           1     -35.860  -0.423 -11.673  0.00  0.00     0.194 C 
BRANCH  14  15
HETATM   15  C           1     -36.346  -0.144 -13.090  0.00  0.00     0.106 C 
BRANCH  15  16
HETATM   16  S           1     -35.030   0.680 -14.030  0.00  0.00    -0.180 SA
HETATM   17  H           1     -34.384  -0.446 -14.385  0.00  0.00     0.101 HD
ENDBRANCH  15  16
ENDBRANCH  14  15
BRANCH  14  18
HETATM   18  C           1     -36.929  -0.023 -10.686  0.00  0.00     0.197 C 
HETATM   19  O           1     -38.064  -0.544 -10.750  0.00  0.00    -0.646 OA
HETATM   20  O           1     -36.680   0.828  -9.806  0.00  0.00    -0.646 OA
ENDBRANCH  14  18
ENDBRANCH   2  14
TORSDOF 8
ENDMDL
MODEL 3
REMARK VINA RESULT:      -5.5     10.437     11.461
REMARK  8 active torsions:
REMARK  status: ('A' for Active; 'I' for Inactive)
REMARK    1  A    between atoms: C_2  and  S_12 
REMARK    2  A    between atoms: C_2  and  C_3 
REMARK    3  A    between atoms: C_3  and  C_19 
REMARK    4  A    between atoms: C_3  and  N_15 
REMARK    5  A    between atoms: C_4  and  C_16 
REMARK    6  A    between atoms: C_4  and  C_5 
REMARK    7  A    between atoms: C_4  and  N_9 
REMARK    8  A    between atoms: C_5  and  C_6 
REMARK       I    between atoms: N_15  and  C_16 
ROOT
HETATM    1  O           1     -28.723  -5.157 -18.994  0.00  0.00    -0.271 OA
HETATM    2  N           1     -27.163  -6.750 -18.853  0.00  0.00    -0.344 N 
HETATM    3  C           1     -28.046  -5.867 -18.289  0.00  0.00     0.249 C 
HETATM    4  H           1     -26.597  -7.345 -18.261  0.00  0.00     0.163 HD
ENDROOT
BRANCH   3   5
HETATM    5  C           1     -28.174  -5.782 -16.788  0.00  0.00     0.284 C 
BRANCH   5   6
HETATM    6  C           1     -27.499  -6.989 -16.150  0.00  0.00     0.155 C 
BRANCH   6   7
HETATM    7  C           1     -26.052  -6.665 -15.868  0.00  0.00     0.175 C 
HETATM    8  O           1     -25.307  -7.529 -15.359  0.00  0.00    -0.648 OA
HETATM    9  O           1     -25.600  -5.532 -16.143  0.00  0.00    -0.648 OA
ENDBRANCH   6   7
ENDBRANCH   5   6
BRANCH   5  10
HETATM   10  N           1     -29.626  -5.765 -16.412  0.00  0.00    -0.066 N 
HETATM   11  H           1     -29.934  -6.733 -16.167  0.00  0.00     0.275 HD
HETATM   12  H           1     -29.765  -5.137 -15.588  0.00  0.00     0.275 HD
HETATM   13  H           1     -30.190  -5.412 -17.218  0.00  0.00     0.275 HD
ENDBRANCH   5  10
ENDBRANCH   3   5
BRANCH   2  14
HETATM   14  C           1     -27.041  -6.831 -20.295  0.00  0.00     0.194 C 
BRANCH  14  15
HETATM   15  C           1     -25.587  -6.609 -20.693  0.00  0.00     0.106 C 
BRANCH  15  16
HETATM   16  S           1     -24.503  -7.098 -19.321  0.00  0.00    -0.180 SA
HETATM   17  H           1     -25.443  -7.013 -18.362  0.00  0.00     0.101 HD
ENDBRANCH  15  16
ENDBRANCH  14  15
BRANCH  14  18
HETATM   18  C           1     -27.488  -8.194 -20.761  0.00  0.00     0.197 C 
HETATM   19  O           1     -28.533  -8.701 -20.297  0.00  0.00    -0.646 OA
HETATM   20  O           1     -26.815  -8.816 -21.611  0.00  0.00    -0.646 OA
ENDBRANCH  14  18
ENDBRANCH   2  14
TORSDOF 8
ENDMDL
MODEL 4
REMARK VINA RESULT:      -5.5     11.163     12.041
REMARK  8 active torsions:
REMARK  status: ('A' for Active; 'I' for Inactive)
REMARK    1  A    between atoms: C_2  and  S_12 
REMARK    2  A    between atoms: C_2  and  C_3 
REMARK    3  A    between atoms: C_3  and  C_19 
REMARK    4  A    between atoms: C_3  and  N_15 
REMARK    5  A    between atoms: C_4  and  C_16 
REMARK    6  A    between atoms: C_4  and  C_5 
REMARK    7  A    between atoms: C_4  and  N_9 
REMARK    8  A    between atoms: C_5  and  C_6 
REMARK       I    between atoms: N_15  and  C_16 
ROOT
HETATM    1  O           1     -27.413  -6.049 -20.247  0.00  0.00    -0.271 OA
HETATM    2  N           1     -26.869  -6.289 -18.094  0.00  0.00    -0.344 N 
HETATM    3  C           1     -26.580  -6.364 -19.431  0.00  0.00     0.249 C 
HETATM    4  H           1     -26.170  -6.552 -17.410  0.00  0.00     0.163 HD
ENDROOT
BRANCH   3   5
HETATM    5  C           1     -25.221  -6.839 -19.884  0.00  0.00     0.284 C 
BRANCH   5   6
HETATM    6  C           1     -25.387  -7.898 -20.966  0.00  0.00     0.155 C 
BRANCH   6   7
HETATM    7  C           1     -24.075  -8.092 -21.685  0.00  0.00     0.175 C 
HETATM    8  O           1     -23.980  -7.810 -22.898  0.00  0.00    -0.648 OA
HETATM    9  O           1     -23.083  -8.536 -21.067  0.00  0.00    -0.648 OA
ENDBRANCH   6   7
ENDBRANCH   5   6
BRANCH   5  10
HETATM   10  N           1     -24.484  -7.427 -18.717  0.00  0.00    -0.066 N 
HETATM   11  H           1     -24.499  -8.470 -18.786  0.00  0.00     0.275 HD
HETATM   12  H           1     -23.494  -7.092 -18.727  0.00  0.00     0.275 HD
HETATM   13  H           1     -24.943  -7.128 -17.828  0.00  0.00     0.275 HD
ENDBRANCH   5  10
ENDBRANCH   3   5
BRANCH   2  14
HETATM   14  C           1     -28.175  -5.833 -17.659  0.00  0.00     0.194 C 
BRANCH  14  15
HETATM   15  C           1     -28.968  -7.014 -17.117  0.00  0.00     0.106 C 
BRANCH  15  16
HETATM   16  S           1     -30.259  -7.474 -18.307  0.00  0.00    -0.180 SA
HETATM   17  H           1     -31.259  -6.816 -17.692  0.00  0.00     0.101 HD
ENDBRANCH  15  16
ENDBRANCH  14  15
BRANCH  14  18
HETATM   18  C           1     -28.009  -4.796 -16.575  0.00  0.00     0.197 C 
HETATM   19  O           1     -27.860  -5.154 -15.387  0.00  0.00    -0.646 OA
HETATM   20  O           1     -28.021  -3.581 -16.866  0.00  0.00    -0.646 OA
ENDBRANCH  14  18
ENDBRANCH   2  14
TORSDOF 8
ENDMDL
MODEL 5
REMARK VINA RESULT:      -5.4      8.548     10.148
REMARK  8 active torsions:
REMARK  status: ('A' for Active; 'I' for Inactive)
REMARK    1  A    between atoms: C_2  and  S_12 
REMARK    2  A    between atoms: C_2  and  C_3 
REMARK    3  A    between atoms: C_3  and  C_19 
REMARK    4  A    between atoms: C_3  and  N_15 
REMARK    5  A    between atoms: C_4  and  C_16 
REMARK    6  A    between atoms: C_4  and  C_5 
REMARK    7  A    between atoms: C_4  and  N_9 
REMARK    8  A    between atoms: C_5  and  C_6 
REMARK       I    between atoms: N_15  and  C_16 
ROOT
HETATM    1  O           1     -28.942  -6.826 -16.323  0.00  0.00    -0.271 OA
HETATM    2  N           1     -27.424  -5.605 -17.415  0.00  0.00    -0.344 N 
HETATM    3  C           1     -28.652  -5.770 -16.831  0.00  0.00     0.249 C 
HETATM    4  H           1     -27.181  -4.719 -17.840  0.00  0.00     0.163 HD
ENDROOT
BRANCH   3   5
HETATM    5  C           1     -29.642  -4.631 -16.822  0.00  0.00     0.284 C 
BRANCH   5   6
HETATM    6  C           1     -31.015  -5.147 -17.229  0.00  0.00     0.155 C 
BRANCH   6   7
HETATM    7  C           1     -32.042  -4.059 -17.027  0.00  0.00     0.175 C 
HETATM    8  O           1     -32.880  -4.155 -16.105  0.00  0.00    -0.648 OA
HETATM    9  O           1     -32.054  -3.063 -17.781  0.00  0.00    -0.648 OA
ENDBRANCH   6   7
ENDBRANCH   5   6
BRANCH   5  10
HETATM   10  N           1     -29.197  -3.575 -17.790  0.00  0.00    -0.066 N 
HETATM   11  H           1     -29.977  -2.898 -17.950  0.00  0.00     0.275 HD
HETATM   12  H           1     -28.372  -3.067 -17.397  0.00  0.00     0.275 HD
HETATM   13  H           1     -28.930  -4.023 -18.696  0.00  0.00     0.275 HD
ENDBRANCH   5  10
ENDBRANCH   3   5
BRANCH   2  14
HETATM   14  C           1     -26.474  -6.700 -17.424  0.00  0.00     0.194 C 
BRANCH  14  15
HETATM   15  C           1     -25.579  -6.584 -18.651  0.00  0.00     0.106 C 
BRANCH  15  16
HETATM   16  S           1     -26.600  -6.622 -20.151  0.00  0.00    -0.180 SA
HETATM   17  H           1     -27.099  -7.855 -19.951  0.00  0.00     0.101 HD
ENDBRANCH  15  16
ENDBRANCH  14  15
BRANCH  14  18
HETATM   18  C           1     -25.628  -6.641 -16.176  0.00  0.00     0.197 C 
HETATM   19  O           1     -25.021  -5.589 -15.882  0.00  0.00    -0.646 OA
HETATM   20  O           1     -25.535  -7.644 -15.437  0.00  0.00    -0.646 OA
ENDBRANCH  14  18
ENDBRANCH   2  14
TORSDOF 8
ENDMDL
MODEL 6
REMARK VINA RESULT:      -5.4      2.479      2.844
REMARK  8 active torsions:
REMARK  status: ('A' for Active; 'I' for Inactive)
REMARK    1  A    between atoms: C_2  and  S_12 
REMARK    2  A    between atoms: C_2  and  C_3 
REMARK    3  A    between atoms: C_3  and  C_19 
REMARK    4  A    between atoms: C_3  and  N_15 
REMARK    5  A    between atoms: C_4  and  C_16 
REMARK    6  A    between atoms: C_4  and  C_5 
REMARK    7  A    between atoms: C_4  and  N_9 
REMARK    8  A    between atoms: C_5  and  C_6 
REMARK       I    between atoms: N_15  and  C_16 
ROOT
HETATM    1  O           1     -33.683  -1.876 -10.951  0.00  0.00    -0.271 OA
HETATM    2  N           1     -35.506  -1.895 -12.242  0.00  0.00    -0.344 N 
HETATM    3  C           1     -34.443  -2.514 -11.641  0.00  0.00     0.249 C 
HETATM    4  H           1     -36.142  -2.430 -12.819  0.00  0.00     0.163 HD
ENDROOT
BRANCH   3   5
HETATM    5  C           1     -34.219  -3.993 -11.840  0.00  0.00     0.284 C 
BRANCH   5   6
HETATM    6  C           1     -34.062  -4.670 -10.485  0.00  0.00     0.155 C 
BRANCH   6   7
HETATM    7  C           1     -34.558  -6.092 -10.572  0.00  0.00     0.175 C 
HETATM    8  O           1     -34.793  -6.604 -11.688  0.00  0.00    -0.648 OA
HETATM    9  O           1     -34.733  -6.759  -9.529  0.00  0.00    -0.648 OA
ENDBRANCH   6   7
ENDBRANCH   5   6
BRANCH   5  10
HETATM   10  N           1     -32.976  -4.205 -12.652  0.00  0.00    -0.066 N 
HETATM   11  H           1     -32.979  -5.173 -13.047  0.00  0.00     0.275 HD
HETATM   12  H           1     -32.948  -3.511 -13.433  0.00  0.00     0.275 HD
HETATM   13  H           1     -32.136  -4.077 -12.043  0.00  0.00     0.275 HD
ENDBRANCH   5  10
ENDBRANCH   3   5
BRANCH   2  14
HETATM   14  C           1     -35.719  -0.473 -12.051  0.00  0.00     0.194 C 
BRANCH  14  15
HETATM   15  C           1     -36.200   0.146 -13.357  0.00  0.00     0.106 C 
BRANCH  15  16
HETATM   16  S           1     -34.811   0.974 -14.181  0.00  0.00    -0.180 SA
HETATM   17  H           1     -35.126   2.217 -13.774  0.00  0.00     0.101 HD
ENDBRANCH  15  16
ENDBRANCH  14  15
BRANCH  14  18
HETATM   18  C           1     -36.761  -0.262 -10.980  0.00  0.00     0.197 C 
HETATM   19  O           1     -36.561   0.573 -10.070  0.00  0.00    -0.646 OA
HETATM   20  O           1     -37.822  -0.921 -11.001  0.00  0.00    -0.646 OA
ENDBRANCH  14  18
ENDBRANCH   2  14
TORSDOF 8
ENDMDL
MODEL 7
REMARK VINA RESULT:      -5.3     12.157     13.760
REMARK  8 active torsions:
REMARK  status: ('A' for Active; 'I' for Inactive)
REMARK    1  A    between atoms: C_2  and  S_12 
REMARK    2  A    between atoms: C_2  and  C_3 
REMARK    3  A    between atoms: C_3  and  C_19 
REMARK    4  A    between atoms: C_3  and  N_15 
REMARK    5  A    between atoms: C_4  and  C_16 
REMARK    6  A    between atoms: C_4  and  C_5 
REMARK    7  A    between atoms: C_4  and  N_9 
REMARK    8  A    between atoms: C_5  and  C_6 
REMARK       I    between atoms: N_15  and  C_16 
ROOT
HETATM    1  O           1     -21.575  -3.335  -7.608  0.00  0.00    -0.271 OA
HETATM    2  N           1     -22.412  -4.900  -8.964  0.00  0.00    -0.344 N 
HETATM    3  C           1     -21.783  -4.507  -7.813  0.00  0.00     0.249 C 
HETATM    4  H           1     -22.588  -5.883  -9.134  0.00  0.00     0.163 HD
ENDROOT
BRANCH   3   5
HETATM    5  C           1     -21.351  -5.538  -6.799  0.00  0.00     0.284 C 
BRANCH   5   6
HETATM    6  C           1     -22.523  -5.879  -5.888  0.00  0.00     0.155 C 
BRANCH   6   7
HETATM    7  C           1     -22.016  -6.602  -4.665  0.00  0.00     0.175 C 
HETATM    8  O           1     -21.520  -7.744  -4.775  0.00  0.00    -0.648 OA
HETATM    9  O           1     -22.092  -6.060  -3.541  0.00  0.00    -0.648 OA
ENDBRANCH   6   7
ENDBRANCH   5   6
BRANCH   5  10
HETATM   10  N           1     -20.223  -4.987  -5.977  0.00  0.00    -0.066 N 
HETATM   11  H           1     -19.791  -5.757  -5.419  0.00  0.00     0.275 HD
HETATM   12  H           1     -19.503  -4.570  -6.610  0.00  0.00     0.275 HD
HETATM   13  H           1     -20.589  -4.250  -5.333  0.00  0.00     0.275 HD
ENDBRANCH   5  10
ENDBRANCH   3   5
BRANCH   2  14
HETATM   14  C           1     -22.827  -3.909  -9.937  0.00  0.00     0.194 C 
BRANCH  14  15
HETATM   15  C           1     -22.126  -4.177 -11.262  0.00  0.00     0.106 C 
BRANCH  15  16
HETATM   16  S           1     -20.423  -3.552 -11.183  0.00  0.00    -0.180 SA
HETATM   17  H           1     -20.520  -2.743 -12.254  0.00  0.00     0.101 HD
ENDBRANCH  15  16
ENDBRANCH  14  15
BRANCH  14  18
HETATM   18  C           1     -24.321  -3.991 -10.132  0.00  0.00     0.197 C 
HETATM   19  O           1     -24.918  -3.099 -10.773  0.00  0.00    -0.646 OA
HETATM   20  O           1     -24.961  -4.951  -9.653  0.00  0.00    -0.646 OA
ENDBRANCH  14  18
ENDBRANCH   2  14
TORSDOF 8
ENDMDL
MODEL 8
REMARK VINA RESULT:      -5.0     12.457     14.672
REMARK  8 active torsions:
REMARK  status: ('A' for Active; 'I' for Inactive)
REMARK    1  A    between atoms: C_2  and  S_12 
REMARK    2  A    between atoms: C_2  and  C_3 
REMARK    3  A    between atoms: C_3  and  C_19 
REMARK    4  A    between atoms: C_3  and  N_15 
REMARK    5  A    between atoms: C_4  and  C_16 
REMARK    6  A    between atoms: C_4  and  C_5 
REMARK    7  A    between atoms: C_4  and  N_9 
REMARK    8  A    between atoms: C_5  and  C_6 
REMARK       I    between atoms: N_15  and  C_16 
ROOT
HETATM    1  O           1     -23.753  -4.421  -6.750  0.00  0.00    -0.271 OA
HETATM    2  N           1     -21.789  -5.167  -7.507  0.00  0.00    -0.344 N 
HETATM    3  C           1     -23.034  -4.632  -7.698  0.00  0.00     0.249 C 
HETATM    4  H           1     -21.187  -5.343  -8.302  0.00  0.00     0.163 HD
ENDROOT
BRANCH   3   5
HETATM    5  C           1     -23.510  -4.303  -9.092  0.00  0.00     0.284 C 
BRANCH   5   6
HETATM    6  C           1     -22.328  -3.850  -9.939  0.00  0.00     0.155 C 
BRANCH   6   7
HETATM    7  C           1     -22.602  -4.157 -11.390  0.00  0.00     0.175 C 
HETATM    8  O           1     -21.742  -3.893 -12.257  0.00  0.00    -0.648 OA
HETATM    9  O           1     -23.690  -4.675 -11.726  0.00  0.00    -0.648 OA
ENDBRANCH   6   7
ENDBRANCH   5   6
BRANCH   5  10
HETATM   10  N           1     -24.529  -3.204  -9.025  0.00  0.00    -0.066 N 
HETATM   11  H           1     -25.488  -3.619  -9.028  0.00  0.00     0.275 HD
HETATM   12  H           1     -24.391  -2.654  -8.148  0.00  0.00     0.275 HD
HETATM   13  H           1     -24.416  -2.575  -9.852  0.00  0.00     0.275 HD
ENDBRANCH   5  10
ENDBRANCH   3   5
BRANCH   2  14
HETATM   14  C           1     -21.333  -5.482  -6.167  0.00  0.00     0.194 C 
BRANCH  14  15
HETATM   15  C           1     -21.148  -6.989  -6.037  0.00  0.00     0.106 C 
BRANCH  15  16
HETATM   16  S           1     -21.555  -7.504  -4.345  0.00  0.00    -0.180 SA
HETATM   17  H           1     -21.300  -8.812  -4.531  0.00  0.00     0.101 HD
ENDBRANCH  15  16
ENDBRANCH  14  15
BRANCH  14  18
HETATM   18  C           1     -20.018  -4.789  -5.908  0.00  0.00     0.197 C 
HETATM   19  O           1     -19.761  -4.344  -4.768  0.00  0.00    -0.646 OA
HETATM   20  O           1     -19.188  -4.659  -6.832  0.00  0.00    -0.646 OA
ENDBRANCH  14  18
ENDBRANCH   2  14
TORSDOF 8
ENDMDL
MODEL 9
REMARK VINA RESULT:      -4.9     14.547     16.522
REMARK  8 active torsions:
REMARK  status: ('A' for Active; 'I' for Inactive)
REMARK    1  A    between atoms: C_2  and  S_12 
REMARK    2  A    between atoms: C_2  and  C_3 
REMARK    3  A    between atoms: C_3  and  C_19 
REMARK    4  A    between atoms: C_3  and  N_15 
REMARK    5  A    between atoms: C_4  and  C_16 
REMARK    6  A    between atoms: C_4  and  C_5 
REMARK    7  A    between atoms: C_4  and  N_9 
REMARK    8  A    between atoms: C_5  and  C_6 
REMARK       I    between atoms: N_15  and  C_16 
ROOT
HETATM    1  O           1     -22.647  -5.644  -5.663  0.00  0.00    -0.271 OA
HETATM    2  N           1     -20.878  -6.712  -4.814  0.00  0.00    -0.344 N 
HETATM    3  C           1     -21.449  -5.803  -5.664  0.00  0.00     0.249 C 
HETATM    4  H           1     -19.874  -6.843  -4.815  0.00  0.00     0.163 HD
ENDROOT
BRANCH   3   5
HETATM    5  C           1     -20.583  -4.997  -6.602  0.00  0.00     0.284 C 
BRANCH   5   6
HETATM    6  C           1     -21.433  -3.946  -7.302  0.00  0.00     0.155 C 
BRANCH   6   7
HETATM    7  C           1     -21.502  -4.256  -8.777  0.00  0.00     0.175 C 
HETATM    8  O           1     -20.598  -3.857  -9.542  0.00  0.00    -0.648 OA
HETATM    9  O           1     -22.464  -4.911  -9.234  0.00  0.00    -0.648 OA
ENDBRANCH   6   7
ENDBRANCH   5   6
BRANCH   5  10
HETATM   10  N           1     -19.973  -5.910  -7.624  0.00  0.00    -0.066 N 
HETATM   11  H           1     -19.241  -6.502  -7.170  0.00  0.00     0.275 HD
HETATM   12  H           1     -20.715  -6.524  -8.030  0.00  0.00     0.275 HD
HETATM   13  H           1     -19.539  -5.339  -8.385  0.00  0.00     0.275 HD
ENDBRANCH   5  10
ENDBRANCH   3   5
BRANCH   2  14
HETATM   14  C           1     -21.711  -7.485  -3.914  0.00  0.00     0.194 C 
BRANCH  14  15
HETATM   15  C           1     -21.222  -8.928  -3.886  0.00  0.00     0.106 C 
BRANCH  15  16
HETATM   16  S           1     -19.611  -9.037  -4.714  0.00  0.00    -0.180 SA
HETATM   17  H           1     -20.072  -8.795  -5.954  0.00  0.00     0.101 HD
ENDBRANCH  15  16
ENDBRANCH  14  15
BRANCH  14  18
HETATM   18  C           1     -21.629  -6.899  -2.526  0.00  0.00     0.197 C 
HETATM   19  O           1     -22.309  -5.892  -2.232  0.00  0.00    -0.646 OA
HETATM   20  O           1     -20.882  -7.420  -1.671  0.00  0.00    -0.646 OA
ENDBRANCH  14  18
ENDBRANCH   2  14
TORSDOF 8
ENDMDL
