MODEL 1
REMARK VINA RESULT:      -6.6      0.000      0.000
REMARK  13 active torsions:
REMARK  status: ('A' for Active; 'I' for Inactive)
REMARK    1  A    between atoms: C_6  and  C_16 
REMARK    2  A    between atoms: C_6  and  C_25 
REMARK    3  A    between atoms: C_7  and  C_25 
REMARK    4  A    between atoms: C_12  and  C_14 
REMARK    5  A    between atoms: C_12  and  N_15 
REMARK    6  A    between atoms: C_14  and  C_24 
REMARK    7  A    between atoms: C_16  and  C_18 
REMARK    8  A    between atoms: C_18  and  N_19 
REMARK       I    between atoms: C_21  and  N_22 
REMARK    9  A    between atoms: C_21  and  C_26 
REMARK   10  A    between atoms: N_22  and  C_25 
REMARK   11  A    between atoms: N_23  and  C_26 
REMARK   12  A    between atoms: C_24  and  C_27 
REMARK   13  A    between atoms: C_26  and  C_27 
ROOT
HETATM    1  O           1     -33.811  -1.864 -11.010  0.00  0.00    -0.271 OA
HETATM    2  C           1     -34.364  -2.369 -11.959  0.00  0.00     0.249 C 
HETATM    3  N           1     -35.146  -1.605 -12.782  0.00  0.00    -0.345 N 
HETATM    4  H           1     -35.609  -2.027 -13.576  0.00  0.00     0.163 HD
ENDROOT
BRANCH   2   5
HETATM    5  C           1     -34.195  -3.843 -12.235  0.00  0.00     0.274 C 
BRANCH   5   6
HETATM    6  N           1     -33.583  -4.030 -13.592  0.00  0.00    -0.067 N 
HETATM    7  H           1     -34.309  -4.375 -14.258  0.00  0.00     0.275 HD
HETATM    8  H           1     -33.205  -3.117 -13.932  0.00  0.00     0.275 HD
HETATM    9  H           1     -32.806  -4.727 -13.530  0.00  0.00     0.275 HD
ENDBRANCH   5   6
BRANCH   5  10
HETATM   10  C           1     -33.283  -4.456 -11.179  0.00  0.00     0.042 C 
BRANCH  10  11
HETATM   11  C           1     -33.489  -5.964 -11.145  0.00  0.00     0.004 C 
BRANCH  11  12
HETATM   12  C           1     -34.541  -6.311 -10.100  0.00  0.00     0.027 C 
BRANCH  12  13
HETATM   13  C           1     -34.801  -7.812 -10.119  0.00  0.00     0.229 C 
BRANCH  13  14
HETATM   14  N           1     -33.511  -8.540 -10.356  0.00  0.00    -0.079 N 
HETATM   15  H           1     -32.984  -8.073 -11.128  0.00  0.00     0.274 HD
HETATM   16  H           1     -32.938  -8.526  -9.482  0.00  0.00     0.274 HD
HETATM   17  H           1     -33.714  -9.530 -10.623  0.00  0.00     0.274 HD
ENDBRANCH  13  14
ENDBRANCH  12  13
ENDBRANCH  11  12
ENDBRANCH  10  11
ENDBRANCH   5  10
ENDBRANCH   2   5
BRANCH   3  18
HETATM   18  C           1     -35.309  -0.188 -12.517  0.00  0.00     0.185 C 
BRANCH  18  19
HETATM   19  C           1     -35.431   0.564 -13.836  0.00  0.00     0.038 C 
BRANCH  19  20
HETATM   20  C           1     -35.587  -0.433 -14.977  0.00  0.00     0.030 C 
BRANCH  20  21
HETATM   21  C           1     -36.933  -0.222 -15.656  0.00  0.00     0.230 C 
BRANCH  21  22
HETATM   22  N           1     -37.170   1.246 -15.853  0.00  0.00    -0.079 N 
HETATM   23  H           1     -36.715   1.780 -15.078  0.00  0.00     0.274 HD
HETATM   24  H           1     -36.761   1.546 -16.767  0.00  0.00     0.274 HD
HETATM   25  H           1     -38.197   1.437 -15.851  0.00  0.00     0.274 HD
ENDBRANCH  21  22
ENDBRANCH  20  21
ENDBRANCH  19  20
ENDBRANCH  18  19
BRANCH  18  26
HETATM   26  C           1     -36.557   0.028 -11.696  0.00  0.00     0.196 C 
HETATM   27  O           1     -36.477   0.557 -10.566  0.00  0.00    -0.646 OA
HETATM   28  O           1     -37.669  -0.320 -12.146  0.00  0.00    -0.646 OA
ENDBRANCH  18  26
ENDBRANCH   3  18
TORSDOF 13
ENDMDL
MODEL 2
REMARK VINA RESULT:      -6.2     11.386     12.913
REMARK  13 active torsions:
REMARK  status: ('A' for Active; 'I' for Inactive)
REMARK    1  A    between atoms: C_6  and  C_16 
REMARK    2  A    between atoms: C_6  and  C_25 
REMARK    3  A    between atoms: C_7  and  C_25 
REMARK    4  A    between atoms: C_12  and  C_14 
REMARK    5  A    between atoms: C_12  and  N_15 
REMARK    6  A    between atoms: C_14  and  C_24 
REMARK    7  A    between atoms: C_16  and  C_18 
REMARK    8  A    between atoms: C_18  and  N_19 
REMARK       I    between atoms: C_21  and  N_22 
REMARK    9  A    between atoms: C_21  and  C_26 
REMARK   10  A    between atoms: N_22  and  C_25 
REMARK   11  A    between atoms: N_23  and  C_26 
REMARK   12  A    between atoms: C_24  and  C_27 
REMARK   13  A    between atoms: C_26  and  C_27 
ROOT
HETATM    1  O           1     -24.398  -6.464 -18.511  0.00  0.00    -0.271 OA
HETATM    2  C           1     -25.447  -6.840 -18.978  0.00  0.00     0.249 C 
HETATM    3  N           1     -26.615  -6.628 -18.298  0.00  0.00    -0.345 N 
HETATM    4  H           1     -27.493  -6.943 -18.690  0.00  0.00     0.163 HD
ENDROOT
BRANCH   2   5
HETATM    5  C           1     -25.468  -7.546 -20.312  0.00  0.00     0.274 C 
BRANCH   5   6
HETATM    6  N           1     -26.875  -7.947 -20.643  0.00  0.00    -0.067 N 
HETATM    7  H           1     -27.014  -7.912 -21.677  0.00  0.00     0.275 HD
HETATM    8  H           1     -27.050  -8.919 -20.300  0.00  0.00     0.275 HD
HETATM    9  H           1     -27.543  -7.289 -20.179  0.00  0.00     0.275 HD
ENDBRANCH   5   6
BRANCH   5  10
HETATM   10  C           1     -24.941  -6.609 -21.391  0.00  0.00     0.042 C 
BRANCH  10  11
HETATM   11  C           1     -24.151  -7.410 -22.417  0.00  0.00     0.004 C 
BRANCH  11  12
HETATM   12  C           1     -23.191  -8.350 -21.700  0.00  0.00     0.027 C 
BRANCH  12  13
HETATM   13  C           1     -22.251  -8.988 -22.715  0.00  0.00     0.229 C 
BRANCH  13  14
HETATM   14  N           1     -20.944  -9.310 -22.051  0.00  0.00    -0.079 N 
HETATM   15  H           1     -21.099  -9.457 -21.029  0.00  0.00     0.274 HD
HETATM   16  H           1     -20.545 -10.180 -22.473  0.00  0.00     0.274 HD
HETATM   17  H           1     -20.277  -8.518 -22.192  0.00  0.00     0.274 HD
ENDBRANCH  13  14
ENDBRANCH  12  13
ENDBRANCH  11  12
ENDBRANCH  10  11
ENDBRANCH   5  10
ENDBRANCH   2   5
BRANCH   3  18
HETATM   18  C           1     -26.595  -5.950 -17.017  0.00  0.00     0.185 C 
BRANCH  18  19
HETATM   19  C           1     -27.818  -5.050 -16.899  0.00  0.00     0.038 C 
BRANCH  19  20
HETATM   20  C           1     -28.732  -5.275 -18.097  0.00  0.00     0.030 C 
BRANCH  20  21
HETATM   21  C           1     -30.137  -5.602 -17.610  0.00  0.00     0.230 C 
BRANCH  21  22
HETATM   22  N           1     -30.135  -5.713 -16.114  0.00  0.00    -0.079 N 
HETATM   23  H           1     -29.201  -6.051 -15.791  0.00  0.00     0.274 HD
HETATM   24  H           1     -30.329  -4.775 -15.696  0.00  0.00     0.274 HD
HETATM   25  H           1     -30.874  -6.388 -15.814  0.00  0.00     0.274 HD
ENDBRANCH  21  22
ENDBRANCH  20  21
ENDBRANCH  19  20
ENDBRANCH  18  19
BRANCH  18  26
HETATM   26  C           1     -26.613  -6.972 -15.907  0.00  0.00     0.196 C 
HETATM   27  O           1     -25.538  -7.400 -15.435  0.00  0.00    -0.646 OA
HETATM   28  O           1     -27.703  -7.390 -15.461  0.00  0.00    -0.646 OA
ENDBRANCH  18  26
ENDBRANCH   3  18
TORSDOF 13
ENDMDL
MODEL 3
REMARK VINA RESULT:      -5.7     12.027     14.047
REMARK  13 active torsions:
REMARK  status: ('A' for Active; 'I' for Inactive)
REMARK    1  A    between atoms: C_6  and  C_16 
REMARK    2  A    between atoms: C_6  and  C_25 
REMARK    3  A    between atoms: C_7  and  C_25 
REMARK    4  A    between atoms: C_12  and  C_14 
REMARK    5  A    between atoms: C_12  and  N_15 
REMARK    6  A    between atoms: C_14  and  C_24 
REMARK    7  A    between atoms: C_16  and  C_18 
REMARK    8  A    between atoms: C_18  and  N_19 
REMARK       I    between atoms: C_21  and  N_22 
REMARK    9  A    between atoms: C_21  and  C_26 
REMARK   10  A    between atoms: N_22  and  C_25 
REMARK   11  A    between atoms: N_23  and  C_26 
REMARK   12  A    between atoms: C_24  and  C_27 
REMARK   13  A    between atoms: C_26  and  C_27 
ROOT
HETATM    1  O           1     -21.378  -3.704  -7.653  0.00  0.00    -0.271 OA
HETATM    2  C           1     -22.395  -4.312  -7.413  0.00  0.00     0.249 C 
HETATM    3  N           1     -23.426  -4.302  -8.311  0.00  0.00    -0.345 N 
HETATM    4  H           1     -24.278  -4.812  -8.110  0.00  0.00     0.163 HD
ENDROOT
BRANCH   2   5
HETATM    5  C           1     -22.526  -5.082  -6.121  0.00  0.00     0.274 C 
BRANCH   5   6
HETATM    6  N           1     -23.963  -5.459  -5.908  0.00  0.00    -0.067 N 
HETATM    7  H           1     -24.031  -6.484  -5.725  0.00  0.00     0.275 HD
HETATM    8  H           1     -24.342  -4.932  -5.090  0.00  0.00     0.275 HD
HETATM    9  H           1     -24.515  -5.220  -6.763  0.00  0.00     0.275 HD
ENDBRANCH   5   6
BRANCH   5  10
HETATM   10  C           1     -21.676  -6.344  -6.193  0.00  0.00     0.042 C 
BRANCH  10  11
HETATM   11  C           1     -21.960  -7.217  -4.979  0.00  0.00     0.004 C 
BRANCH  11  12
HETATM   12  C           1     -20.935  -6.926  -3.891  0.00  0.00     0.027 C 
BRANCH  12  13
HETATM   13  C           1     -21.588  -7.074  -2.524  0.00  0.00     0.229 C 
BRANCH  13  14
HETATM   14  N           1     -22.419  -5.859  -2.231  0.00  0.00    -0.079 N 
HETATM   15  H           1     -23.069  -5.683  -3.029  0.00  0.00     0.274 HD
HETATM   16  H           1     -22.970  -6.017  -1.358  0.00  0.00     0.274 HD
HETATM   17  H           1     -21.793  -5.032  -2.103  0.00  0.00     0.274 HD
ENDBRANCH  13  14
ENDBRANCH  12  13
ENDBRANCH  11  12
ENDBRANCH  10  11
ENDBRANCH   5  10
ENDBRANCH   2   5
BRANCH   3  18
HETATM   18  C           1     -23.300  -3.563  -9.552  0.00  0.00     0.185 C 
BRANCH  18  19
HETATM   19  C           1     -22.493  -4.382 -10.551  0.00  0.00     0.038 C 
BRANCH  19  20
HETATM   20  C           1     -21.577  -3.459 -11.343  0.00  0.00     0.030 C 
BRANCH  20  21
HETATM   21  C           1     -20.124  -3.820 -11.060  0.00  0.00     0.230 C 
BRANCH  21  22
HETATM   22  N           1     -20.072  -4.928 -10.050  0.00  0.00    -0.079 N 
HETATM   23  H           1     -21.042  -5.170  -9.747  0.00  0.00     0.274 HD
HETATM   24  H           1     -19.621  -5.768 -10.478  0.00  0.00     0.274 HD
HETATM   25  H           1     -19.516  -4.617  -9.222  0.00  0.00     0.274 HD
ENDBRANCH  21  22
ENDBRANCH  20  21
ENDBRANCH  19  20
ENDBRANCH  18  19
BRANCH  18  26
HETATM   26  C           1     -24.673  -3.290 -10.116  0.00  0.00     0.196 C 
HETATM   27  O           1     -24.943  -3.622 -11.291  0.00  0.00    -0.646 OA
HETATM   28  O           1     -25.540  -2.734  -9.408  0.00  0.00    -0.646 OA
ENDBRANCH  18  26
ENDBRANCH   3  18
TORSDOF 13
ENDMDL
MODEL 4
REMARK VINA RESULT:      -5.5     13.866     17.011
REMARK  13 active torsions:
REMARK  status: ('A' for Active; 'I' for Inactive)
REMARK    1  A    between atoms: C_6  and  C_16 
REMARK    2  A    between atoms: C_6  and  C_25 
REMARK    3  A    between atoms: C_7  and  C_25 
REMARK    4  A    between atoms: C_12  and  C_14 
REMARK    5  A    between atoms: C_12  and  N_15 
REMARK    6  A    between atoms: C_14  and  C_24 
REMARK    7  A    between atoms: C_16  and  C_18 
REMARK    8  A    between atoms: C_18  and  N_19 
REMARK       I    between atoms: C_21  and  N_22 
REMARK    9  A    between atoms: C_21  and  C_26 
REMARK   10  A    between atoms: N_22  and  C_25 
REMARK   11  A    between atoms: N_23  and  C_26 
REMARK   12  A    between atoms: C_24  and  C_27 
REMARK   13  A    between atoms: C_26  and  C_27 
ROOT
HETATM    1  O           1     -22.647  -5.510  -5.824  0.00  0.00    -0.271 OA
HETATM    2  C           1     -21.444  -5.475  -5.715  0.00  0.00     0.249 C 
HETATM    3  N           1     -20.809  -6.338  -4.864  0.00  0.00    -0.345 N 
HETATM    4  H           1     -19.802  -6.309  -4.772  0.00  0.00     0.163 HD
ENDROOT
BRANCH   2   5
HETATM    5  C           1     -20.642  -4.480  -6.516  0.00  0.00     0.274 C 
BRANCH   5   6
HETATM    6  N           1     -19.560  -5.198  -7.267  0.00  0.00    -0.067 N 
HETATM    7  H           1     -19.916  -6.124  -7.592  0.00  0.00     0.275 HD
HETATM    8  H           1     -19.272  -4.626  -8.094  0.00  0.00     0.275 HD
HETATM    9  H           1     -18.737  -5.341  -6.639  0.00  0.00     0.275 HD
ENDBRANCH   5   6
BRANCH   5  10
HETATM   10  C           1     -21.557  -3.767  -7.504  0.00  0.00     0.042 C 
BRANCH  10  11
HETATM   11  C           1     -21.214  -4.204  -8.921  0.00  0.00     0.004 C 
BRANCH  11  12
HETATM   12  C           1     -22.480  -4.232  -9.766  0.00  0.00     0.027 C 
BRANCH  12  13
HETATM   13  C           1     -23.695  -4.027  -8.870  0.00  0.00     0.229 C 
BRANCH  13  14
HETATM   14  N           1     -24.947  -4.234  -9.671  0.00  0.00    -0.079 N 
HETATM   15  H           1     -25.025  -3.486 -10.395  0.00  0.00     0.274 HD
HETATM   16  H           1     -24.912  -5.170 -10.136  0.00  0.00     0.274 HD
HETATM   17  H           1     -25.777  -4.192  -9.036  0.00  0.00     0.274 HD
ENDBRANCH  13  14
ENDBRANCH  12  13
ENDBRANCH  11  12
ENDBRANCH  10  11
ENDBRANCH   5  10
ENDBRANCH   2   5
BRANCH   3  18
HETATM   18  C           1     -21.579  -7.295  -4.094  0.00  0.00     0.185 C 
BRANCH  18  19
HETATM   19  C           1     -20.915  -8.664  -4.175  0.00  0.00     0.038 C 
BRANCH  19  20
HETATM   20  C           1     -19.601  -8.547  -4.936  0.00  0.00     0.030 C 
BRANCH  20  21
HETATM   21  C           1     -18.518  -9.329  -4.204  0.00  0.00     0.230 C 
BRANCH  21  22
HETATM   22  N           1     -18.735  -9.216  -2.723  0.00  0.00    -0.079 N 
HETATM   23  H           1     -17.975  -8.635  -2.303  0.00  0.00     0.274 HD
HETATM   24  H           1     -19.659  -8.764  -2.540  0.00  0.00     0.274 HD
HETATM   25  H           1     -18.721 -10.169  -2.296  0.00  0.00     0.274 HD
ENDBRANCH  21  22
ENDBRANCH  20  21
ENDBRANCH  19  20
ENDBRANCH  18  19
BRANCH  18  26
HETATM   26  C           1     -21.639  -6.849  -2.654  0.00  0.00     0.196 C 
HETATM   27  O           1     -20.916  -7.403  -1.797  0.00  0.00    -0.646 OA
HETATM   28  O           1     -22.410  -5.924  -2.317  0.00  0.00    -0.646 OA
ENDBRANCH  18  26
ENDBRANCH   3  18
TORSDOF 13
ENDMDL
MODEL 5
REMARK VINA RESULT:      -5.5     13.490     16.569
REMARK  13 active torsions:
REMARK  status: ('A' for Active; 'I' for Inactive)
REMARK    1  A    between atoms: C_6  and  C_16 
REMARK    2  A    between atoms: C_6  and  C_25 
REMARK    3  A    between atoms: C_7  and  C_25 
REMARK    4  A    between atoms: C_12  and  C_14 
REMARK    5  A    between atoms: C_12  and  N_15 
REMARK    6  A    between atoms: C_14  and  C_24 
REMARK    7  A    between atoms: C_16  and  C_18 
REMARK    8  A    between atoms: C_18  and  N_19 
REMARK       I    between atoms: C_21  and  N_22 
REMARK    9  A    between atoms: C_21  and  C_26 
REMARK   10  A    between atoms: N_22  and  C_25 
REMARK   11  A    between atoms: N_23  and  C_26 
REMARK   12  A    between atoms: C_24  and  C_27 
REMARK   13  A    between atoms: C_26  and  C_27 
ROOT
HETATM    1  O           1     -19.762  -4.439  -5.305  0.00  0.00    -0.271 OA
HETATM    2  C           1     -20.658  -4.775  -6.043  0.00  0.00     0.249 C 
HETATM    3  N           1     -21.407  -5.882  -5.751  0.00  0.00    -0.345 N 
HETATM    4  H           1     -22.158  -6.163  -6.369  0.00  0.00     0.163 HD
ENDROOT
BRANCH   2   5
HETATM    5  C           1     -20.951  -3.973  -7.288  0.00  0.00     0.274 C 
BRANCH   5   6
HETATM    6  N           1     -19.726  -3.928  -8.153  0.00  0.00    -0.067 N 
HETATM    7  H           1     -18.977  -3.386  -7.670  0.00  0.00     0.275 HD
HETATM    8  H           1     -19.391  -4.902  -8.332  0.00  0.00     0.275 HD
HETATM    9  H           1     -19.959  -3.468  -9.062  0.00  0.00     0.275 HD
ENDBRANCH   5   6
BRANCH   5  10
HETATM   10  C           1     -22.091  -4.628  -8.057  0.00  0.00     0.042 C 
BRANCH  10  11
HETATM   11  C           1     -21.856  -4.463  -9.552  0.00  0.00     0.004 C 
BRANCH  11  12
HETATM   12  C           1     -23.176  -4.151 -10.244  0.00  0.00     0.027 C 
BRANCH  12  13
HETATM   13  C           1     -24.142  -3.533  -9.242  0.00  0.00     0.229 C 
BRANCH  13  14
HETATM   14  N           1     -25.539  -3.600  -9.787  0.00  0.00    -0.079 N 
HETATM   15  H           1     -26.051  -2.724  -9.539  0.00  0.00     0.274 HD
HETATM   16  H           1     -25.503  -3.702 -10.826  0.00  0.00     0.274 HD
HETATM   17  H           1     -26.035  -4.422  -9.373  0.00  0.00     0.274 HD
ENDBRANCH  13  14
ENDBRANCH  12  13
ENDBRANCH  11  12
ENDBRANCH  10  11
ENDBRANCH   5  10
ENDBRANCH   2   5
BRANCH   3  18
HETATM   18  C           1     -21.126  -6.652  -4.555  0.00  0.00     0.185 C 
BRANCH  18  19
HETATM   19  C           1     -22.299  -6.535  -3.589  0.00  0.00     0.038 C 
BRANCH  19  20
HETATM   20  C           1     -21.794  -6.065  -2.231  0.00  0.00     0.030 C 
BRANCH  20  21
HETATM   21  C           1     -22.210  -7.065  -1.160  0.00  0.00     0.230 C 
BRANCH  21  22
HETATM   22  N           1     -21.360  -8.296  -1.268  0.00  0.00    -0.079 N 
HETATM   23  H           1     -21.972  -9.143  -1.284  0.00  0.00     0.274 HD
HETATM   24  H           1     -20.800  -8.256  -2.150  0.00  0.00     0.274 HD
HETATM   25  H           1     -20.716  -8.347  -0.447  0.00  0.00     0.274 HD
ENDBRANCH  21  22
ENDBRANCH  20  21
ENDBRANCH  19  20
ENDBRANCH  18  19
BRANCH  18  26
HETATM   26  C           1     -20.922  -8.100  -4.927  0.00  0.00     0.196 C 
HETATM   27  O           1     -21.581  -8.992  -4.349  0.00  0.00    -0.646 OA
HETATM   28  O           1     -20.096  -8.407  -5.813  0.00  0.00    -0.646 OA
ENDBRANCH  18  26
ENDBRANCH   3  18
TORSDOF 13
ENDMDL
MODEL 6
REMARK VINA RESULT:      -5.5      9.583     11.538
REMARK  13 active torsions:
REMARK  status: ('A' for Active; 'I' for Inactive)
REMARK    1  A    between atoms: C_6  and  C_16 
REMARK    2  A    between atoms: C_6  and  C_25 
REMARK    3  A    between atoms: C_7  and  C_25 
REMARK    4  A    between atoms: C_12  and  C_14 
REMARK    5  A    between atoms: C_12  and  N_15 
REMARK    6  A    between atoms: C_14  and  C_24 
REMARK    7  A    between atoms: C_16  and  C_18 
REMARK    8  A    between atoms: C_18  and  N_19 
REMARK       I    between atoms: C_21  and  N_22 
REMARK    9  A    between atoms: C_21  and  C_26 
REMARK   10  A    between atoms: N_22  and  C_25 
REMARK   11  A    between atoms: N_23  and  C_26 
REMARK   12  A    between atoms: C_24  and  C_27 
REMARK   13  A    between atoms: C_26  and  C_27 
ROOT
HETATM    1  O           1     -28.008  -6.999 -16.114  0.00  0.00    -0.271 OA
HETATM    2  C           1     -27.877  -6.003 -16.785  0.00  0.00     0.249 C 
HETATM    3  N           1     -26.799  -5.877 -17.619  0.00  0.00    -0.345 N 
HETATM    4  H           1     -26.689  -5.043 -18.181  0.00  0.00     0.163 HD
ENDROOT
BRANCH   2   5
HETATM    5  C           1     -28.901  -4.898 -16.704  0.00  0.00     0.274 C 
BRANCH   5   6
HETATM    6  N           1     -28.223  -3.573 -16.895  0.00  0.00    -0.067 N 
HETATM    7  H           1     -28.841  -2.942 -17.451  0.00  0.00     0.275 HD
HETATM    8  H           1     -28.034  -3.142 -15.962  0.00  0.00     0.275 HD
HETATM    9  H           1     -27.321  -3.715 -17.403  0.00  0.00     0.275 HD
ENDBRANCH   5   6
BRANCH   5  10
HETATM   10  C           1     -29.947  -5.094 -17.794  0.00  0.00     0.042 C 
BRANCH  10  11
HETATM   11  C           1     -31.212  -5.682 -17.184  0.00  0.00     0.004 C 
BRANCH  11  12
HETATM   12  C           1     -31.253  -7.181 -17.443  0.00  0.00     0.027 C 
BRANCH  12  13
HETATM   13  C           1     -30.492  -7.498 -18.724  0.00  0.00     0.229 C 
BRANCH  13  14
HETATM   14  N           1     -29.495  -8.587 -18.457  0.00  0.00    -0.079 N 
HETATM   15  H           1     -29.487  -9.256 -19.259  0.00  0.00     0.274 HD
HETATM   16  H           1     -28.544  -8.168 -18.341  0.00  0.00     0.274 HD
HETATM   17  H           1     -29.760  -9.095 -17.583  0.00  0.00     0.274 HD
ENDBRANCH  13  14
ENDBRANCH  12  13
ENDBRANCH  11  12
ENDBRANCH  10  11
ENDBRANCH   5  10
ENDBRANCH   2   5
BRANCH   3  18
HETATM   18  C           1     -25.814  -6.939 -17.697  0.00  0.00     0.185 C 
BRANCH  18  19
HETATM   19  C           1     -24.952  -6.740 -18.938  0.00  0.00     0.038 C 
BRANCH  19  20
HETATM   20  C           1     -25.818  -6.867 -20.184  0.00  0.00     0.030 C 
BRANCH  20  21
HETATM   21  C           1     -25.226  -7.923 -21.109  0.00  0.00     0.230 C 
BRANCH  21  22
HETATM   22  N           1     -23.884  -8.347 -20.589  0.00  0.00    -0.079 N 
HETATM   23  H           1     -23.626  -9.271 -21.003  0.00  0.00     0.274 HD
HETATM   24  H           1     -23.167  -7.635 -20.854  0.00  0.00     0.274 HD
HETATM   25  H           1     -23.925  -8.431 -19.548  0.00  0.00     0.274 HD
ENDBRANCH  21  22
ENDBRANCH  20  21
ENDBRANCH  19  20
ENDBRANCH  18  19
BRANCH  18  26
HETATM   26  C           1     -24.942  -6.906 -16.467  0.00  0.00     0.196 C 
HETATM   27  O           1     -24.810  -5.842 -15.823  0.00  0.00    -0.646 OA
HETATM   28  O           1     -24.353  -7.942 -16.090  0.00  0.00    -0.646 OA
ENDBRANCH  18  26
ENDBRANCH   3  18
TORSDOF 13
ENDMDL
MODEL 7
REMARK VINA RESULT:      -5.4     13.485     15.675
REMARK  13 active torsions:
REMARK  status: ('A' for Active; 'I' for Inactive)
REMARK    1  A    between atoms: C_6  and  C_16 
REMARK    2  A    between atoms: C_6  and  C_25 
REMARK    3  A    between atoms: C_7  and  C_25 
REMARK    4  A    between atoms: C_12  and  C_14 
REMARK    5  A    between atoms: C_12  and  N_15 
REMARK    6  A    between atoms: C_14  and  C_24 
REMARK    7  A    between atoms: C_16  and  C_18 
REMARK    8  A    between atoms: C_18  and  N_19 
REMARK       I    between atoms: C_21  and  N_22 
REMARK    9  A    between atoms: C_21  and  C_26 
REMARK   10  A    between atoms: N_22  and  C_25 
REMARK   11  A    between atoms: N_23  and  C_26 
REMARK   12  A    between atoms: C_24  and  C_27 
REMARK   13  A    between atoms: C_26  and  C_27 
ROOT
HETATM    1  O           1     -21.146  -7.632  -6.461  0.00  0.00    -0.271 OA
HETATM    2  C           1     -21.589  -6.844  -5.659  0.00  0.00     0.249 C 
HETATM    3  N           1     -21.746  -5.530  -6.006  0.00  0.00    -0.345 N 
HETATM    4  H           1     -22.117  -4.870  -5.335  0.00  0.00     0.163 HD
ENDROOT
BRANCH   2   5
HETATM    5  C           1     -21.970  -7.309  -4.275  0.00  0.00     0.274 C 
BRANCH   5   6
HETATM    6  N           1     -21.398  -8.675  -4.032  0.00  0.00    -0.067 N 
HETATM    7  H           1     -20.685  -8.890  -4.763  0.00  0.00     0.275 HD
HETATM    8  H           1     -20.950  -8.701  -3.088  0.00  0.00     0.275 HD
HETATM    9  H           1     -22.165  -9.385  -4.073  0.00  0.00     0.275 HD
ENDBRANCH   5   6
BRANCH   5  10
HETATM   10  C           1     -21.415  -6.336  -3.242  0.00  0.00     0.042 C 
BRANCH  10  11
HETATM   11  C           1     -21.200  -7.065  -1.923  0.00  0.00     0.004 C 
BRANCH  11  12
HETATM   12  C           1     -22.378  -6.798  -0.996  0.00  0.00     0.027 C 
BRANCH  12  13
HETATM   13  C           1     -22.463  -7.902   0.050  0.00  0.00     0.229 C 
BRANCH  13  14
HETATM   14  N           1     -22.652  -9.225  -0.632  0.00  0.00    -0.079 N 
HETATM   15  H           1     -22.644  -9.989   0.080  0.00  0.00     0.274 HD
HETATM   16  H           1     -23.567  -9.227  -1.137  0.00  0.00     0.274 HD
HETATM   17  H           1     -21.877  -9.378  -1.316  0.00  0.00     0.274 HD
ENDBRANCH  13  14
ENDBRANCH  12  13
ENDBRANCH  11  12
ENDBRANCH  10  11
ENDBRANCH   5  10
ENDBRANCH   2   5
BRANCH   3  18
HETATM   18  C           1     -21.381  -5.083  -7.337  0.00  0.00     0.185 C 
BRANCH  18  19
HETATM   19  C           1     -22.415  -4.082  -7.837  0.00  0.00     0.038 C 
BRANCH  19  20
HETATM   20  C           1     -22.957  -4.543  -9.184  0.00  0.00     0.030 C 
BRANCH  20  21
HETATM   21  C           1     -23.873  -3.469  -9.757  0.00  0.00     0.230 C 
BRANCH  21  22
HETATM   22  N           1     -25.301  -3.911  -9.632  0.00  0.00    -0.079 N 
HETATM   23  H           1     -25.915  -3.265 -10.177  0.00  0.00     0.274 HD
HETATM   24  H           1     -25.399  -4.882 -10.006  0.00  0.00     0.274 HD
HETATM   25  H           1     -25.583  -3.894  -8.626  0.00  0.00     0.274 HD
ENDBRANCH  21  22
ENDBRANCH  20  21
ENDBRANCH  19  20
ENDBRANCH  18  19
BRANCH  18  26
HETATM   26  C           1     -20.024  -4.424  -7.290  0.00  0.00     0.196 C 
HETATM   27  O           1     -19.623  -3.750  -8.263  0.00  0.00    -0.646 OA
HETATM   28  O           1     -19.302  -4.552  -6.277  0.00  0.00    -0.646 OA
ENDBRANCH  18  26
ENDBRANCH   3  18
TORSDOF 13
ENDMDL
MODEL 8
REMARK VINA RESULT:      -5.0     10.255     11.569
REMARK  13 active torsions:
REMARK  status: ('A' for Active; 'I' for Inactive)
REMARK    1  A    between atoms: C_6  and  C_16 
REMARK    2  A    between atoms: C_6  and  C_25 
REMARK    3  A    between atoms: C_7  and  C_25 
REMARK    4  A    between atoms: C_12  and  C_14 
REMARK    5  A    between atoms: C_12  and  N_15 
REMARK    6  A    between atoms: C_14  and  C_24 
REMARK    7  A    between atoms: C_16  and  C_18 
REMARK    8  A    between atoms: C_18  and  N_19 
REMARK       I    between atoms: C_21  and  N_22 
REMARK    9  A    between atoms: C_21  and  C_26 
REMARK   10  A    between atoms: N_22  and  C_25 
REMARK   11  A    between atoms: N_23  and  C_26 
REMARK   12  A    between atoms: C_24  and  C_27 
REMARK   13  A    between atoms: C_26  and  C_27 
ROOT
HETATM    1  O           1     -27.607  -5.488 -20.369  0.00  0.00    -0.271 OA
HETATM    2  C           1     -27.292  -6.435 -19.688  0.00  0.00     0.249 C 
HETATM    3  N           1     -27.740  -6.531 -18.398  0.00  0.00    -0.345 N 
HETATM    4  H           1     -27.476  -7.324 -17.828  0.00  0.00     0.163 HD
ENDROOT
BRANCH   2   5
HETATM    5  C           1     -26.404  -7.513 -20.259  0.00  0.00     0.274 C 
BRANCH   5   6
HETATM    6  N           1     -27.215  -8.413 -21.144  0.00  0.00    -0.067 N 
HETATM    7  H           1     -28.187  -8.487 -20.769  0.00  0.00     0.275 HD
HETATM    8  H           1     -27.244  -8.017 -22.110  0.00  0.00     0.275 HD
HETATM    9  H           1     -26.778  -9.362 -21.169  0.00  0.00     0.275 HD
ENDBRANCH   5   6
BRANCH   5  10
HETATM   10  C           1     -25.288  -6.873 -21.075  0.00  0.00     0.042 C 
BRANCH  10  11
HETATM   11  C           1     -24.397  -7.961 -21.658  0.00  0.00     0.004 C 
BRANCH  11  12
HETATM   12  C           1     -23.193  -8.174 -20.751  0.00  0.00     0.027 C 
BRANCH  12  13
HETATM   13  C           1     -23.377  -7.377 -19.466  0.00  0.00     0.229 C 
BRANCH  13  14
HETATM   14  N           1     -22.093  -7.378 -18.688  0.00  0.00    -0.079 N 
HETATM   15  H           1     -21.532  -6.534 -18.943  0.00  0.00     0.274 HD
HETATM   16  H           1     -22.306  -7.360 -17.666  0.00  0.00     0.274 HD
HETATM   17  H           1     -21.548  -8.240 -18.916  0.00  0.00     0.274 HD
ENDBRANCH  13  14
ENDBRANCH  12  13
ENDBRANCH  11  12
ENDBRANCH  10  11
ENDBRANCH   5  10
ENDBRANCH   2   5
BRANCH   3  18
HETATM   18  C           1     -28.593  -5.495 -17.849  0.00  0.00     0.185 C 
BRANCH  18  19
HETATM   19  C           1     -29.870  -6.125 -17.307  0.00  0.00     0.038 C 
BRANCH  19  20
HETATM   20  C           1     -30.671  -5.076 -16.546  0.00  0.00     0.030 C 
BRANCH  20  21
HETATM   21  C           1     -31.419  -4.191 -17.535  0.00  0.00     0.230 C 
BRANCH  21  22
HETATM   22  N           1     -30.796  -2.827 -17.556  0.00  0.00    -0.079 N 
HETATM   23  H           1     -29.912  -2.838 -16.998  0.00  0.00     0.274 HD
HETATM   24  H           1     -30.580  -2.558 -18.543  0.00  0.00     0.274 HD
HETATM   25  H           1     -31.460  -2.134 -17.143  0.00  0.00     0.274 HD
ENDBRANCH  21  22
ENDBRANCH  20  21
ENDBRANCH  19  20
ENDBRANCH  18  19
BRANCH  18  26
HETATM   26  C           1     -27.867  -4.787 -16.732  0.00  0.00     0.196 C 
HETATM   27  O           1     -27.887  -3.538 -16.667  0.00  0.00    -0.646 OA
HETATM   28  O           1     -27.247  -5.448 -15.871  0.00  0.00    -0.646 OA
ENDBRANCH  18  26
ENDBRANCH   3  18
TORSDOF 13
ENDMDL
MODEL 9
REMARK VINA RESULT:      -5.0      9.236     11.441
REMARK  13 active torsions:
REMARK  status: ('A' for Active; 'I' for Inactive)
REMARK    1  A    between atoms: C_6  and  C_16 
REMARK    2  A    between atoms: C_6  and  C_25 
REMARK    3  A    between atoms: C_7  and  C_25 
REMARK    4  A    between atoms: C_12  and  C_14 
REMARK    5  A    between atoms: C_12  and  N_15 
REMARK    6  A    between atoms: C_14  and  C_24 
REMARK    7  A    between atoms: C_16  and  C_18 
REMARK    8  A    between atoms: C_18  and  N_19 
REMARK       I    between atoms: C_21  and  N_22 
REMARK    9  A    between atoms: C_21  and  C_26 
REMARK   10  A    between atoms: N_22  and  C_25 
REMARK   11  A    between atoms: N_23  and  C_26 
REMARK   12  A    between atoms: C_24  and  C_27 
REMARK   13  A    between atoms: C_26  and  C_27 
ROOT
HETATM    1  O           1     -28.138  -7.097 -16.244  0.00  0.00    -0.271 OA
HETATM    2  C           1     -27.969  -6.034 -16.792  0.00  0.00     0.249 C 
HETATM    3  N           1     -26.852  -5.826 -17.554  0.00  0.00    -0.345 N 
HETATM    4  H           1     -26.710  -4.936 -18.014  0.00  0.00     0.163 HD
ENDROOT
BRANCH   2   5
HETATM    5  C           1     -28.990  -4.933 -16.635  0.00  0.00     0.274 C 
BRANCH   5   6
HETATM    6  N           1     -28.352  -3.612 -16.948  0.00  0.00    -0.067 N 
HETATM    7  H           1     -29.091  -2.880 -17.039  0.00  0.00     0.275 HD
HETATM    8  H           1     -27.696  -3.351 -16.177  0.00  0.00     0.275 HD
HETATM    9  H           1     -27.822  -3.685 -17.846  0.00  0.00     0.275 HD
ENDBRANCH   5   6
BRANCH   5  10
HETATM   10  C           1     -30.149  -5.176 -17.593  0.00  0.00     0.042 C 
BRANCH  10  11
HETATM   11  C           1     -31.458  -4.802 -16.910  0.00  0.00     0.004 C 
BRANCH  11  12
HETATM   12  C           1     -32.038  -3.557 -17.567  0.00  0.00     0.027 C 
BRANCH  12  13
HETATM   13  C           1     -33.507  -3.420 -17.190  0.00  0.00     0.229 C 
BRANCH  13  14
HETATM   14  N           1     -33.790  -4.246 -15.970  0.00  0.00    -0.079 N 
HETATM   15  H           1     -33.379  -5.199 -16.092  0.00  0.00     0.274 HD
HETATM   16  H           1     -33.365  -3.786 -15.133  0.00  0.00     0.274 HD
HETATM   17  H           1     -34.823  -4.327 -15.836  0.00  0.00     0.274 HD
ENDBRANCH  13  14
ENDBRANCH  12  13
ENDBRANCH  11  12
ENDBRANCH  10  11
ENDBRANCH   5  10
ENDBRANCH   2   5
BRANCH   3  18
HETATM   18  C           1     -25.871  -6.884 -17.705  0.00  0.00     0.185 C 
BRANCH  18  19
HETATM   19  C           1     -25.031  -6.623 -18.949  0.00  0.00     0.038 C 
BRANCH  19  20
HETATM   20  C           1     -25.708  -7.252 -20.160  0.00  0.00     0.030 C 
BRANCH  20  21
HETATM   21  C           1     -24.678  -7.470 -21.261  0.00  0.00     0.230 C 
BRANCH  21  22
HETATM   22  N           1     -23.784  -8.616 -20.890  0.00  0.00    -0.079 N 
HETATM   23  H           1     -24.098  -9.479 -21.388  0.00  0.00     0.274 HD
HETATM   24  H           1     -22.801  -8.394 -21.167  0.00  0.00     0.274 HD
HETATM   25  H           1     -23.829  -8.772 -19.858  0.00  0.00     0.274 HD
ENDBRANCH  21  22
ENDBRANCH  20  21
ENDBRANCH  19  20
ENDBRANCH  18  19
BRANCH  18  26
HETATM   26  C           1     -24.976  -6.915 -16.491  0.00  0.00     0.196 C 
HETATM   27  O           1     -24.834  -5.887 -15.793  0.00  0.00    -0.646 OA
HETATM   28  O           1     -24.378  -7.968 -16.182  0.00  0.00    -0.646 OA
ENDBRANCH  18  26
ENDBRANCH   3  18
TORSDOF 13
ENDMDL
