MODEL 1
REMARK VINA RESULT:      -6.4      0.000      0.000
REMARK  6 active torsions:
REMARK  status: ('A' for Active; 'I' for Inactive)
REMARK    1  A    between atoms: N_2  and  C_12 
REMARK    2  A    between atoms: C_8  and  C_12 
REMARK    3  A    between atoms: C_8  and  C_13 
REMARK    4  A    between atoms: C_9  and  C_17 
REMARK       I    between atoms: N_10  and  C_11 
REMARK    5  A    between atoms: C_11  and  C_12 
REMARK    6  A    between atoms: C_13  and  C_14 
REMARK       I    between atoms: C_14  and  N_15 
ROOT
HETATM    1  C           1     -20.396  -5.415  -7.348  0.00  0.00     0.275 C 
ENDROOT
BRANCH   1   2
HETATM    2  N           1     -19.670  -4.546  -6.362  0.00  0.00    -0.066 N 
HETATM    3  H           1     -18.651  -4.533  -6.594  0.00  0.00     0.275 HD
HETATM    4  H           1     -20.051  -3.574  -6.410  0.00  0.00     0.275 HD
HETATM    5  H           1     -19.804  -4.926  -5.399  0.00  0.00     0.275 HD
ENDBRANCH   1   2
BRANCH   1   6
HETATM    6  C           1     -21.020  -6.597  -6.619  0.00  0.00     0.052 C 
BRANCH   6   7
HETATM    7  C           1     -20.714  -6.495  -5.129  0.00  0.00     0.105 C 
BRANCH   7   8
HETATM    8  C           1     -21.998  -6.284  -4.365  0.00  0.00     0.215 C 
HETATM    9  O           1     -23.053  -6.251  -4.953  0.00  0.00    -0.274 OA
HETATM   10  N           1     -21.967  -6.132  -3.005  0.00  0.00    -0.370 N 
HETATM   11  H           1     -22.828  -5.991  -2.492  0.00  0.00     0.159 HD
HETATM   12  H           1     -21.084  -6.159  -2.512  0.00  0.00     0.159 HD
ENDBRANCH   7   8
ENDBRANCH   6   7
ENDBRANCH   1   6
BRANCH   1  13
HETATM   13  C           1     -21.480  -4.611  -8.023  0.00  0.00     0.251 C 
HETATM   14  O           1     -22.378  -4.138  -7.369  0.00  0.00    -0.271 OA
HETATM   15  N           1     -21.444  -4.417  -9.378  0.00  0.00    -0.336 N 
HETATM   16  C           1     -22.399  -3.673 -10.195  0.00  0.00     0.188 C 
HETATM   17  C           1     -20.444  -4.908 -10.321  0.00  0.00     0.127 C 
HETATM   18  C           1     -21.523  -2.927 -11.186  0.00  0.00     0.038 C 
HETATM   19  C           1     -20.238  -3.743 -11.273  0.00  0.00     0.022 C 
BRANCH  16  20
HETATM   20  C           1     -23.341  -4.611 -10.910  0.00  0.00     0.196 C 
HETATM   21  O           1     -23.426  -4.580 -12.156  0.00  0.00    -0.646 OA
HETATM   22  O           1     -24.035  -5.419 -10.256  0.00  0.00    -0.646 OA
ENDBRANCH  16  20
ENDBRANCH   1  13
TORSDOF 6
ENDMDL
MODEL 2
REMARK VINA RESULT:      -5.9      2.018      6.222
REMARK  6 active torsions:
REMARK  status: ('A' for Active; 'I' for Inactive)
REMARK    1  A    between atoms: N_2  and  C_12 
REMARK    2  A    between atoms: C_8  and  C_12 
REMARK    3  A    between atoms: C_8  and  C_13 
REMARK    4  A    between atoms: C_9  and  C_17 
REMARK       I    between atoms: N_10  and  C_11 
REMARK    5  A    between atoms: C_11  and  C_12 
REMARK    6  A    between atoms: C_13  and  C_14 
REMARK       I    between atoms: C_14  and  N_15 
ROOT
HETATM    1  C           1     -20.828  -4.897  -6.979  0.00  0.00     0.275 C 
ENDROOT
BRANCH   1   2
HETATM    2  N           1     -20.428  -5.831  -8.084  0.00  0.00    -0.066 N 
HETATM    3  H           1     -19.679  -6.475  -7.740  0.00  0.00     0.275 HD
HETATM    4  H           1     -21.258  -6.390  -8.384  0.00  0.00     0.275 HD
HETATM    5  H           1     -20.067  -5.278  -8.893  0.00  0.00     0.275 HD
ENDBRANCH   1   2
BRANCH   1   6
HETATM    6  C           1     -21.533  -3.684  -7.571  0.00  0.00     0.052 C 
BRANCH   6   7
HETATM    7  C           1     -21.756  -3.903  -9.063  0.00  0.00     0.105 C 
BRANCH   7   8
HETATM    8  C           1     -23.213  -3.692  -9.390  0.00  0.00     0.215 C 
HETATM    9  O           1     -23.539  -3.343 -10.500  0.00  0.00    -0.274 OA
HETATM   10  N           1     -24.166  -3.898  -8.430  0.00  0.00    -0.370 N 
HETATM   11  H           1     -25.144  -3.757  -8.650  0.00  0.00     0.159 HD
HETATM   12  H           1     -23.894  -4.191  -7.500  0.00  0.00     0.159 HD
ENDBRANCH   7   8
ENDBRANCH   6   7
ENDBRANCH   1   6
BRANCH   1  13
HETATM   13  C           1     -21.763  -5.610  -6.033  0.00  0.00     0.251 C 
HETATM   14  O           1     -22.924  -5.286  -5.973  0.00  0.00    -0.271 OA
HETATM   15  N           1     -21.294  -6.626  -5.244  0.00  0.00    -0.336 N 
HETATM   16  C           1     -22.046  -7.421  -4.278  0.00  0.00     0.188 C 
HETATM   17  C           1     -19.932  -7.150  -5.184  0.00  0.00     0.127 C 
HETATM   18  C           1     -21.518  -8.831  -4.481  0.00  0.00     0.038 C 
HETATM   19  C           1     -20.125  -8.652  -5.072  0.00  0.00     0.022 C 
BRANCH  16  20
HETATM   20  C           1     -21.784  -6.947  -2.869  0.00  0.00     0.196 C 
HETATM   21  O           1     -21.419  -7.761  -1.994  0.00  0.00    -0.646 OA
HETATM   22  O           1     -21.933  -5.740  -2.578  0.00  0.00    -0.646 OA
ENDBRANCH  16  20
ENDBRANCH   1  13
TORSDOF 6
ENDMDL
MODEL 3
REMARK VINA RESULT:      -5.8      2.050      2.751
REMARK  6 active torsions:
REMARK  status: ('A' for Active; 'I' for Inactive)
REMARK    1  A    between atoms: N_2  and  C_12 
REMARK    2  A    between atoms: C_8  and  C_12 
REMARK    3  A    between atoms: C_8  and  C_13 
REMARK    4  A    between atoms: C_9  and  C_17 
REMARK       I    between atoms: N_10  and  C_11 
REMARK    5  A    between atoms: C_11  and  C_12 
REMARK    6  A    between atoms: C_13  and  C_14 
REMARK       I    between atoms: C_14  and  N_15 
ROOT
HETATM    1  C           1     -21.643  -4.568  -6.587  0.00  0.00     0.275 C 
ENDROOT
BRANCH   1   2
HETATM    2  N           1     -22.936  -5.182  -6.137  0.00  0.00    -0.066 N 
HETATM    3  H           1     -23.673  -5.010  -6.859  0.00  0.00     0.275 HD
HETATM    4  H           1     -22.807  -6.211  -6.009  0.00  0.00     0.275 HD
HETATM    5  H           1     -23.229  -4.752  -5.231  0.00  0.00     0.275 HD
ENDBRANCH   1   2
BRANCH   1   6
HETATM    6  C           1     -20.512  -5.053  -5.690  0.00  0.00     0.052 C 
BRANCH   6   7
HETATM    7  C           1     -21.066  -6.021  -4.651  0.00  0.00     0.105 C 
BRANCH   7   8
HETATM    8  C           1     -20.477  -7.391  -4.876  0.00  0.00     0.215 C 
HETATM    9  O           1     -20.647  -8.264  -4.058  0.00  0.00    -0.274 OA
HETATM   10  N           1     -19.750  -7.646  -6.008  0.00  0.00    -0.370 N 
HETATM   11  H           1     -19.355  -8.565  -6.159  0.00  0.00     0.159 HD
HETATM   12  H           1     -19.607  -6.915  -6.693  0.00  0.00     0.159 HD
ENDBRANCH   7   8
ENDBRANCH   6   7
ENDBRANCH   1   6
BRANCH   1  13
HETATM   13  C           1     -21.364  -4.974  -8.013  0.00  0.00     0.251 C 
HETATM   14  O           1     -20.486  -5.767  -8.254  0.00  0.00    -0.271 OA
HETATM   15  N           1     -22.107  -4.445  -9.033  0.00  0.00    -0.336 N 
HETATM   16  C           1     -21.979  -4.719 -10.462  0.00  0.00     0.188 C 
HETATM   17  C           1     -23.200  -3.482  -8.931  0.00  0.00     0.127 C 
HETATM   18  C           1     -23.417  -4.799 -10.945  0.00  0.00     0.038 C 
HETATM   19  C           1     -24.220  -3.980  -9.940  0.00  0.00     0.022 C 
BRANCH  16  20
HETATM   20  C           1     -21.239  -3.604 -11.160  0.00  0.00     0.196 C 
HETATM   21  O           1     -20.067  -3.328 -10.826  0.00  0.00    -0.646 OA
HETATM   22  O           1     -21.798  -2.957 -12.071  0.00  0.00    -0.646 OA
ENDBRANCH  16  20
ENDBRANCH   1  13
TORSDOF 6
ENDMDL
MODEL 4
REMARK VINA RESULT:      -5.7      2.249      6.155
REMARK  6 active torsions:
REMARK  status: ('A' for Active; 'I' for Inactive)
REMARK    1  A    between atoms: N_2  and  C_12 
REMARK    2  A    between atoms: C_8  and  C_12 
REMARK    3  A    between atoms: C_8  and  C_13 
REMARK    4  A    between atoms: C_9  and  C_17 
REMARK       I    between atoms: N_10  and  C_11 
REMARK    5  A    between atoms: C_11  and  C_12 
REMARK    6  A    between atoms: C_13  and  C_14 
REMARK       I    between atoms: C_14  and  N_15 
ROOT
HETATM    1  C           1     -21.589  -5.063  -7.184  0.00  0.00     0.275 C 
ENDROOT
BRANCH   1   2
HETATM    2  N           1     -21.034  -3.728  -6.780  0.00  0.00    -0.066 N 
HETATM    3  H           1     -20.684  -3.780  -5.796  0.00  0.00     0.275 HD
HETATM    4  H           1     -20.245  -3.473  -7.417  0.00  0.00     0.275 HD
HETATM    5  H           1     -21.784  -3.005  -6.846  0.00  0.00     0.275 HD
ENDBRANCH   1   2
BRANCH   1   6
HETATM    6  C           1     -21.570  -5.182  -8.701  0.00  0.00     0.052 C 
BRANCH   6   7
HETATM    7  C           1     -22.166  -3.922  -9.318  0.00  0.00     0.105 C 
BRANCH   7   8
HETATM    8  C           1     -23.630  -4.147  -9.606  0.00  0.00     0.215 C 
HETATM    9  O           1     -23.971  -5.039 -10.345  0.00  0.00    -0.274 OA
HETATM   10  N           1     -24.572  -3.340  -9.027  0.00  0.00    -0.370 N 
HETATM   11  H           1     -25.554  -3.490  -9.219  0.00  0.00     0.159 HD
HETATM   12  H           1     -24.287  -2.592  -8.407  0.00  0.00     0.159 HD
ENDBRANCH   7   8
ENDBRANCH   6   7
ENDBRANCH   1   6
BRANCH   1  13
HETATM   13  C           1     -20.746  -6.160  -6.583  0.00  0.00     0.251 C 
HETATM   14  O           1     -19.724  -6.504  -7.127  0.00  0.00    -0.271 OA
HETATM   15  N           1     -21.139  -6.765  -5.419  0.00  0.00    -0.336 N 
HETATM   16  C           1     -20.455  -7.836  -4.699  0.00  0.00     0.188 C 
HETATM   17  C           1     -22.333  -6.482  -4.628  0.00  0.00     0.127 C 
HETATM   18  C           1     -20.605  -7.443  -3.239  0.00  0.00     0.038 C 
HETATM   19  C           1     -21.844  -6.555  -3.191  0.00  0.00     0.022 C 
BRANCH  16  20
HETATM   20  C           1     -21.110  -9.169  -4.966  0.00  0.00     0.196 C 
HETATM   21  O           1     -21.627  -9.810  -4.026  0.00  0.00    -0.646 OA
HETATM   22  O           1     -21.136  -9.632  -6.127  0.00  0.00    -0.646 OA
ENDBRANCH  16  20
ENDBRANCH   1  13
TORSDOF 6
ENDMDL
MODEL 5
REMARK VINA RESULT:      -5.5      2.659      7.063
REMARK  6 active torsions:
REMARK  status: ('A' for Active; 'I' for Inactive)
REMARK    1  A    between atoms: N_2  and  C_12 
REMARK    2  A    between atoms: C_8  and  C_12 
REMARK    3  A    between atoms: C_8  and  C_13 
REMARK    4  A    between atoms: C_9  and  C_17 
REMARK       I    between atoms: N_10  and  C_11 
REMARK    5  A    between atoms: C_11  and  C_12 
REMARK    6  A    between atoms: C_13  and  C_14 
REMARK       I    between atoms: C_14  and  N_15 
ROOT
HETATM    1  C           1     -20.501  -6.018  -5.517  0.00  0.00     0.275 C 
ENDROOT
BRANCH   1   2
HETATM    2  N           1     -20.389  -6.911  -6.718  0.00  0.00    -0.066 N 
HETATM    3  H           1     -19.787  -6.452  -7.439  0.00  0.00     0.275 HD
HETATM    4  H           1     -19.961  -7.822  -6.435  0.00  0.00     0.275 HD
HETATM    5  H           1     -21.340  -7.081  -7.115  0.00  0.00     0.275 HD
ENDBRANCH   1   2
BRANCH   1   6
HETATM    6  C           1     -20.893  -4.616  -5.963  0.00  0.00     0.052 C 
BRANCH   6   7
HETATM    7  C           1     -21.063  -4.592  -7.477  0.00  0.00     0.105 C 
BRANCH   7   8
HETATM    8  C           1     -22.467  -4.159  -7.819  0.00  0.00     0.215 C 
HETATM    9  O           1     -22.683  -3.569  -8.850  0.00  0.00    -0.274 OA
HETATM   10  N           1     -23.496  -4.439  -6.961  0.00  0.00    -0.370 N 
HETATM   11  H           1     -24.439  -4.148  -7.191  0.00  0.00     0.159 HD
HETATM   12  H           1     -23.316  -4.934  -6.097  0.00  0.00     0.159 HD
ENDBRANCH   7   8
ENDBRANCH   6   7
ENDBRANCH   1   6
BRANCH   1  13
HETATM   13  C           1     -21.554  -6.562  -4.584  0.00  0.00     0.251 C 
HETATM   14  O           1     -22.703  -6.209  -4.697  0.00  0.00    -0.271 OA
HETATM   15  N           1     -21.207  -7.458  -3.608  0.00  0.00    -0.336 N 
HETATM   16  C           1     -22.084  -8.084  -2.623  0.00  0.00     0.188 C 
HETATM   17  C           1     -19.879  -7.995  -3.325  0.00  0.00     0.127 C 
HETATM   18  C           1     -21.590  -9.519  -2.559  0.00  0.00     0.038 C 
HETATM   19  C           1     -20.137  -9.460  -3.016  0.00  0.00     0.022 C 
BRANCH  16  20
HETATM   20  C           1     -21.953  -7.410  -1.279  0.00  0.00     0.196 C 
HETATM   21  O           1     -22.355  -6.236  -1.127  0.00  0.00    -0.646 OA
HETATM   22  O           1     -21.440  -8.024  -0.318  0.00  0.00    -0.646 OA
ENDBRANCH  16  20
ENDBRANCH   1  13
TORSDOF 6
ENDMDL
MODEL 6
REMARK VINA RESULT:      -5.4      4.215      8.852
REMARK  6 active torsions:
REMARK  status: ('A' for Active; 'I' for Inactive)
REMARK    1  A    between atoms: N_2  and  C_12 
REMARK    2  A    between atoms: C_8  and  C_12 
REMARK    3  A    between atoms: C_8  and  C_13 
REMARK    4  A    between atoms: C_9  and  C_17 
REMARK       I    between atoms: N_10  and  C_11 
REMARK    5  A    between atoms: C_11  and  C_12 
REMARK    6  A    between atoms: C_13  and  C_14 
REMARK       I    between atoms: C_14  and  N_15 
ROOT
HETATM    1  C           1     -21.972  -6.588  -2.801  0.00  0.00     0.275 C 
ENDROOT
BRANCH   1   2
HETATM    2  N           1     -22.213  -5.564  -1.730  0.00  0.00    -0.066 N 
HETATM    3  H           1     -23.227  -5.312  -1.711  0.00  0.00     0.275 HD
HETATM    4  H           1     -21.935  -5.960  -0.803  0.00  0.00     0.275 HD
HETATM    5  H           1     -21.645  -4.711  -1.930  0.00  0.00     0.275 HD
ENDBRANCH   1   2
BRANCH   1   6
HETATM    6  C           1     -21.172  -5.959  -3.933  0.00  0.00     0.052 C 
BRANCH   6   7
HETATM    7  C           1     -21.853  -6.256  -5.263  0.00  0.00     0.105 C 
BRANCH   7   8
HETATM    8  C           1     -20.832  -6.772  -6.247  0.00  0.00     0.215 C 
HETATM    9  O           1     -20.810  -6.342  -7.376  0.00  0.00    -0.274 OA
HETATM   10  N           1     -19.929  -7.725  -5.859  0.00  0.00    -0.370 N 
HETATM   11  H           1     -19.244  -8.071  -6.519  0.00  0.00     0.159 HD
HETATM   12  H           1     -19.947  -8.085  -4.913  0.00  0.00     0.159 HD
ENDBRANCH   7   8
ENDBRANCH   6   7
ENDBRANCH   1   6
BRANCH   1  13
HETATM   13  C           1     -21.200  -7.748  -2.222  0.00  0.00     0.251 C 
HETATM   14  O           1     -20.232  -8.178  -2.801  0.00  0.00    -0.271 OA
HETATM   15  N           1     -21.597  -8.312  -1.039  0.00  0.00    -0.336 N 
HETATM   16  C           1     -20.977  -9.432  -0.336  0.00  0.00     0.188 C 
HETATM   17  C           1     -22.733  -7.927  -0.207  0.00  0.00     0.127 C 
HETATM   18  C           1     -21.038  -9.020   1.125  0.00  0.00     0.038 C 
HETATM   19  C           1     -22.198  -8.033   1.211  0.00  0.00     0.022 C 
BRANCH  16  20
HETATM   20  C           1     -21.750 -10.707  -0.567  0.00  0.00     0.196 C 
HETATM   21  O           1     -22.051 -11.052  -1.730  0.00  0.00    -0.646 OA
HETATM   22  O           1     -22.090 -11.418   0.403  0.00  0.00    -0.646 OA
ENDBRANCH  16  20
ENDBRANCH   1  13
TORSDOF 6
ENDMDL
MODEL 7
REMARK VINA RESULT:      -5.2      4.947      9.475
REMARK  6 active torsions:
REMARK  status: ('A' for Active; 'I' for Inactive)
REMARK    1  A    between atoms: N_2  and  C_12 
REMARK    2  A    between atoms: C_8  and  C_12 
REMARK    3  A    between atoms: C_8  and  C_13 
REMARK    4  A    between atoms: C_9  and  C_17 
REMARK       I    between atoms: N_10  and  C_11 
REMARK    5  A    between atoms: C_11  and  C_12 
REMARK    6  A    between atoms: C_13  and  C_14 
REMARK       I    between atoms: C_14  and  N_15 
ROOT
HETATM    1  C           1     -22.002  -7.411  -2.150  0.00  0.00     0.275 C 
ENDROOT
BRANCH   1   2
HETATM    2  N           1     -22.371  -5.971  -1.945  0.00  0.00    -0.066 N 
HETATM    3  H           1     -21.617  -5.360  -2.332  0.00  0.00     0.275 HD
HETATM    4  H           1     -23.270  -5.770  -2.439  0.00  0.00     0.275 HD
HETATM    5  H           1     -22.483  -5.783  -0.924  0.00  0.00     0.275 HD
ENDBRANCH   1   2
BRANCH   1   6
HETATM    6  C           1     -20.565  -7.501  -2.645  0.00  0.00     0.052 C 
BRANCH   6   7
HETATM    7  C           1     -20.549  -8.048  -4.067  0.00  0.00     0.105 C 
BRANCH   7   8
HETATM    8  C           1     -20.772  -6.920  -5.043  0.00  0.00     0.215 C 
HETATM    9  O           1     -20.808  -5.779  -4.650  0.00  0.00    -0.274 OA
HETATM   10  N           1     -20.930  -7.190  -6.376  0.00  0.00    -0.370 N 
HETATM   11  H           1     -21.079  -6.434  -7.031  0.00  0.00     0.159 HD
HETATM   12  H           1     -20.899  -8.147  -6.706  0.00  0.00     0.159 HD
ENDBRANCH   7   8
ENDBRANCH   6   7
ENDBRANCH   1   6
BRANCH   1  13
HETATM   13  C           1     -22.132  -8.154  -0.843  0.00  0.00     0.251 C 
HETATM   14  O           1     -21.991  -7.566   0.202  0.00  0.00    -0.271 OA
HETATM   15  N           1     -22.411  -9.494  -0.842  0.00  0.00    -0.336 N 
HETATM   16  C           1     -22.570 -10.369   0.316  0.00  0.00     0.188 C 
HETATM   17  C           1     -22.613 -10.362  -1.999  0.00  0.00     0.127 C 
HETATM   18  C           1     -23.742 -11.259  -0.061  0.00  0.00     0.038 C 
HETATM   19  C           1     -23.767 -11.258  -1.585  0.00  0.00     0.022 C 
BRANCH  16  20
HETATM   20  C           1     -21.325 -11.189   0.547  0.00  0.00     0.196 C 
HETATM   21  O           1     -21.415 -12.423   0.728  0.00  0.00    -0.646 OA
HETATM   22  O           1     -20.204 -10.636   0.558  0.00  0.00    -0.646 OA
ENDBRANCH  16  20
ENDBRANCH   1  13
TORSDOF 6
ENDMDL
MODEL 8
REMARK VINA RESULT:      -5.1      6.148     10.627
REMARK  6 active torsions:
REMARK  status: ('A' for Active; 'I' for Inactive)
REMARK    1  A    between atoms: N_2  and  C_12 
REMARK    2  A    between atoms: C_8  and  C_12 
REMARK    3  A    between atoms: C_8  and  C_13 
REMARK    4  A    between atoms: C_9  and  C_17 
REMARK       I    between atoms: N_10  and  C_11 
REMARK    5  A    between atoms: C_11  and  C_12 
REMARK    6  A    between atoms: C_13  and  C_14 
REMARK       I    between atoms: C_14  and  N_15 
ROOT
HETATM    1  C           1     -22.541  -8.534  -0.301  0.00  0.00     0.275 C 
ENDROOT
BRANCH   1   2
HETATM    2  N           1     -23.549  -7.903   0.614  0.00  0.00    -0.066 N 
HETATM    3  H           1     -24.509  -8.214   0.342  0.00  0.00     0.275 HD
HETATM    4  H           1     -23.355  -8.196   1.599  0.00  0.00     0.275 HD
HETATM    5  H           1     -23.485  -6.864   0.539  0.00  0.00     0.275 HD
ENDBRANCH   1   2
BRANCH   1   6
HETATM    6  C           1     -21.560  -7.474  -0.782  0.00  0.00     0.052 C 
BRANCH   6   7
HETATM    7  C           1     -22.274  -6.507  -1.718  0.00  0.00     0.105 C 
BRANCH   7   8
HETATM    8  C           1     -21.782  -6.717  -3.129  0.00  0.00     0.215 C 
HETATM    9  O           1     -22.250  -6.069  -4.035  0.00  0.00    -0.274 OA
HETATM   10  N           1     -20.802  -7.639  -3.382  0.00  0.00    -0.370 N 
HETATM   11  H           1     -20.472  -7.780  -4.328  0.00  0.00     0.159 HD
HETATM   12  H           1     -20.409  -8.182  -2.623  0.00  0.00     0.159 HD
ENDBRANCH   7   8
ENDBRANCH   6   7
ENDBRANCH   1   6
BRANCH   1  13
HETATM   13  C           1     -21.793  -9.613   0.442  0.00  0.00     0.251 C 
HETATM   14  O           1     -20.949  -9.314   1.252  0.00  0.00    -0.271 OA
HETATM   15  N           1     -22.073 -10.931   0.200  0.00  0.00    -0.336 N 
HETATM   16  C           1     -21.454 -12.100   0.819  0.00  0.00     0.188 C 
HETATM   17  C           1     -23.053 -11.475  -0.735  0.00  0.00     0.127 C 
HETATM   18  C           1     -22.619 -13.047   1.048  0.00  0.00     0.038 C 
HETATM   19  C           1     -23.670 -12.639   0.021  0.00  0.00     0.022 C 
BRANCH  16  20
HETATM   20  C           1     -20.430 -12.718  -0.101  0.00  0.00     0.196 C 
HETATM   21  O           1     -20.475 -13.942  -0.351  0.00  0.00    -0.646 OA
HETATM   22  O           1     -19.538 -12.008  -0.612  0.00  0.00    -0.646 OA
ENDBRANCH  16  20
ENDBRANCH   1  13
TORSDOF 6
ENDMDL
MODEL 9
REMARK VINA RESULT:      -5.0      2.963      6.637
REMARK  6 active torsions:
REMARK  status: ('A' for Active; 'I' for Inactive)
REMARK    1  A    between atoms: N_2  and  C_12 
REMARK    2  A    between atoms: C_8  and  C_12 
REMARK    3  A    between atoms: C_8  and  C_13 
REMARK    4  A    between atoms: C_9  and  C_17 
REMARK       I    between atoms: N_10  and  C_11 
REMARK    5  A    between atoms: C_11  and  C_12 
REMARK    6  A    between atoms: C_13  and  C_14 
REMARK       I    between atoms: C_14  and  N_15 
ROOT
HETATM    1  C           1     -21.055  -5.667  -5.469  0.00  0.00     0.275 C 
ENDROOT
BRANCH   1   2
HETATM    2  N           1     -20.133  -4.515  -5.195  0.00  0.00    -0.066 N 
HETATM    3  H           1     -20.499  -3.961  -4.388  0.00  0.00     0.275 HD
HETATM    4  H           1     -19.181  -4.879  -4.965  0.00  0.00     0.275 HD
HETATM    5  H           1     -20.079  -3.904  -6.040  0.00  0.00     0.275 HD
ENDBRANCH   1   2
BRANCH   1   6
HETATM    6  C           1     -21.867  -5.381  -6.724  0.00  0.00     0.052 C 
BRANCH   6   7
HETATM    7  C           1     -21.522  -3.991  -7.247  0.00  0.00     0.105 C 
BRANCH   7   8
HETATM    8  C           1     -20.603  -4.115  -8.437  0.00  0.00     0.215 C 
HETATM    9  O           1     -19.406  -4.146  -8.275  0.00  0.00    -0.274 OA
HETATM   10  N           1     -21.126  -4.195  -9.699  0.00  0.00    -0.370 N 
HETATM   11  H           1     -20.510  -4.278 -10.497  0.00  0.00     0.159 HD
HETATM   12  H           1     -22.129  -4.169  -9.835  0.00  0.00     0.159 HD
ENDBRANCH   7   8
ENDBRANCH   6   7
ENDBRANCH   1   6
BRANCH   1  13
HETATM   13  C           1     -20.242  -6.923  -5.671  0.00  0.00     0.251 C 
HETATM   14  O           1     -19.592  -7.066  -6.678  0.00  0.00    -0.271 OA
HETATM   15  N           1     -20.242  -7.899  -4.711  0.00  0.00    -0.336 N 
HETATM   16  C           1     -19.522  -9.170  -4.736  0.00  0.00     0.188 C 
HETATM   17  C           1     -20.961  -7.899  -3.441  0.00  0.00     0.127 C 
HETATM   18  C           1     -19.016  -9.327  -3.313  0.00  0.00     0.038 C 
HETATM   19  C           1     -19.967  -8.495  -2.459  0.00  0.00     0.022 C 
BRANCH  16  20
HETATM   20  C           1     -20.445 -10.305  -5.107  0.00  0.00     0.196 C 
HETATM   21  O           1     -21.113 -10.247  -6.162  0.00  0.00    -0.646 OA
HETATM   22  O           1     -20.543 -11.301  -4.359  0.00  0.00    -0.646 OA
ENDBRANCH  16  20
ENDBRANCH   1  13
TORSDOF 6
ENDMDL
