MODEL 1
REMARK VINA RESULT:      -6.6      0.000      0.000
REMARK  11 active torsions:
REMARK  status: ('A' for Active; 'I' for Inactive)
REMARK    1  A    between atoms: N_5  and  C_23 
REMARK       I    between atoms: C_6  and  N_7 
REMARK    2  A    between atoms: C_6  and  C_23 
REMARK    3  A    between atoms: N_7  and  C_14 
REMARK    4  A    between atoms: C_12  and  C_17 
REMARK    5  A    between atoms: C_12  and  C_13 
REMARK    6  A    between atoms: C_13  and  C_14 
REMARK    7  A    between atoms: C_14  and  C_15 
REMARK    8  A    between atoms: C_17  and  C_18 
REMARK    9  A    between atoms: C_18  and  N_20 
REMARK   10  A    between atoms: C_21  and  C_22 
REMARK   11  A    between atoms: C_22  and  C_23 
ROOT
HETATM    1  O           1     -35.913  -0.383 -11.360  0.00  0.00    -0.271 OA
HETATM    2  C           1     -35.706  -0.812 -12.470  0.00  0.00     0.249 C 
HETATM    3  N           1     -35.172  -2.063 -12.632  0.00  0.00    -0.345 N 
HETATM    4  H           1     -34.999  -2.423 -13.561  0.00  0.00     0.163 HD
ENDROOT
BRANCH   3   5
HETATM    5  C           1     -34.856  -2.872 -11.471  0.00  0.00     0.185 C 
BRANCH   5   6
HETATM    6  C           1     -35.017  -4.346 -11.820  0.00  0.00     0.036 C 
BRANCH   6   7
HETATM    7  C           1     -34.944  -5.181 -10.549  0.00  0.00     0.004 C 
BRANCH   7   8
HETATM    8  C           1     -34.040  -6.383 -10.782  0.00  0.00     0.027 C 
BRANCH   8   9
HETATM    9  C           1     -34.655  -7.616 -10.130  0.00  0.00     0.229 C 
BRANCH   9  10
HETATM   10  N           1     -33.695  -8.764 -10.224  0.00  0.00    -0.079 N 
HETATM   11  H           1     -32.843  -8.554  -9.654  0.00  0.00     0.274 HD
HETATM   12  H           1     -33.421  -8.907 -11.221  0.00  0.00     0.274 HD
HETATM   13  H           1     -34.152  -9.630  -9.861  0.00  0.00     0.274 HD
ENDBRANCH   9  10
ENDBRANCH   8   9
ENDBRANCH   7   8
ENDBRANCH   6   7
ENDBRANCH   5   6
BRANCH   5  14
HETATM   14  C           1     -33.433  -2.607 -11.047  0.00  0.00     0.196 C 
HETATM   15  O           1     -33.185  -1.703 -10.221  0.00  0.00    -0.646 OA
HETATM   16  O           1     -32.501  -3.293 -11.521  0.00  0.00    -0.646 OA
ENDBRANCH   5  14
ENDBRANCH   3   5
BRANCH   2  17
HETATM   17  C           1     -36.035   0.030 -13.678  0.00  0.00     0.284 C 
BRANCH  17  18
HETATM   18  N           1     -35.201  -0.421 -14.842  0.00  0.00    -0.066 N 
HETATM   19  H           1     -34.354  -0.921 -14.490  0.00  0.00     0.275 HD
HETATM   20  H           1     -34.908   0.411 -15.403  0.00  0.00     0.275 HD
HETATM   21  H           1     -35.762  -1.066 -15.443  0.00  0.00     0.275 HD
ENDBRANCH  17  18
BRANCH  17  22
HETATM   22  C           1     -37.510  -0.126 -14.020  0.00  0.00     0.155 C 
BRANCH  22  23
HETATM   23  C           1     -37.686  -0.097 -15.519  0.00  0.00     0.175 C 
HETATM   24  O           1     -37.904  -1.156 -16.144  0.00  0.00    -0.648 OA
HETATM   25  O           1     -37.614   0.989 -16.135  0.00  0.00    -0.648 OA
ENDBRANCH  22  23
ENDBRANCH  17  22
ENDBRANCH   2  17
TORSDOF 11
ENDMDL
MODEL 2
REMARK VINA RESULT:      -6.4     10.499     12.057
REMARK  11 active torsions:
REMARK  status: ('A' for Active; 'I' for Inactive)
REMARK    1  A    between atoms: N_5  and  C_23 
REMARK       I    between atoms: C_6  and  N_7 
REMARK    2  A    between atoms: C_6  and  C_23 
REMARK    3  A    between atoms: N_7  and  C_14 
REMARK    4  A    between atoms: C_12  and  C_17 
REMARK    5  A    between atoms: C_12  and  C_13 
REMARK    6  A    between atoms: C_13  and  C_14 
REMARK    7  A    between atoms: C_14  and  C_15 
REMARK    8  A    between atoms: C_17  and  C_18 
REMARK    9  A    between atoms: C_18  and  N_20 
REMARK   10  A    between atoms: C_21  and  C_22 
REMARK   11  A    between atoms: C_22  and  C_23 
ROOT
HETATM    1  O           1     -26.074  -6.257 -17.440  0.00  0.00    -0.271 OA
HETATM    2  C           1     -26.187  -6.479 -18.622  0.00  0.00     0.249 C 
HETATM    3  N           1     -27.430  -6.662 -19.168  0.00  0.00    -0.345 N 
HETATM    4  H           1     -27.524  -6.847 -20.158  0.00  0.00     0.163 HD
ENDROOT
BRANCH   3   5
HETATM    5  C           1     -28.609  -6.589 -18.328  0.00  0.00     0.185 C 
BRANCH   5   6
HETATM    6  C           1     -29.317  -5.261 -18.563  0.00  0.00     0.036 C 
BRANCH   6   7
HETATM    7  C           1     -29.269  -4.427 -17.289  0.00  0.00     0.004 C 
BRANCH   7   8
HETATM    8  C           1     -30.387  -4.863 -16.353  0.00  0.00     0.027 C 
BRANCH   8   9
HETATM    9  C           1     -31.735  -4.584 -17.006  0.00  0.00     0.229 C 
BRANCH   9  10
HETATM   10  N           1     -31.812  -3.138 -17.398  0.00  0.00    -0.079 N 
HETATM   11  H           1     -31.841  -2.545 -16.537  0.00  0.00     0.274 HD
HETATM   12  H           1     -32.676  -2.977 -17.961  0.00  0.00     0.274 HD
HETATM   13  H           1     -30.973  -2.886 -17.967  0.00  0.00     0.274 HD
ENDBRANCH   9  10
ENDBRANCH   8   9
ENDBRANCH   7   8
ENDBRANCH   6   7
ENDBRANCH   5   6
BRANCH   5  14
HETATM   14  C           1     -29.541  -7.725 -18.671  0.00  0.00     0.196 C 
HETATM   15  O           1     -30.600  -7.880 -18.027  0.00  0.00    -0.646 OA
HETATM   16  O           1     -29.253  -8.511 -19.599  0.00  0.00    -0.646 OA
ENDBRANCH   5  14
ENDBRANCH   3   5
BRANCH   2  17
HETATM   17  C           1     -24.960  -6.555 -19.497  0.00  0.00     0.284 C 
BRANCH  17  18
HETATM   18  N           1     -24.244  -7.849 -19.240  0.00  0.00    -0.066 N 
HETATM   19  H           1     -23.406  -7.669 -18.642  0.00  0.00     0.275 HD
HETATM   20  H           1     -23.942  -8.266 -20.149  0.00  0.00     0.275 HD
HETATM   21  H           1     -24.886  -8.511 -18.749  0.00  0.00     0.275 HD
ENDBRANCH  17  18
BRANCH  17  22
HETATM   22  C           1     -25.373  -6.486 -20.960  0.00  0.00     0.155 C 
BRANCH  22  23
HETATM   23  C           1     -25.324  -7.868 -21.564  0.00  0.00     0.175 C 
HETATM   24  O           1     -24.324  -8.227 -22.223  0.00  0.00    -0.648 OA
HETATM   25  O           1     -26.283  -8.654 -21.405  0.00  0.00    -0.648 OA
ENDBRANCH  22  23
ENDBRANCH  17  22
ENDBRANCH   2  17
TORSDOF 11
ENDMDL
MODEL 3
REMARK VINA RESULT:      -6.3     11.240     12.661
REMARK  11 active torsions:
REMARK  status: ('A' for Active; 'I' for Inactive)
REMARK    1  A    between atoms: N_5  and  C_23 
REMARK       I    between atoms: C_6  and  N_7 
REMARK    2  A    between atoms: C_6  and  C_23 
REMARK    3  A    between atoms: N_7  and  C_14 
REMARK    4  A    between atoms: C_12  and  C_17 
REMARK    5  A    between atoms: C_12  and  C_13 
REMARK    6  A    between atoms: C_13  and  C_14 
REMARK    7  A    between atoms: C_14  and  C_15 
REMARK    8  A    between atoms: C_17  and  C_18 
REMARK    9  A    between atoms: C_18  and  N_20 
REMARK   10  A    between atoms: C_21  and  C_22 
REMARK   11  A    between atoms: C_22  and  C_23 
ROOT
HETATM    1  O           1     -24.240  -6.669 -18.194  0.00  0.00    -0.271 OA
HETATM    2  C           1     -25.264  -6.962 -18.762  0.00  0.00     0.249 C 
HETATM    3  N           1     -26.473  -6.642 -18.204  0.00  0.00    -0.345 N 
HETATM    4  H           1     -27.331  -6.888 -18.681  0.00  0.00     0.163 HD
ENDROOT
BRANCH   3   5
HETATM    5  C           1     -26.523  -5.950 -16.931  0.00  0.00     0.185 C 
BRANCH   5   6
HETATM    6  C           1     -27.782  -5.096 -16.867  0.00  0.00     0.036 C 
BRANCH   6   7
HETATM    7  C           1     -28.632  -5.349 -18.106  0.00  0.00     0.004 C 
BRANCH   7   8
HETATM    8  C           1     -29.988  -5.901 -17.688  0.00  0.00     0.027 C 
BRANCH   8   9
HETATM    9  C           1     -30.174  -7.293 -18.279  0.00  0.00     0.229 C 
BRANCH   9  10
HETATM   10  N           1     -29.480  -8.302 -17.412  0.00  0.00    -0.079 N 
HETATM   11  H           1     -30.183  -8.779 -16.802  0.00  0.00     0.274 HD
HETATM   12  H           1     -28.771  -7.819 -16.817  0.00  0.00     0.274 HD
HETATM   13  H           1     -29.004  -9.010 -18.015  0.00  0.00     0.274 HD
ENDBRANCH   9  10
ENDBRANCH   8   9
ENDBRANCH   7   8
ENDBRANCH   6   7
ENDBRANCH   5   6
BRANCH   5  14
HETATM   14  C           1     -26.543  -6.961 -15.811  0.00  0.00     0.196 C 
HETATM   15  O           1     -27.633  -7.370 -15.357  0.00  0.00    -0.646 OA
HETATM   16  O           1     -25.468  -7.389 -15.336  0.00  0.00    -0.646 OA
ENDBRANCH   5  14
ENDBRANCH   3   5
BRANCH   2  17
HETATM   17  C           1     -25.212  -7.683 -20.087  0.00  0.00     0.284 C 
BRANCH  17  18
HETATM   18  N           1     -26.562  -7.624 -20.741  0.00  0.00    -0.066 N 
HETATM   19  H           1     -27.293  -7.914 -20.053  0.00  0.00     0.275 HD
HETATM   20  H           1     -26.579  -8.269 -21.562  0.00  0.00     0.275 HD
HETATM   21  H           1     -26.752  -6.648 -21.061  0.00  0.00     0.275 HD
ENDBRANCH  17  18
BRANCH  17  22
HETATM   22  C           1     -24.183  -7.014 -20.988  0.00  0.00     0.155 C 
BRANCH  22  23
HETATM   23  C           1     -23.668  -8.015 -21.994  0.00  0.00     0.175 C 
HETATM   24  O           1     -24.421  -8.437 -22.897  0.00  0.00    -0.648 OA
HETATM   25  O           1     -22.487  -8.420 -21.923  0.00  0.00    -0.648 OA
ENDBRANCH  22  23
ENDBRANCH  17  22
ENDBRANCH   2  17
TORSDOF 11
ENDMDL
MODEL 4
REMARK VINA RESULT:      -6.3      2.619      3.455
REMARK  11 active torsions:
REMARK  status: ('A' for Active; 'I' for Inactive)
REMARK    1  A    between atoms: N_5  and  C_23 
REMARK       I    between atoms: C_6  and  N_7 
REMARK    2  A    between atoms: C_6  and  C_23 
REMARK    3  A    between atoms: N_7  and  C_14 
REMARK    4  A    between atoms: C_12  and  C_17 
REMARK    5  A    between atoms: C_12  and  C_13 
REMARK    6  A    between atoms: C_13  and  C_14 
REMARK    7  A    between atoms: C_14  and  C_15 
REMARK    8  A    between atoms: C_17  and  C_18 
REMARK    9  A    between atoms: C_18  and  N_20 
REMARK   10  A    between atoms: C_21  and  C_22 
REMARK   11  A    between atoms: C_22  and  C_23 
ROOT
HETATM    1  O           1     -37.837  -0.704 -13.685  0.00  0.00    -0.271 OA
HETATM    2  C           1     -36.697  -0.307 -13.643  0.00  0.00     0.249 C 
HETATM    3  N           1     -35.956  -0.475 -12.503  0.00  0.00    -0.345 N 
HETATM    4  H           1     -35.001  -0.144 -12.468  0.00  0.00     0.163 HD
ENDROOT
BRANCH   3   5
HETATM    5  C           1     -36.540  -1.129 -11.348  0.00  0.00     0.185 C 
BRANCH   5   6
HETATM    6  C           1     -35.589  -2.205 -10.840  0.00  0.00     0.036 C 
BRANCH   6   7
HETATM    7  C           1     -34.265  -2.107 -11.585  0.00  0.00     0.004 C 
BRANCH   7   8
HETATM    8  C           1     -33.273  -3.097 -10.991  0.00  0.00     0.027 C 
BRANCH   8   9
HETATM    9  C           1     -33.276  -4.377 -11.817  0.00  0.00     0.229 C 
BRANCH   9  10
HETATM   10  N           1     -33.480  -4.039 -13.265  0.00  0.00    -0.079 N 
HETATM   11  H           1     -33.694  -4.912 -13.799  0.00  0.00     0.274 HD
HETATM   12  H           1     -32.611  -3.602 -13.644  0.00  0.00     0.274 HD
HETATM   13  H           1     -34.276  -3.370 -13.357  0.00  0.00     0.274 HD
ENDBRANCH   9  10
ENDBRANCH   8   9
ENDBRANCH   7   8
ENDBRANCH   6   7
ENDBRANCH   5   6
BRANCH   5  14
HETATM   14  C           1     -36.776  -0.110 -10.261  0.00  0.00     0.196 C 
HETATM   15  O           1     -37.657   0.764 -10.404  0.00  0.00    -0.646 OA
HETATM   16  O           1     -36.089  -0.140  -9.216  0.00  0.00    -0.646 OA
ENDBRANCH   5  14
ENDBRANCH   3   5
BRANCH   2  17
HETATM   17  C           1     -36.089   0.373 -14.845  0.00  0.00     0.284 C 
BRANCH  17  18
HETATM   18  N           1     -34.626   0.603 -14.601  0.00  0.00    -0.066 N 
HETATM   19  H           1     -34.334   1.495 -15.061  0.00  0.00     0.275 HD
HETATM   20  H           1     -34.077  -0.192 -15.000  0.00  0.00     0.275 HD
HETATM   21  H           1     -34.450   0.667 -13.573  0.00  0.00     0.275 HD
ENDBRANCH  17  18
BRANCH  17  22
HETATM   22  C           1     -36.266  -0.511 -16.072  0.00  0.00     0.155 C 
BRANCH  22  23
HETATM   23  C           1     -35.237  -1.615 -16.051  0.00  0.00     0.175 C 
HETATM   24  O           1     -35.002  -2.231 -14.990  0.00  0.00    -0.648 OA
HETATM   25  O           1     -34.621  -1.913 -17.097  0.00  0.00    -0.648 OA
ENDBRANCH  22  23
ENDBRANCH  17  22
ENDBRANCH   2  17
TORSDOF 11
ENDMDL
MODEL 5
REMARK VINA RESULT:      -6.0      9.431     10.208
REMARK  11 active torsions:
REMARK  status: ('A' for Active; 'I' for Inactive)
REMARK    1  A    between atoms: N_5  and  C_23 
REMARK       I    between atoms: C_6  and  N_7 
REMARK    2  A    between atoms: C_6  and  C_23 
REMARK    3  A    between atoms: N_7  and  C_14 
REMARK    4  A    between atoms: C_12  and  C_17 
REMARK    5  A    between atoms: C_12  and  C_13 
REMARK    6  A    between atoms: C_13  and  C_14 
REMARK    7  A    between atoms: C_14  and  C_15 
REMARK    8  A    between atoms: C_17  and  C_18 
REMARK    9  A    between atoms: C_18  and  N_20 
REMARK   10  A    between atoms: C_21  and  C_22 
REMARK   11  A    between atoms: C_22  and  C_23 
ROOT
HETATM    1  O           1     -29.532  -6.861 -16.962  0.00  0.00    -0.271 OA
HETATM    2  C           1     -29.156  -5.726 -17.129  0.00  0.00     0.249 C 
HETATM    3  N           1     -27.834  -5.474 -17.388  0.00  0.00    -0.345 N 
HETATM    4  H           1     -27.519  -4.523 -17.529  0.00  0.00     0.163 HD
ENDROOT
BRANCH   3   5
HETATM    5  C           1     -26.888  -6.570 -17.461  0.00  0.00     0.185 C 
BRANCH   5   6
HETATM    6  C           1     -26.000  -6.393 -18.685  0.00  0.00     0.036 C 
BRANCH   6   7
HETATM    7  C           1     -26.818  -6.633 -19.946  0.00  0.00     0.004 C 
BRANCH   7   8
HETATM    8  C           1     -26.135  -7.690 -20.803  0.00  0.00     0.027 C 
BRANCH   8   9
HETATM    9  C           1     -24.669  -7.321 -20.991  0.00  0.00     0.229 C 
BRANCH   9  10
HETATM   10  N           1     -23.821  -8.551 -20.854  0.00  0.00    -0.079 N 
HETATM   11  H           1     -23.692  -8.773 -19.841  0.00  0.00     0.274 HD
HETATM   12  H           1     -22.890  -8.382 -21.296  0.00  0.00     0.274 HD
HETATM   13  H           1     -24.292  -9.353 -21.330  0.00  0.00     0.274 HD
ENDBRANCH   9  10
ENDBRANCH   8   9
ENDBRANCH   7   8
ENDBRANCH   6   7
ENDBRANCH   5   6
BRANCH   5  14
HETATM   14  C           1     -26.035  -6.581 -16.216  0.00  0.00     0.196 C 
HETATM   15  O           1     -26.224  -7.449 -15.337  0.00  0.00    -0.646 OA
HETATM   16  O           1     -25.140  -5.722 -16.064  0.00  0.00    -0.646 OA
ENDBRANCH   5  14
ENDBRANCH   3   5
BRANCH   2  17
HETATM   17  C           1     -30.140  -4.585 -17.053  0.00  0.00     0.284 C 
BRANCH  17  18
HETATM   18  N           1     -29.929  -3.665 -18.219  0.00  0.00    -0.066 N 
HETATM   19  H           1     -29.641  -2.723 -17.870  0.00  0.00     0.275 HD
HETATM   20  H           1     -30.817  -3.580 -18.762  0.00  0.00     0.275 HD
HETATM   21  H           1     -29.179  -4.051 -18.836  0.00  0.00     0.275 HD
ENDBRANCH  17  18
BRANCH  17  22
HETATM   22  C           1     -31.559  -5.135 -17.092  0.00  0.00     0.155 C 
BRANCH  22  23
HETATM   23  C           1     -32.542  -4.013 -16.862  0.00  0.00     0.175 C 
HETATM   24  O           1     -33.273  -4.020 -15.849  0.00  0.00    -0.648 OA
HETATM   25  O           1     -32.624  -3.076 -17.686  0.00  0.00    -0.648 OA
ENDBRANCH  22  23
ENDBRANCH  17  22
ENDBRANCH   2  17
TORSDOF 11
ENDMDL
MODEL 6
REMARK VINA RESULT:      -5.8     10.780     12.356
REMARK  11 active torsions:
REMARK  status: ('A' for Active; 'I' for Inactive)
REMARK    1  A    between atoms: N_5  and  C_23 
REMARK       I    between atoms: C_6  and  N_7 
REMARK    2  A    between atoms: C_6  and  C_23 
REMARK    3  A    between atoms: N_7  and  C_14 
REMARK    4  A    between atoms: C_12  and  C_17 
REMARK    5  A    between atoms: C_12  and  C_13 
REMARK    6  A    between atoms: C_13  and  C_14 
REMARK    7  A    between atoms: C_14  and  C_15 
REMARK    8  A    between atoms: C_17  and  C_18 
REMARK    9  A    between atoms: C_18  and  N_20 
REMARK   10  A    between atoms: C_21  and  C_22 
REMARK   11  A    between atoms: C_22  and  C_23 
ROOT
HETATM    1  O           1     -28.806  -5.278 -18.904  0.00  0.00    -0.271 OA
HETATM    2  C           1     -28.655  -6.371 -18.412  0.00  0.00     0.249 C 
HETATM    3  N           1     -27.973  -7.341 -19.097  0.00  0.00    -0.345 N 
HETATM    4  H           1     -27.845  -8.256 -18.684  0.00  0.00     0.163 HD
ENDROOT
BRANCH   3   5
HETATM    5  C           1     -27.434  -7.057 -20.412  0.00  0.00     0.185 C 
BRANCH   5   6
HETATM    6  C           1     -26.085  -6.364 -20.269  0.00  0.00     0.036 C 
BRANCH   6   7
HETATM    7  C           1     -25.302  -7.005 -19.130  0.00  0.00     0.004 C 
BRANCH   7   8
HETATM    8  C           1     -23.846  -7.170 -19.543  0.00  0.00     0.027 C 
BRANCH   8   9
HETATM    9  C           1     -22.974  -7.269 -18.297  0.00  0.00     0.229 C 
BRANCH   9  10
HETATM   10  N           1     -23.842  -7.479 -17.093  0.00  0.00    -0.079 N 
HETATM   11  H           1     -24.104  -6.552 -16.686  0.00  0.00     0.274 HD
HETATM   12  H           1     -23.320  -8.038 -16.382  0.00  0.00     0.274 HD
HETATM   13  H           1     -24.708  -7.993 -17.373  0.00  0.00     0.274 HD
ENDBRANCH   9  10
ENDBRANCH   8   9
ENDBRANCH   7   8
ENDBRANCH   6   7
ENDBRANCH   5   6
BRANCH   5  14
HETATM   14  C           1     -27.259  -8.348 -21.173  0.00  0.00     0.196 C 
HETATM   15  O           1     -26.171  -8.601 -21.734  0.00  0.00    -0.646 OA
HETATM   16  O           1     -28.202  -9.166 -21.242  0.00  0.00    -0.646 OA
ENDBRANCH   5  14
ENDBRANCH   3   5
BRANCH   2  17
HETATM   17  C           1     -29.216  -6.666 -17.043  0.00  0.00     0.284 C 
BRANCH  17  18
HETATM   18  N           1     -29.054  -8.127 -16.742  0.00  0.00    -0.066 N 
HETATM   19  H           1     -28.052  -8.397 -16.858  0.00  0.00     0.275 HD
HETATM   20  H           1     -29.645  -8.686 -17.399  0.00  0.00     0.275 HD
HETATM   21  H           1     -29.354  -8.316 -15.759  0.00  0.00     0.275 HD
ENDBRANCH  17  18
BRANCH  17  22
HETATM   22  C           1     -28.468  -5.848 -15.999  0.00  0.00     0.155 C 
BRANCH  22  23
HETATM   23  C           1     -27.015  -6.254 -15.987  0.00  0.00     0.175 C 
HETATM   24  O           1     -26.148  -5.492 -16.466  0.00  0.00    -0.648 OA
HETATM   25  O           1     -26.678  -7.354 -15.497  0.00  0.00    -0.648 OA
ENDBRANCH  22  23
ENDBRANCH  17  22
ENDBRANCH   2  17
TORSDOF 11
ENDMDL
MODEL 7
REMARK VINA RESULT:      -5.8     12.924     15.162
REMARK  11 active torsions:
REMARK  status: ('A' for Active; 'I' for Inactive)
REMARK    1  A    between atoms: N_5  and  C_23 
REMARK       I    between atoms: C_6  and  N_7 
REMARK    2  A    between atoms: C_6  and  C_23 
REMARK    3  A    between atoms: N_7  and  C_14 
REMARK    4  A    between atoms: C_12  and  C_17 
REMARK    5  A    between atoms: C_12  and  C_13 
REMARK    6  A    between atoms: C_13  and  C_14 
REMARK    7  A    between atoms: C_14  and  C_15 
REMARK    8  A    between atoms: C_17  and  C_18 
REMARK    9  A    between atoms: C_18  and  N_20 
REMARK   10  A    between atoms: C_21  and  C_22 
REMARK   11  A    between atoms: C_22  and  C_23 
ROOT
HETATM    1  O           1     -20.272  -3.981  -7.029  0.00  0.00    -0.271 OA
HETATM    2  C           1     -21.402  -4.319  -7.288  0.00  0.00     0.249 C 
HETATM    3  N           1     -21.996  -5.327  -6.575  0.00  0.00    -0.345 N 
HETATM    4  H           1     -22.943  -5.609  -6.791  0.00  0.00     0.163 HD
ENDROOT
BRANCH   3   5
HETATM    5  C           1     -21.267  -5.988  -5.509  0.00  0.00     0.185 C 
BRANCH   5   6
HETATM    6  C           1     -22.224  -6.322  -4.373  0.00  0.00     0.036 C 
BRANCH   6   7
HETATM    7  C           1     -21.432  -6.553  -3.092  0.00  0.00     0.004 C 
BRANCH   7   8
HETATM    8  C           1     -22.330  -6.305  -1.888  0.00  0.00     0.027 C 
BRANCH   8   9
HETATM    9  C           1     -21.959  -7.272  -0.770  0.00  0.00     0.229 C 
BRANCH   9  10
HETATM   10  N           1     -22.086  -8.682  -1.265  0.00  0.00    -0.079 N 
HETATM   11  H           1     -21.134  -9.104  -1.363  0.00  0.00     0.274 HD
HETATM   12  H           1     -22.565  -8.682  -2.193  0.00  0.00     0.274 HD
HETATM   13  H           1     -22.647  -9.241  -0.584  0.00  0.00     0.274 HD
ENDBRANCH   9  10
ENDBRANCH   8   9
ENDBRANCH   7   8
ENDBRANCH   6   7
ENDBRANCH   5   6
BRANCH   5  14
HETATM   14  C           1     -20.648  -7.258  -6.037  0.00  0.00     0.196 C 
HETATM   15  O           1     -19.467  -7.255  -6.445  0.00  0.00    -0.646 OA
HETATM   16  O           1     -21.317  -8.314  -6.067  0.00  0.00    -0.646 OA
ENDBRANCH   5  14
ENDBRANCH   3   5
BRANCH   2  17
HETATM   17  C           1     -22.160  -3.631  -8.396  0.00  0.00     0.284 C 
BRANCH  17  18
HETATM   18  N           1     -21.441  -3.840  -9.697  0.00  0.00    -0.066 N 
HETATM   19  H           1     -20.848  -3.005  -9.904  0.00  0.00     0.275 HD
HETATM   20  H           1     -22.138  -3.972 -10.463  0.00  0.00     0.275 HD
HETATM   21  H           1     -20.835  -4.689  -9.627  0.00  0.00     0.275 HD
ENDBRANCH  17  18
BRANCH  17  22
HETATM   22  C           1     -23.562  -4.217  -8.493  0.00  0.00     0.155 C 
BRANCH  22  23
HETATM   23  C           1     -24.032  -4.168  -9.926  0.00  0.00     0.175 C 
HETATM   24  O           1     -23.909  -5.172 -10.659  0.00  0.00    -0.648 OA
HETATM   25  O           1     -24.544  -3.121 -10.380  0.00  0.00    -0.648 OA
ENDBRANCH  22  23
ENDBRANCH  17  22
ENDBRANCH   2  17
TORSDOF 11
ENDMDL
MODEL 8
REMARK VINA RESULT:      -5.4     14.512     16.255
REMARK  11 active torsions:
REMARK  status: ('A' for Active; 'I' for Inactive)
REMARK    1  A    between atoms: N_5  and  C_23 
REMARK       I    between atoms: C_6  and  N_7 
REMARK    2  A    between atoms: C_6  and  C_23 
REMARK    3  A    between atoms: N_7  and  C_14 
REMARK    4  A    between atoms: C_12  and  C_17 
REMARK    5  A    between atoms: C_12  and  C_13 
REMARK    6  A    between atoms: C_13  and  C_14 
REMARK    7  A    between atoms: C_14  and  C_15 
REMARK    8  A    between atoms: C_17  and  C_18 
REMARK    9  A    between atoms: C_18  and  N_20 
REMARK   10  A    between atoms: C_21  and  C_22 
REMARK   11  A    between atoms: C_22  and  C_23 
ROOT
HETATM    1  O           1     -19.731  -5.155  -6.512  0.00  0.00    -0.271 OA
HETATM    2  C           1     -20.882  -5.400  -6.783  0.00  0.00     0.249 C 
HETATM    3  N           1     -21.627  -6.191  -5.950  0.00  0.00    -0.345 N 
HETATM    4  H           1     -22.592  -6.395  -6.176  0.00  0.00     0.163 HD
ENDROOT
BRANCH   3   5
HETATM    5  C           1     -21.035  -6.735  -4.744  0.00  0.00     0.185 C 
BRANCH   5   6
HETATM    6  C           1     -22.033  -6.636  -3.598  0.00  0.00     0.036 C 
BRANCH   6   7
HETATM    7  C           1     -21.331  -6.945  -2.283  0.00  0.00     0.004 C 
BRANCH   7   8
HETATM    8  C           1     -22.299  -6.730  -1.127  0.00  0.00     0.027 C 
BRANCH   8   9
HETATM    9  C           1     -22.209  -7.907  -0.164  0.00  0.00     0.229 C 
BRANCH   9  10
HETATM   10  N           1     -23.475  -7.998   0.635  0.00  0.00    -0.079 N 
HETATM   11  H           1     -23.262  -8.388   1.582  0.00  0.00     0.274 HD
HETATM   12  H           1     -24.151  -8.625   0.144  0.00  0.00     0.274 HD
HETATM   13  H           1     -23.893  -7.046   0.736  0.00  0.00     0.274 HD
ENDBRANCH   9  10
ENDBRANCH   8   9
ENDBRANCH   7   8
ENDBRANCH   6   7
ENDBRANCH   5   6
BRANCH   5  14
HETATM   14  C           1     -20.671  -8.181  -4.971  0.00  0.00     0.196 C 
HETATM   15  O           1     -21.486  -9.083  -4.685  0.00  0.00    -0.646 OA
HETATM   16  O           1     -19.553  -8.477  -5.446  0.00  0.00    -0.646 OA
ENDBRANCH   5  14
ENDBRANCH   3   5
BRANCH   2  17
HETATM   17  C           1     -21.499  -4.833  -8.038  0.00  0.00     0.284 C 
BRANCH  17  18
HETATM   18  N           1     -22.573  -3.852  -7.668  0.00  0.00    -0.066 N 
HETATM   19  H           1     -22.183  -3.145  -7.004  0.00  0.00     0.275 HD
HETATM   20  H           1     -23.365  -4.358  -7.213  0.00  0.00     0.275 HD
HETATM   21  H           1     -22.916  -3.370  -8.529  0.00  0.00     0.275 HD
ENDBRANCH  17  18
BRANCH  17  22
HETATM   22  C           1     -20.428  -4.128  -8.857  0.00  0.00     0.155 C 
BRANCH  22  23
HETATM   23  C           1     -20.923  -3.925 -10.269  0.00  0.00     0.175 C 
HETATM   24  O           1     -20.236  -4.319 -11.235  0.00  0.00    -0.648 OA
HETATM   25  O           1     -22.022  -3.363 -10.470  0.00  0.00    -0.648 OA
ENDBRANCH  22  23
ENDBRANCH  17  22
ENDBRANCH   2  17
TORSDOF 11
ENDMDL
MODEL 9
REMARK VINA RESULT:      -5.4      7.766      8.614
REMARK  11 active torsions:
REMARK  status: ('A' for Active; 'I' for Inactive)
REMARK    1  A    between atoms: N_5  and  C_23 
REMARK       I    between atoms: C_6  and  N_7 
REMARK    2  A    between atoms: C_6  and  C_23 
REMARK    3  A    between atoms: N_7  and  C_14 
REMARK    4  A    between atoms: C_12  and  C_17 
REMARK    5  A    between atoms: C_12  and  C_13 
REMARK    6  A    between atoms: C_13  and  C_14 
REMARK    7  A    between atoms: C_14  and  C_15 
REMARK    8  A    between atoms: C_17  and  C_18 
REMARK    9  A    between atoms: C_18  and  N_20 
REMARK   10  A    between atoms: C_21  and  C_22 
REMARK   11  A    between atoms: C_22  and  C_23 
ROOT
HETATM    1  O           1     -29.575  -4.518 -18.345  0.00  0.00    -0.271 OA
HETATM    2  C           1     -30.377  -4.931 -17.541  0.00  0.00     0.249 C 
HETATM    3  N           1     -30.368  -6.253 -17.183  0.00  0.00    -0.345 N 
HETATM    4  H           1     -31.038  -6.599 -16.509  0.00  0.00     0.163 HD
ENDROOT
BRANCH   3   5
HETATM    5  C           1     -29.396  -7.156 -17.769  0.00  0.00     0.185 C 
BRANCH   5   6
HETATM    6  C           1     -28.723  -7.962 -16.666  0.00  0.00     0.036 C 
BRANCH   6   7
HETATM    7  C           1     -28.137  -7.013 -15.629  0.00  0.00     0.004 C 
BRANCH   7   8
HETATM    8  C           1     -26.973  -6.247 -16.241  0.00  0.00     0.027 C 
BRANCH   8   9
HETATM    9  C           1     -25.664  -6.940 -15.883  0.00  0.00     0.229 C 
BRANCH   9  10
HETATM   10  N           1     -24.853  -7.151 -17.127  0.00  0.00    -0.079 N 
HETATM   11  H           1     -23.907  -6.722 -17.002  0.00  0.00     0.274 HD
HETATM   12  H           1     -25.336  -6.702 -17.937  0.00  0.00     0.274 HD
HETATM   13  H           1     -24.750  -8.175 -17.306  0.00  0.00     0.274 HD
ENDBRANCH   9  10
ENDBRANCH   8   9
ENDBRANCH   7   8
ENDBRANCH   6   7
ENDBRANCH   5   6
BRANCH   5  14
HETATM   14  C           1     -30.094  -8.094 -18.723  0.00  0.00     0.196 C 
HETATM   15  O           1     -29.426  -8.887 -19.420  0.00  0.00    -0.646 OA
HETATM   16  O           1     -31.341  -8.077 -18.817  0.00  0.00    -0.646 OA
ENDBRANCH   5  14
ENDBRANCH   3   5
BRANCH   2  17
HETATM   17  C           1     -31.388  -3.991 -16.931  0.00  0.00     0.284 C 
BRANCH  17  18
HETATM   18  N           1     -31.536  -2.782 -17.807  0.00  0.00    -0.066 N 
HETATM   19  H           1     -32.549  -2.541 -17.898  0.00  0.00     0.275 HD
HETATM   20  H           1     -31.139  -2.985 -18.752  0.00  0.00     0.275 HD
HETATM   21  H           1     -31.024  -1.977 -17.381  0.00  0.00     0.275 HD
ENDBRANCH  17  18
BRANCH  17  22
HETATM   22  C           1     -32.730  -4.698 -16.810  0.00  0.00     0.155 C 
BRANCH  22  23
HETATM   23  C           1     -33.739  -3.762 -16.191  0.00  0.00     0.175 C 
HETATM   24  O           1     -34.149  -3.965 -15.028  0.00  0.00    -0.648 OA
HETATM   25  O           1     -34.165  -2.784 -16.843  0.00  0.00    -0.648 OA
ENDBRANCH  22  23
ENDBRANCH  17  22
ENDBRANCH   2  17
TORSDOF 11
ENDMDL
