MODEL 1
REMARK VINA RESULT:      -7.3      0.000      0.000
REMARK  9 active torsions:
REMARK  status: ('A' for Active; 'I' for Inactive)
REMARK    1  A    between atoms: C_1  and  C_10 
REMARK    2  A    between atoms: C_1  and  C_8 
REMARK    3  A    between atoms: C_1  and  N_21 
REMARK    4  A    between atoms: C_2  and  O_3 
REMARK    5  A    between atoms: N_6  and  C_18 
REMARK       I    between atoms: N_6  and  C_10 
REMARK    6  A    between atoms: C_8  and  C_23 
REMARK    7  A    between atoms: C_11  and  C_17 
REMARK    8  A    between atoms: C_17  and  C_18 
REMARK    9  A    between atoms: C_18  and  C_19 
ROOT
HETATM    1  N           1     -21.673  -6.338  -5.651  0.00  0.00    -0.344 N 
HETATM    2  C           1     -21.098  -7.553  -5.392  0.00  0.00     0.249 C 
HETATM    3  O           1     -20.159  -7.929  -6.054  0.00  0.00    -0.271 OA
HETATM    4  H           1     -22.459  -6.022  -5.097  0.00  0.00     0.163 HD
ENDROOT
BRANCH   1   5
HETATM    5  C           1     -21.155  -5.503  -6.716  0.00  0.00     0.189 C 
BRANCH   5   6
HETATM    6  C           1     -22.207  -4.475  -7.111  0.00  0.00     0.074 C 
BRANCH   6   7
HETATM    7  C           1     -22.377  -4.477  -8.598  0.00  0.00    -0.056 A 
HETATM    8  C           1     -23.655  -4.531  -9.154  0.00  0.00     0.010 A 
HETATM    9  C           1     -23.814  -4.534 -10.540  0.00  0.00     0.037 A 
HETATM   10  C           1     -22.694  -4.481 -11.370  0.00  0.00     0.065 A 
HETATM   11  C           1     -21.416  -4.426 -10.814  0.00  0.00     0.037 A 
HETATM   12  C           1     -21.257  -4.424  -9.429  0.00  0.00     0.010 A 
BRANCH  10  13
HETATM   13  O           1     -22.848  -4.483 -12.716  0.00  0.00    -0.361 OA
HETATM   14  H           1     -21.964  -4.434 -13.119  0.00  0.00     0.217 HD
ENDBRANCH  10  13
ENDBRANCH   6   7
ENDBRANCH   5   6
BRANCH   5  15
HETATM   15  C           1     -19.911  -4.793  -6.240  0.00  0.00     0.197 C 
HETATM   16  O           1     -18.947  -4.633  -7.019  0.00  0.00    -0.646 OA
HETATM   17  O           1     -19.845  -4.367  -5.067  0.00  0.00    -0.646 OA
ENDBRANCH   5  15
ENDBRANCH   1   5
BRANCH   2  18
HETATM   18  C           1     -21.636  -8.423  -4.282  0.00  0.00     0.275 C 
BRANCH  18  19
HETATM   19  C           1     -20.914  -8.092  -2.983  0.00  0.00     0.046 C 
BRANCH  19  20
HETATM   20  C           1     -21.934  -7.709  -1.918  0.00  0.00    -0.020 C 
HETATM   21  C           1     -22.153  -6.203  -1.943  0.00  0.00     0.009 C 
HETATM   22  C           1     -21.415  -8.123  -0.547  0.00  0.00     0.009 C 
ENDBRANCH  19  20
ENDBRANCH  18  19
BRANCH  18  23
HETATM   23  N           1     -21.413  -9.865  -4.625  0.00  0.00    -0.066 N 
HETATM   24  H           1     -21.538 -10.451  -3.769  0.00  0.00     0.275 HD
HETATM   25  H           1     -22.104 -10.161  -5.351  0.00  0.00     0.275 HD
HETATM   26  H           1     -20.445  -9.990  -4.995  0.00  0.00     0.275 HD
ENDBRANCH  18  23
ENDBRANCH   2  18
TORSDOF 9
ENDMDL
MODEL 2
REMARK VINA RESULT:      -7.2      1.477      2.164
REMARK  9 active torsions:
REMARK  status: ('A' for Active; 'I' for Inactive)
REMARK    1  A    between atoms: C_1  and  C_10 
REMARK    2  A    between atoms: C_1  and  C_8 
REMARK    3  A    between atoms: C_1  and  N_21 
REMARK    4  A    between atoms: C_2  and  O_3 
REMARK    5  A    between atoms: N_6  and  C_18 
REMARK       I    between atoms: N_6  and  C_10 
REMARK    6  A    between atoms: C_8  and  C_23 
REMARK    7  A    between atoms: C_11  and  C_17 
REMARK    8  A    between atoms: C_17  and  C_18 
REMARK    9  A    between atoms: C_18  and  C_19 
ROOT
HETATM    1  N           1     -20.972  -5.426  -4.954  0.00  0.00    -0.344 N 
HETATM    2  C           1     -21.406  -6.544  -4.292  0.00  0.00     0.249 C 
HETATM    3  O           1     -21.812  -7.495  -4.916  0.00  0.00    -0.271 OA
HETATM    4  H           1     -20.632  -4.629  -4.432  0.00  0.00     0.163 HD
ENDROOT
BRANCH   1   5
HETATM    5  C           1     -20.999  -5.386  -6.403  0.00  0.00     0.189 C 
BRANCH   5   6
HETATM    6  C           1     -21.442  -4.004  -6.863  0.00  0.00     0.074 C 
BRANCH   6   7
HETATM    7  C           1     -22.088  -4.108  -8.210  0.00  0.00    -0.056 A 
HETATM    8  C           1     -21.301  -4.104  -9.362  0.00  0.00     0.010 A 
HETATM    9  C           1     -21.903  -4.201 -10.617  0.00  0.00     0.037 A 
HETATM   10  C           1     -23.290  -4.302 -10.720  0.00  0.00     0.065 A 
HETATM   11  C           1     -24.076  -4.307  -9.567  0.00  0.00     0.037 A 
HETATM   12  C           1     -23.475  -4.210  -8.312  0.00  0.00     0.010 A 
BRANCH  10  13
HETATM   13  O           1     -23.874  -4.396 -11.938  0.00  0.00    -0.361 OA
HETATM   14  H           1     -23.657  -3.591 -12.439  0.00  0.00     0.217 HD
ENDBRANCH  10  13
ENDBRANCH   6   7
ENDBRANCH   5   6
BRANCH   5  15
HETATM   15  C           1     -19.619  -5.678  -6.940  0.00  0.00     0.197 C 
HETATM   16  O           1     -18.828  -4.740  -7.174  0.00  0.00    -0.646 OA
HETATM   17  O           1     -19.267  -6.859  -7.151  0.00  0.00    -0.646 OA
ENDBRANCH   5  15
ENDBRANCH   1   5
BRANCH   2  18
HETATM   18  C           1     -21.377  -6.585  -2.783  0.00  0.00     0.275 C 
BRANCH  18  19
HETATM   19  C           1     -21.695  -7.997  -2.309  0.00  0.00     0.046 C 
BRANCH  19  20
HETATM   20  C           1     -21.360  -8.122  -0.828  0.00  0.00    -0.020 C 
HETATM   21  C           1     -20.651  -9.446  -0.577  0.00  0.00     0.009 C 
HETATM   22  C           1     -22.646  -8.073  -0.012  0.00  0.00     0.009 C 
ENDBRANCH  19  20
ENDBRANCH  18  19
BRANCH  18  23
HETATM   23  N           1     -22.399  -5.633  -2.239  0.00  0.00    -0.066 N 
HETATM   24  H           1     -23.285  -5.722  -2.786  0.00  0.00     0.275 HD
HETATM   25  H           1     -22.587  -5.860  -1.236  0.00  0.00     0.275 HD
HETATM   26  H           1     -22.040  -4.656  -2.313  0.00  0.00     0.275 HD
ENDBRANCH  18  23
ENDBRANCH   2  18
TORSDOF 9
ENDMDL
MODEL 3
REMARK VINA RESULT:      -7.0     13.757     17.085
REMARK  9 active torsions:
REMARK  status: ('A' for Active; 'I' for Inactive)
REMARK    1  A    between atoms: C_1  and  C_10 
REMARK    2  A    between atoms: C_1  and  C_8 
REMARK    3  A    between atoms: C_1  and  N_21 
REMARK    4  A    between atoms: C_2  and  O_3 
REMARK    5  A    between atoms: N_6  and  C_18 
REMARK       I    between atoms: N_6  and  C_10 
REMARK    6  A    between atoms: C_8  and  C_23 
REMARK    7  A    between atoms: C_11  and  C_17 
REMARK    8  A    between atoms: C_17  and  C_18 
REMARK    9  A    between atoms: C_18  and  C_19 
ROOT
HETATM    1  N           1     -35.984   0.065 -11.422  0.00  0.00    -0.344 N 
HETATM    2  C           1     -36.604  -0.029 -12.638  0.00  0.00     0.249 C 
HETATM    3  O           1     -37.729  -0.465 -12.710  0.00  0.00    -0.271 OA
HETATM    4  H           1     -35.041   0.429 -11.361  0.00  0.00     0.163 HD
ENDROOT
BRANCH   1   5
HETATM    5  C           1     -36.676  -0.358 -10.220  0.00  0.00     0.189 C 
BRANCH   5   6
HETATM    6  C           1     -35.750  -1.232  -9.383  0.00  0.00     0.074 C 
BRANCH   6   7
HETATM    7  C           1     -35.014  -2.181 -10.277  0.00  0.00    -0.056 A 
HETATM    8  C           1     -33.638  -2.041 -10.458  0.00  0.00     0.010 A 
HETATM    9  C           1     -32.952  -2.925 -11.290  0.00  0.00     0.037 A 
HETATM   10  C           1     -33.640  -3.949 -11.940  0.00  0.00     0.065 A 
HETATM   11  C           1     -35.017  -4.089 -11.758  0.00  0.00     0.037 A 
HETATM   12  C           1     -35.703  -3.205 -10.926  0.00  0.00     0.010 A 
BRANCH  10  13
HETATM   13  O           1     -32.974  -4.808 -12.749  0.00  0.00    -0.361 OA
HETATM   14  H           1     -32.486  -5.433 -12.186  0.00  0.00     0.217 HD
ENDBRANCH  10  13
ENDBRANCH   6   7
ENDBRANCH   5   6
BRANCH   5  15
HETATM   15  C           1     -37.083   0.856  -9.421  0.00  0.00     0.197 C 
HETATM   16  O           1     -38.075   1.530  -9.770  0.00  0.00    -0.646 OA
HETATM   17  O           1     -36.427   1.186  -8.409  0.00  0.00    -0.646 OA
ENDBRANCH   5  15
ENDBRANCH   1   5
BRANCH   2  18
HETATM   18  C           1     -35.884   0.412 -13.889  0.00  0.00     0.275 C 
BRANCH  18  19
HETATM   19  C           1     -35.443  -0.813 -14.680  0.00  0.00     0.046 C 
BRANCH  19  20
HETATM   20  C           1     -35.825  -0.638 -16.143  0.00  0.00    -0.020 C 
HETATM   21  C           1     -37.342  -0.652 -16.278  0.00  0.00     0.009 C 
HETATM   22  C           1     -35.233  -1.777 -16.963  0.00  0.00     0.009 C 
ENDBRANCH  19  20
ENDBRANCH  18  19
BRANCH  18  23
HETATM   23  N           1     -34.680   1.222 -13.512  0.00  0.00    -0.066 N 
HETATM   24  H           1     -34.001   1.229 -14.306  0.00  0.00     0.275 HD
HETATM   25  H           1     -34.973   2.202 -13.298  0.00  0.00     0.275 HD
HETATM   26  H           1     -34.227   0.802 -12.670  0.00  0.00     0.275 HD
ENDBRANCH  18  23
ENDBRANCH   2  18
TORSDOF 9
ENDMDL
MODEL 4
REMARK VINA RESULT:      -7.0      2.203      7.338
REMARK  9 active torsions:
REMARK  status: ('A' for Active; 'I' for Inactive)
REMARK    1  A    between atoms: C_1  and  C_10 
REMARK    2  A    between atoms: C_1  and  C_8 
REMARK    3  A    between atoms: C_1  and  N_21 
REMARK    4  A    between atoms: C_2  and  O_3 
REMARK    5  A    between atoms: N_6  and  C_18 
REMARK       I    between atoms: N_6  and  C_10 
REMARK    6  A    between atoms: C_8  and  C_23 
REMARK    7  A    between atoms: C_11  and  C_17 
REMARK    8  A    between atoms: C_17  and  C_18 
REMARK    9  A    between atoms: C_18  and  C_19 
ROOT
HETATM    1  N           1     -21.805  -5.002  -7.483  0.00  0.00    -0.344 N 
HETATM    2  C           1     -23.089  -4.554  -7.641  0.00  0.00     0.249 C 
HETATM    3  O           1     -23.805  -4.421  -6.677  0.00  0.00    -0.271 OA
HETATM    4  H           1     -21.205  -5.114  -8.290  0.00  0.00     0.163 HD
ENDROOT
BRANCH   1   5
HETATM    5  C           1     -21.305  -5.316  -6.159  0.00  0.00     0.189 C 
BRANCH   5   6
HETATM    6  C           1     -21.246  -6.828  -5.985  0.00  0.00     0.074 C 
BRANCH   6   7
HETATM    7  C           1     -21.149  -7.162  -4.529  0.00  0.00    -0.056 A 
HETATM    8  C           1     -21.892  -6.437  -3.597  0.00  0.00     0.010 A 
HETATM    9  C           1     -21.802  -6.747  -2.241  0.00  0.00     0.037 A 
HETATM   10  C           1     -20.970  -7.782  -1.815  0.00  0.00     0.065 A 
HETATM   11  C           1     -20.227  -8.507  -2.747  0.00  0.00     0.037 A 
HETATM   12  C           1     -20.316  -8.197  -4.104  0.00  0.00     0.010 A 
BRANCH  10  13
HETATM   13  O           1     -20.882  -8.083  -0.497  0.00  0.00    -0.361 OA
HETATM   14  H           1     -19.940  -8.152  -0.267  0.00  0.00     0.217 HD
ENDBRANCH  10  13
ENDBRANCH   6   7
ENDBRANCH   5   6
BRANCH   5  15
HETATM   15  C           1     -19.922  -4.735  -5.993  0.00  0.00     0.197 C 
HETATM   16  O           1     -19.565  -4.277  -4.887  0.00  0.00    -0.646 OA
HETATM   17  O           1     -19.133  -4.713  -6.962  0.00  0.00    -0.646 OA
ENDBRANCH   5  15
ENDBRANCH   1   5
BRANCH   2  18
HETATM   18  C           1     -23.610  -4.226  -9.019  0.00  0.00     0.275 C 
BRANCH  18  19
HETATM   19  C           1     -22.500  -3.584  -9.841  0.00  0.00     0.046 C 
BRANCH  19  20
HETATM   20  C           1     -22.124  -4.505 -10.994  0.00  0.00    -0.020 C 
HETATM   21  C           1     -21.213  -3.762 -11.962  0.00  0.00     0.009 C 
HETATM   22  C           1     -23.387  -4.945 -11.725  0.00  0.00     0.009 C 
ENDBRANCH  19  20
ENDBRANCH  18  19
BRANCH  18  23
HETATM   23  N           1     -24.762  -3.273  -8.904  0.00  0.00    -0.066 N 
HETATM   24  H           1     -25.566  -3.753  -8.440  0.00  0.00     0.275 HD
HETATM   25  H           1     -24.474  -2.448  -8.332  0.00  0.00     0.275 HD
HETATM   26  H           1     -25.047  -2.955  -9.856  0.00  0.00     0.275 HD
ENDBRANCH  18  23
ENDBRANCH   2  18
TORSDOF 9
ENDMDL
MODEL 5
REMARK VINA RESULT:      -7.0     11.357     14.415
REMARK  9 active torsions:
REMARK  status: ('A' for Active; 'I' for Inactive)
REMARK    1  A    between atoms: C_1  and  C_10 
REMARK    2  A    between atoms: C_1  and  C_8 
REMARK    3  A    between atoms: C_1  and  N_21 
REMARK    4  A    between atoms: C_2  and  O_3 
REMARK    5  A    between atoms: N_6  and  C_18 
REMARK       I    between atoms: N_6  and  C_10 
REMARK    6  A    between atoms: C_8  and  C_23 
REMARK    7  A    between atoms: C_11  and  C_17 
REMARK    8  A    between atoms: C_17  and  C_18 
REMARK    9  A    between atoms: C_18  and  C_19 
ROOT
HETATM    1  N           1     -25.903  -6.666 -17.817  0.00  0.00    -0.344 N 
HETATM    2  C           1     -25.920  -6.614 -19.185  0.00  0.00     0.249 C 
HETATM    3  O           1     -26.924  -6.269 -19.763  0.00  0.00    -0.271 OA
HETATM    4  H           1     -25.063  -6.955 -17.332  0.00  0.00     0.163 HD
ENDROOT
BRANCH   1   5
HETATM    5  C           1     -27.087  -6.306 -17.062  0.00  0.00     0.189 C 
BRANCH   5   6
HETATM    6  C           1     -28.325  -6.810 -17.792  0.00  0.00     0.074 C 
BRANCH   6   7
HETATM    7  C           1     -29.425  -5.801 -17.668  0.00  0.00    -0.056 A 
HETATM    8  C           1     -29.187  -4.467 -18.000  0.00  0.00     0.010 A 
HETATM    9  C           1     -30.211  -3.527 -17.885  0.00  0.00     0.037 A 
HETATM   10  C           1     -31.472  -3.920 -17.438  0.00  0.00     0.065 A 
HETATM   11  C           1     -31.710  -5.255 -17.106  0.00  0.00     0.037 A 
HETATM   12  C           1     -30.686  -6.195 -17.222  0.00  0.00     0.010 A 
BRANCH  10  13
HETATM   13  O           1     -32.466  -3.008 -17.325  0.00  0.00    -0.361 OA
HETATM   14  H           1     -33.270  -3.473 -17.037  0.00  0.00     0.217 HD
ENDBRANCH  10  13
ENDBRANCH   6   7
ENDBRANCH   5   6
BRANCH   5  15
HETATM   15  C           1     -27.020  -6.933 -15.691  0.00  0.00     0.197 C 
HETATM   16  O           1     -25.927  -7.342 -15.244  0.00  0.00    -0.646 OA
HETATM   17  O           1     -28.058  -7.045 -15.004  0.00  0.00    -0.646 OA
ENDBRANCH   5  15
ENDBRANCH   1   5
BRANCH   2  18
HETATM   18  C           1     -24.687  -6.989 -19.970  0.00  0.00     0.275 C 
BRANCH  18  19
HETATM   19  C           1     -25.015  -8.140 -20.912  0.00  0.00     0.046 C 
BRANCH  19  20
HETATM   20  C           1     -24.264  -7.953 -22.224  0.00  0.00    -0.020 C 
HETATM   21  C           1     -22.857  -8.518 -22.089  0.00  0.00     0.009 C 
HETATM   22  C           1     -24.184  -6.468 -22.555  0.00  0.00     0.009 C 
ENDBRANCH  19  20
ENDBRANCH  18  19
BRANCH  18  23
HETATM   23  N           1     -23.603  -7.410 -19.025  0.00  0.00    -0.066 N 
HETATM   24  H           1     -23.795  -8.380 -18.684  0.00  0.00     0.275 HD
HETATM   25  H           1     -22.683  -7.393 -19.520  0.00  0.00     0.275 HD
HETATM   26  H           1     -23.574  -6.754 -18.213  0.00  0.00     0.275 HD
ENDBRANCH  18  23
ENDBRANCH   2  18
TORSDOF 9
ENDMDL
MODEL 6
REMARK VINA RESULT:      -6.9      2.286      7.444
REMARK  9 active torsions:
REMARK  status: ('A' for Active; 'I' for Inactive)
REMARK    1  A    between atoms: C_1  and  C_10 
REMARK    2  A    between atoms: C_1  and  C_8 
REMARK    3  A    between atoms: C_1  and  N_21 
REMARK    4  A    between atoms: C_2  and  O_3 
REMARK    5  A    between atoms: N_6  and  C_18 
REMARK       I    between atoms: N_6  and  C_10 
REMARK    6  A    between atoms: C_8  and  C_23 
REMARK    7  A    between atoms: C_11  and  C_17 
REMARK    8  A    between atoms: C_17  and  C_18 
REMARK    9  A    between atoms: C_18  and  C_19 
ROOT
HETATM    1  N           1     -20.212  -6.716  -6.093  0.00  0.00    -0.344 N 
HETATM    2  C           1     -20.326  -5.358  -5.967  0.00  0.00     0.249 C 
HETATM    3  O           1     -20.327  -4.852  -4.869  0.00  0.00    -0.271 OA
HETATM    4  H           1     -20.211  -7.141  -7.012  0.00  0.00     0.163 HD
ENDROOT
BRANCH   1   5
HETATM    5  C           1     -20.094  -7.547  -4.911  0.00  0.00     0.189 C 
BRANCH   5   6
HETATM    6  C           1     -21.449  -8.161  -4.585  0.00  0.00     0.074 C 
BRANCH   6   7
HETATM    7  C           1     -21.705  -8.057  -3.114  0.00  0.00    -0.056 A 
HETATM    8  C           1     -21.962  -6.813  -2.538  0.00  0.00     0.010 A 
HETATM    9  C           1     -22.200  -6.715  -1.167  0.00  0.00     0.037 A 
HETATM   10  C           1     -22.183  -7.861  -0.373  0.00  0.00     0.065 A 
HETATM   11  C           1     -21.927  -9.105  -0.949  0.00  0.00     0.037 A 
HETATM   12  C           1     -21.688  -9.203  -2.320  0.00  0.00     0.010 A 
BRANCH  10  13
HETATM   13  O           1     -22.414  -7.766   0.959  0.00  0.00    -0.361 OA
HETATM   14  H           1     -21.776  -8.339   1.416  0.00  0.00     0.217 HD
ENDBRANCH  10  13
ENDBRANCH   6   7
ENDBRANCH   5   6
BRANCH   5  15
HETATM   15  C           1     -19.091  -8.646  -5.168  0.00  0.00     0.197 C 
HETATM   16  O           1     -18.597  -8.788  -6.306  0.00  0.00    -0.646 OA
HETATM   17  O           1     -18.756  -9.415  -4.240  0.00  0.00    -0.646 OA
ENDBRANCH   5  15
ENDBRANCH   1   5
BRANCH   2  18
HETATM   18  C           1     -20.449  -4.493  -7.197  0.00  0.00     0.275 C 
BRANCH  18  19
HETATM   19  C           1     -21.445  -5.122  -8.162  0.00  0.00     0.046 C 
BRANCH  19  20
HETATM   20  C           1     -22.068  -4.035  -9.028  0.00  0.00    -0.020 C 
HETATM   21  C           1     -23.583  -4.071  -8.878  0.00  0.00     0.009 C 
HETATM   22  C           1     -21.699  -4.274 -10.487  0.00  0.00     0.009 C 
ENDBRANCH  19  20
ENDBRANCH  18  19
BRANCH  18  23
HETATM   23  N           1     -19.110  -4.381  -7.864  0.00  0.00    -0.066 N 
HETATM   24  H           1     -18.913  -5.256  -8.399  0.00  0.00     0.275 HD
HETATM   25  H           1     -19.115  -3.567  -8.520  0.00  0.00     0.275 HD
HETATM   26  H           1     -18.371  -4.240  -7.140  0.00  0.00     0.275 HD
ENDBRANCH  18  23
ENDBRANCH   2  18
TORSDOF 9
ENDMDL
MODEL 7
REMARK VINA RESULT:      -6.8     13.853     16.001
REMARK  9 active torsions:
REMARK  status: ('A' for Active; 'I' for Inactive)
REMARK    1  A    between atoms: C_1  and  C_10 
REMARK    2  A    between atoms: C_1  and  C_8 
REMARK    3  A    between atoms: C_1  and  N_21 
REMARK    4  A    between atoms: C_2  and  O_3 
REMARK    5  A    between atoms: N_6  and  C_18 
REMARK       I    between atoms: N_6  and  C_10 
REMARK    6  A    between atoms: C_8  and  C_23 
REMARK    7  A    between atoms: C_11  and  C_17 
REMARK    8  A    between atoms: C_17  and  C_18 
REMARK    9  A    between atoms: C_18  and  C_19 
ROOT
HETATM    1  N           1     -35.855  -1.810 -11.141  0.00  0.00    -0.344 N 
HETATM    2  C           1     -34.536  -2.179 -11.141  0.00  0.00     0.249 C 
HETATM    3  O           1     -33.685  -1.375 -10.842  0.00  0.00    -0.271 OA
HETATM    4  H           1     -36.568  -2.483 -11.392  0.00  0.00     0.163 HD
ENDROOT
BRANCH   1   5
HETATM    5  C           1     -36.229  -0.457 -10.782  0.00  0.00     0.189 C 
BRANCH   5   6
HETATM    6  C           1     -37.429  -0.025 -11.615  0.00  0.00     0.074 C 
BRANCH   6   7
HETATM    7  C           1     -37.076  -0.085 -13.069  0.00  0.00    -0.056 A 
HETATM    8  C           1     -38.074  -0.295 -14.020  0.00  0.00     0.010 A 
HETATM    9  C           1     -37.747  -0.351 -15.374  0.00  0.00     0.037 A 
HETATM   10  C           1     -36.421  -0.196 -15.778  0.00  0.00     0.065 A 
HETATM   11  C           1     -35.422   0.015 -14.827  0.00  0.00     0.037 A 
HETATM   12  C           1     -35.750   0.070 -13.472  0.00  0.00     0.010 A 
BRANCH  10  13
HETATM   13  O           1     -36.102  -0.251 -17.093  0.00  0.00    -0.361 OA
HETATM   14  H           1     -36.167   0.649 -17.456  0.00  0.00     0.217 HD
ENDBRANCH  10  13
ENDBRANCH   6   7
ENDBRANCH   5   6
BRANCH   5  15
HETATM   15  C           1     -36.589  -0.407  -9.317  0.00  0.00     0.197 C 
HETATM   16  O           1     -37.687  -0.860  -8.927  0.00  0.00    -0.646 OA
HETATM   17  O           1     -35.789   0.088  -8.493  0.00  0.00    -0.646 OA
ENDBRANCH   5  15
ENDBRANCH   1   5
BRANCH   2  18
HETATM   18  C           1     -34.146  -3.588 -11.515  0.00  0.00     0.275 C 
BRANCH  18  19
HETATM   19  C           1     -34.509  -4.534 -10.378  0.00  0.00     0.046 C 
BRANCH  19  20
HETATM   20  C           1     -34.312  -5.974 -10.832  0.00  0.00    -0.020 C 
HETATM   21  C           1     -35.081  -6.209 -12.126  0.00  0.00     0.009 C 
HETATM   22  C           1     -34.830  -6.921  -9.757  0.00  0.00     0.009 C 
ENDBRANCH  19  20
ENDBRANCH  18  19
BRANCH  18  23
HETATM   23  N           1     -32.669  -3.648 -11.762  0.00  0.00    -0.066 N 
HETATM   24  H           1     -32.158  -3.463 -10.869  0.00  0.00     0.275 HD
HETATM   25  H           1     -32.413  -4.597 -12.117  0.00  0.00     0.275 HD
HETATM   26  H           1     -32.404  -2.928 -12.471  0.00  0.00     0.275 HD
ENDBRANCH  18  23
ENDBRANCH   2  18
TORSDOF 9
ENDMDL
MODEL 8
REMARK VINA RESULT:      -6.8     13.276     15.546
REMARK  9 active torsions:
REMARK  status: ('A' for Active; 'I' for Inactive)
REMARK    1  A    between atoms: C_1  and  C_10 
REMARK    2  A    between atoms: C_1  and  C_8 
REMARK    3  A    between atoms: C_1  and  N_21 
REMARK    4  A    between atoms: C_2  and  O_3 
REMARK    5  A    between atoms: N_6  and  C_18 
REMARK       I    between atoms: N_6  and  C_10 
REMARK    6  A    between atoms: C_8  and  C_23 
REMARK    7  A    between atoms: C_11  and  C_17 
REMARK    8  A    between atoms: C_17  and  C_18 
REMARK    9  A    between atoms: C_18  and  C_19 
ROOT
HETATM    1  N           1     -33.531  -3.751 -14.328  0.00  0.00    -0.344 N 
HETATM    2  C           1     -33.960  -4.475 -15.408  0.00  0.00     0.249 C 
HETATM    3  O           1     -35.004  -5.080 -15.353  0.00  0.00    -0.271 OA
HETATM    4  H           1     -32.656  -3.244 -14.373  0.00  0.00     0.163 HD
ENDROOT
BRANCH   1   5
HETATM    5  C           1     -34.331  -3.710 -13.119  0.00  0.00     0.189 C 
BRANCH   5   6
HETATM    6  C           1     -33.424  -3.871 -11.906  0.00  0.00     0.074 C 
BRANCH   6   7
HETATM    7  C           1     -33.728  -5.167 -11.222  0.00  0.00    -0.056 A 
HETATM    8  C           1     -32.794  -6.204 -11.248  0.00  0.00     0.010 A 
HETATM    9  C           1     -33.076  -7.412 -10.611  0.00  0.00     0.037 A 
HETATM   10  C           1     -34.291  -7.584  -9.948  0.00  0.00     0.065 A 
HETATM   11  C           1     -35.224  -6.547  -9.922  0.00  0.00     0.037 A 
HETATM   12  C           1     -34.942  -5.339 -10.559  0.00  0.00     0.010 A 
BRANCH  10  13
HETATM   13  O           1     -34.566  -8.758  -9.330  0.00  0.00    -0.361 OA
HETATM   14  H           1     -35.509  -8.759  -9.093  0.00  0.00     0.217 HD
ENDBRANCH  10  13
ENDBRANCH   6   7
ENDBRANCH   5   6
BRANCH   5  15
HETATM   15  C           1     -35.052  -2.386 -13.038  0.00  0.00     0.197 C 
HETATM   16  O           1     -35.796  -2.139 -12.065  0.00  0.00    -0.646 OA
HETATM   17  O           1     -34.904  -1.537 -13.943  0.00  0.00    -0.646 OA
ENDBRANCH   5  15
ENDBRANCH   1   5
BRANCH   2  18
HETATM   18  C           1     -33.127  -4.517 -16.666  0.00  0.00     0.275 C 
BRANCH  18  19
HETATM   19  C           1     -31.666  -4.742 -16.301  0.00  0.00     0.046 C 
BRANCH  19  20
HETATM   20  C           1     -30.918  -5.283 -17.511  0.00  0.00    -0.020 C 
HETATM   21  C           1     -30.442  -6.701 -17.223  0.00  0.00     0.009 C 
HETATM   22  C           1     -29.714  -4.395 -17.803  0.00  0.00     0.009 C 
ENDBRANCH  19  20
ENDBRANCH  18  19
BRANCH  18  23
HETATM   23  N           1     -33.265  -3.216 -17.399  0.00  0.00    -0.066 N 
HETATM   24  H           1     -32.790  -3.286 -18.327  0.00  0.00     0.275 HD
HETATM   25  H           1     -34.278  -3.002 -17.542  0.00  0.00     0.275 HD
HETATM   26  H           1     -32.824  -2.452 -16.839  0.00  0.00     0.275 HD
ENDBRANCH  18  23
ENDBRANCH   2  18
TORSDOF 9
ENDMDL
MODEL 9
REMARK VINA RESULT:      -6.4      5.549      8.462
REMARK  9 active torsions:
REMARK  status: ('A' for Active; 'I' for Inactive)
REMARK    1  A    between atoms: C_1  and  C_10 
REMARK    2  A    between atoms: C_1  and  C_8 
REMARK    3  A    between atoms: C_1  and  N_21 
REMARK    4  A    between atoms: C_2  and  O_3 
REMARK    5  A    between atoms: N_6  and  C_18 
REMARK       I    between atoms: N_6  and  C_10 
REMARK    6  A    between atoms: C_8  and  C_23 
REMARK    7  A    between atoms: C_11  and  C_17 
REMARK    8  A    between atoms: C_17  and  C_18 
REMARK    9  A    between atoms: C_18  and  C_19 
ROOT
HETATM    1  N           1     -20.500  -8.420  -2.562  0.00  0.00    -0.344 N 
HETATM    2  C           1     -20.521  -9.311  -3.602  0.00  0.00     0.249 C 
HETATM    3  O           1     -21.571  -9.780  -3.973  0.00  0.00    -0.271 OA
HETATM    4  H           1     -19.621  -8.027  -2.250  0.00  0.00     0.163 HD
ENDROOT
BRANCH   1   5
HETATM    5  C           1     -21.736  -8.040  -1.908  0.00  0.00     0.189 C 
BRANCH   5   6
HETATM    6  C           1     -21.618  -8.296  -0.412  0.00  0.00     0.074 C 
BRANCH   6   7
HETATM    7  C           1     -22.061  -9.693  -0.106  0.00  0.00    -0.056 A 
HETATM    8  C           1     -21.149 -10.619   0.399  0.00  0.00     0.010 A 
HETATM    9  C           1     -21.562 -11.920   0.684  0.00  0.00     0.037 A 
HETATM   10  C           1     -22.887 -12.296   0.464  0.00  0.00     0.065 A 
HETATM   11  C           1     -23.800 -11.369  -0.040  0.00  0.00     0.037 A 
HETATM   12  C           1     -23.387 -10.068  -0.325  0.00  0.00     0.010 A 
BRANCH  10  13
HETATM   13  O           1     -23.288 -13.560   0.741  0.00  0.00    -0.361 OA
HETATM   14  H           1     -22.782 -13.875   1.509  0.00  0.00     0.217 HD
ENDBRANCH  10  13
ENDBRANCH   6   7
ENDBRANCH   5   6
BRANCH   5  15
HETATM   15  C           1     -22.002  -6.573  -2.149  0.00  0.00     0.197 C 
HETATM   16  O           1     -21.851  -6.090  -3.291  0.00  0.00    -0.646 OA
HETATM   17  O           1     -22.374  -5.843  -1.205  0.00  0.00    -0.646 OA
ENDBRANCH   5  15
ENDBRANCH   1   5
BRANCH   2  18
HETATM   18  C           1     -19.234  -9.706  -4.284  0.00  0.00     0.275 C 
BRANCH  18  19
HETATM   19  C           1     -18.054  -9.313  -3.405  0.00  0.00     0.046 C 
BRANCH  19  20
HETATM   20  C           1     -17.297 -10.565  -2.981  0.00  0.00    -0.020 C 
HETATM   21  C           1     -18.004 -11.209  -1.796  0.00  0.00     0.009 C 
HETATM   22  C           1     -15.877 -10.188  -2.580  0.00  0.00     0.009 C 
ENDBRANCH  19  20
ENDBRANCH  18  19
BRANCH  18  23
HETATM   23  N           1     -19.132  -9.002  -5.603  0.00  0.00    -0.066 N 
HETATM   24  H           1     -18.707  -8.057  -5.462  0.00  0.00     0.275 HD
HETATM   25  H           1     -18.529  -9.560  -6.250  0.00  0.00     0.275 HD
HETATM   26  H           1     -20.084  -8.897  -6.018  0.00  0.00     0.275 HD
ENDBRANCH  18  23
ENDBRANCH   2  18
TORSDOF 9
ENDMDL
