MODEL 1
REMARK VINA RESULT:      -6.2      0.000      0.000
REMARK  9 active torsions:
REMARK  status: ('A' for Active; 'I' for Inactive)
REMARK    1  A    between atoms: N_2  and  C_20 
REMARK       I    between atoms: N_2  and  C_3 
REMARK    2  A    between atoms: C_3  and  C_4 
REMARK    3  A    between atoms: C_4  and  C_5 
REMARK    4  A    between atoms: C_4  and  N_6 
REMARK    5  A    between atoms: C_5  and  S_9 
REMARK       I    between atoms: C_13  and  N_23 
REMARK    6  A    between atoms: C_13  and  C_22 
REMARK    7  A    between atoms: C_19  and  C_20 
REMARK    8  A    between atoms: C_20  and  C_21 
REMARK    9  A    between atoms: C_21  and  C_22 
ROOT
HETATM    1  N           1     -27.683  -6.785 -19.098  0.00  0.00    -0.345 N 
HETATM    2  C           1     -26.414  -6.515 -18.661  0.00  0.00     0.249 C 
HETATM    3  O           1     -26.241  -6.051 -17.559  0.00  0.00    -0.271 OA
HETATM    4  H           1     -27.829  -7.174 -20.020  0.00  0.00     0.163 HD
ENDROOT
BRANCH   1   5
HETATM    5  C           1     -28.819  -6.517 -18.237  0.00  0.00     0.186 C 
BRANCH   5   6
HETATM    6  C           1     -29.887  -7.556 -18.475  0.00  0.00     0.196 C 
HETATM    7  O           1     -29.669  -8.508 -19.256  0.00  0.00    -0.646 OA
HETATM    8  O           1     -30.988  -7.467 -17.891  0.00  0.00    -0.646 OA
ENDBRANCH   5   6
BRANCH   5   9
HETATM    9  C           1     -29.376  -5.134 -18.548  0.00  0.00     0.045 C 
BRANCH   9  10
HETATM   10  C           1     -29.652  -4.392 -17.247  0.00  0.00     0.105 C 
BRANCH  10  11
HETATM   11  C           1     -31.121  -4.057 -17.161  0.00  0.00     0.215 C 
HETATM   12  O           1     -31.535  -3.028 -17.638  0.00  0.00    -0.274 OA
HETATM   13  N           1     -31.983  -4.921 -16.541  0.00  0.00    -0.370 N 
HETATM   14  H           1     -31.636  -5.783 -16.141  0.00  0.00     0.159 HD
HETATM   15  H           1     -32.969  -4.697 -16.482  0.00  0.00     0.159 HD
ENDBRANCH  10  11
ENDBRANCH   9  10
ENDBRANCH   5   9
ENDBRANCH   1   5
BRANCH   2  16
HETATM   16  C           1     -25.232  -6.795 -19.557  0.00  0.00     0.283 C 
BRANCH  16  17
HETATM   17  C           1     -25.686  -7.623 -20.752  0.00  0.00     0.113 C 
BRANCH  17  18
HETATM   18  S           1     -24.280  -7.903 -21.865  0.00  0.00    -0.180 SA
HETATM   19  H           1     -23.921  -9.088 -21.344  0.00  0.00     0.101 HD
ENDBRANCH  17  18
ENDBRANCH  16  17
BRANCH  16  20
HETATM   20  N           1     -24.193  -7.555 -18.788  0.00  0.00    -0.066 N 
HETATM   21  H           1     -24.642  -8.039 -17.977  0.00  0.00     0.275 HD
HETATM   22  H           1     -23.747  -8.265 -19.412  0.00  0.00     0.275 HD
HETATM   23  H           1     -23.465  -6.893 -18.437  0.00  0.00     0.275 HD
ENDBRANCH  16  20
ENDBRANCH   2  16
TORSDOF 9
ENDMDL
MODEL 2
REMARK VINA RESULT:      -5.5      1.941      2.661
REMARK  9 active torsions:
REMARK  status: ('A' for Active; 'I' for Inactive)
REMARK    1  A    between atoms: N_2  and  C_20 
REMARK       I    between atoms: N_2  and  C_3 
REMARK    2  A    between atoms: C_3  and  C_4 
REMARK    3  A    between atoms: C_4  and  C_5 
REMARK    4  A    between atoms: C_4  and  N_6 
REMARK    5  A    between atoms: C_5  and  S_9 
REMARK       I    between atoms: C_13  and  N_23 
REMARK    6  A    between atoms: C_13  and  C_22 
REMARK    7  A    between atoms: C_19  and  C_20 
REMARK    8  A    between atoms: C_20  and  C_21 
REMARK    9  A    between atoms: C_21  and  C_22 
ROOT
HETATM    1  N           1     -26.864  -6.671 -18.626  0.00  0.00    -0.345 N 
HETATM    2  C           1     -26.574  -6.611 -19.962  0.00  0.00     0.249 C 
HETATM    3  O           1     -26.872  -5.631 -20.602  0.00  0.00    -0.271 OA
HETATM    4  H           1     -26.615  -7.492 -18.090  0.00  0.00     0.163 HD
ENDROOT
BRANCH   1   5
HETATM    5  C           1     -27.528  -5.557 -17.978  0.00  0.00     0.186 C 
BRANCH   5   6
HETATM    6  C           1     -27.078  -5.471 -16.540  0.00  0.00     0.196 C 
HETATM    7  O           1     -27.899  -5.171 -15.646  0.00  0.00    -0.646 OA
HETATM    8  O           1     -25.887  -5.701 -16.242  0.00  0.00    -0.646 OA
ENDBRANCH   5   6
BRANCH   5   9
HETATM    9  C           1     -29.036  -5.766 -18.028  0.00  0.00     0.045 C 
BRANCH   9  10
HETATM   10  C           1     -29.720  -4.450 -18.374  0.00  0.00     0.105 C 
BRANCH  10  11
HETATM   11  C           1     -30.798  -4.161 -17.358  0.00  0.00     0.215 C 
HETATM   12  O           1     -31.458  -3.153 -17.448  0.00  0.00    -0.274 OA
HETATM   13  N           1     -31.028  -5.041 -16.335  0.00  0.00    -0.370 N 
HETATM   14  H           1     -30.475  -5.885 -16.260  0.00  0.00     0.159 HD
HETATM   15  H           1     -31.751  -4.847 -15.654  0.00  0.00     0.159 HD
ENDBRANCH  10  11
ENDBRANCH   9  10
ENDBRANCH   5   9
ENDBRANCH   1   5
BRANCH   2  16
HETATM   16  C           1     -25.882  -7.771 -20.636  0.00  0.00     0.283 C 
BRANCH  16  17
HETATM   17  C           1     -24.930  -7.244 -21.703  0.00  0.00     0.113 C 
BRANCH  17  18
HETATM   18  S           1     -23.456  -8.301 -21.775  0.00  0.00    -0.180 SA
HETATM   19  H           1     -23.964  -9.303 -21.037  0.00  0.00     0.101 HD
ENDBRANCH  17  18
ENDBRANCH  16  17
BRANCH  16  20
HETATM   20  N           1     -26.907  -8.660 -21.277  0.00  0.00    -0.066 N 
HETATM   21  H           1     -27.776  -8.664 -20.697  0.00  0.00     0.275 HD
HETATM   22  H           1     -27.129  -8.302 -22.233  0.00  0.00     0.275 HD
HETATM   23  H           1     -26.530  -9.632 -21.346  0.00  0.00     0.275 HD
ENDBRANCH  16  20
ENDBRANCH   2  16
TORSDOF 9
ENDMDL
MODEL 3
REMARK VINA RESULT:      -5.4     12.552     13.666
REMARK  9 active torsions:
REMARK  status: ('A' for Active; 'I' for Inactive)
REMARK    1  A    between atoms: N_2  and  C_20 
REMARK       I    between atoms: N_2  and  C_3 
REMARK    2  A    between atoms: C_3  and  C_4 
REMARK    3  A    between atoms: C_4  and  C_5 
REMARK    4  A    between atoms: C_4  and  N_6 
REMARK    5  A    between atoms: C_5  and  S_9 
REMARK       I    between atoms: C_13  and  N_23 
REMARK    6  A    between atoms: C_13  and  C_22 
REMARK    7  A    between atoms: C_19  and  C_20 
REMARK    8  A    between atoms: C_20  and  C_21 
REMARK    9  A    between atoms: C_21  and  C_22 
ROOT
HETATM    1  N           1     -21.439  -4.931  -6.745  0.00  0.00    -0.345 N 
HETATM    2  C           1     -21.212  -6.155  -6.175  0.00  0.00     0.249 C 
HETATM    3  O           1     -21.104  -7.136  -6.872  0.00  0.00    -0.271 OA
HETATM    4  H           1     -21.529  -4.109  -6.161  0.00  0.00     0.163 HD
ENDROOT
BRANCH   1   5
HETATM    5  C           1     -21.548  -4.812  -8.186  0.00  0.00     0.186 C 
BRANCH   5   6
HETATM    6  C           1     -20.206  -4.436  -8.763  0.00  0.00     0.196 C 
HETATM    7  O           1     -19.460  -3.645  -8.145  0.00  0.00    -0.646 OA
HETATM    8  O           1     -19.838  -4.916  -9.857  0.00  0.00    -0.646 OA
ENDBRANCH   5   6
BRANCH   5   9
HETATM    9  C           1     -22.569  -3.736  -8.530  0.00  0.00     0.045 C 
BRANCH   9  10
HETATM   10  C           1     -22.884  -3.790 -10.019  0.00  0.00     0.105 C 
BRANCH  10  11
HETATM   11  C           1     -24.379  -3.852 -10.216  0.00  0.00     0.215 C 
HETATM   12  O           1     -24.919  -3.095 -10.987  0.00  0.00    -0.274 OA
HETATM   13  N           1     -25.123  -4.767  -9.520  0.00  0.00    -0.370 N 
HETATM   14  H           1     -24.671  -5.401  -8.875  0.00  0.00     0.159 HD
HETATM   15  H           1     -26.126  -4.808  -9.652  0.00  0.00     0.159 HD
ENDBRANCH  10  11
ENDBRANCH   9  10
ENDBRANCH   5   9
ENDBRANCH   1   5
BRANCH   2  16
HETATM   16  C           1     -21.097  -6.278  -4.675  0.00  0.00     0.283 C 
BRANCH  16  17
HETATM   17  C           1     -20.519  -7.642  -4.320  0.00  0.00     0.113 C 
BRANCH  17  18
HETATM   18  S           1     -20.837  -7.999  -2.569  0.00  0.00    -0.180 SA
HETATM   19  H           1     -21.931  -8.753  -2.776  0.00  0.00     0.101 HD
ENDBRANCH  17  18
ENDBRANCH  16  17
BRANCH  16  20
HETATM   20  N           1     -22.456  -6.136  -4.057  0.00  0.00    -0.066 N 
HETATM   21  H           1     -22.749  -7.050  -3.642  0.00  0.00     0.275 HD
HETATM   22  H           1     -22.424  -5.409  -3.307  0.00  0.00     0.275 HD
HETATM   23  H           1     -23.144  -5.851  -4.790  0.00  0.00     0.275 HD
ENDBRANCH  16  20
ENDBRANCH   2  16
TORSDOF 9
ENDMDL
MODEL 4
REMARK VINA RESULT:      -5.4     10.869     12.250
REMARK  9 active torsions:
REMARK  status: ('A' for Active; 'I' for Inactive)
REMARK    1  A    between atoms: N_2  and  C_20 
REMARK       I    between atoms: N_2  and  C_3 
REMARK    2  A    between atoms: C_3  and  C_4 
REMARK    3  A    between atoms: C_4  and  C_5 
REMARK    4  A    between atoms: C_4  and  N_6 
REMARK    5  A    between atoms: C_5  and  S_9 
REMARK       I    between atoms: C_13  and  N_23 
REMARK    6  A    between atoms: C_13  and  C_22 
REMARK    7  A    between atoms: C_19  and  C_20 
REMARK    8  A    between atoms: C_20  and  C_21 
REMARK    9  A    between atoms: C_21  and  C_22 
ROOT
HETATM    1  N           1     -23.241  -4.509  -8.690  0.00  0.00    -0.345 N 
HETATM    2  C           1     -22.239  -4.212  -7.806  0.00  0.00     0.249 C 
HETATM    3  O           1     -21.397  -3.397  -8.099  0.00  0.00    -0.271 OA
HETATM    4  H           1     -23.946  -5.192  -8.445  0.00  0.00     0.163 HD
ENDROOT
BRANCH   1   5
HETATM    5  C           1     -23.294  -3.844  -9.977  0.00  0.00     0.186 C 
BRANCH   5   6
HETATM    6  C           1     -24.670  -3.263 -10.187  0.00  0.00     0.196 C 
HETATM    7  O           1     -25.230  -3.371 -11.300  0.00  0.00    -0.646 OA
HETATM    8  O           1     -25.252  -2.676  -9.250  0.00  0.00    -0.646 OA
ENDBRANCH   5   6
BRANCH   5   9
HETATM    9  C           1     -22.991  -4.849 -11.081  0.00  0.00     0.045 C 
BRANCH   9  10
HETATM   10  C           1     -21.968  -4.258 -12.041  0.00  0.00     0.105 C 
BRANCH  10  11
HETATM   11  C           1     -20.702  -3.930 -11.288  0.00  0.00     0.215 C 
HETATM   12  O           1     -20.069  -4.811 -10.757  0.00  0.00    -0.274 OA
HETATM   13  N           1     -20.270  -2.634 -11.209  0.00  0.00    -0.370 N 
HETATM   14  H           1     -20.799  -1.895 -11.654  0.00  0.00     0.159 HD
HETATM   15  H           1     -19.420  -2.413 -10.704  0.00  0.00     0.159 HD
ENDBRANCH  10  11
ENDBRANCH   9  10
ENDBRANCH   5   9
ENDBRANCH   1   5
BRANCH   2  16
HETATM   16  C           1     -22.185  -4.904  -6.466  0.00  0.00     0.283 C 
BRANCH  16  17
HETATM   17  C           1     -21.311  -6.147  -6.571  0.00  0.00     0.113 C 
BRANCH  17  18
HETATM   18  S           1     -21.345  -7.048  -4.995  0.00  0.00    -0.180 SA
HETATM   19  H           1     -22.630  -6.779  -4.706  0.00  0.00     0.101 HD
ENDBRANCH  17  18
ENDBRANCH  16  17
BRANCH  16  20
HETATM   20  N           1     -23.572  -5.303  -6.054  0.00  0.00    -0.066 N 
HETATM   21  H           1     -23.519  -6.082  -5.359  0.00  0.00     0.275 HD
HETATM   22  H           1     -24.055  -4.484  -5.621  0.00  0.00     0.275 HD
HETATM   23  H           1     -24.107  -5.621  -6.893  0.00  0.00     0.275 HD
ENDBRANCH  16  20
ENDBRANCH   2  16
TORSDOF 9
ENDMDL
MODEL 5
REMARK VINA RESULT:      -5.2      1.553      2.884
REMARK  9 active torsions:
REMARK  status: ('A' for Active; 'I' for Inactive)
REMARK    1  A    between atoms: N_2  and  C_20 
REMARK       I    between atoms: N_2  and  C_3 
REMARK    2  A    between atoms: C_3  and  C_4 
REMARK    3  A    between atoms: C_4  and  C_5 
REMARK    4  A    between atoms: C_4  and  N_6 
REMARK    5  A    between atoms: C_5  and  S_9 
REMARK       I    between atoms: C_13  and  N_23 
REMARK    6  A    between atoms: C_13  and  C_22 
REMARK    7  A    between atoms: C_19  and  C_20 
REMARK    8  A    between atoms: C_20  and  C_21 
REMARK    9  A    between atoms: C_21  and  C_22 
ROOT
HETATM    1  N           1     -26.818  -6.501 -18.209  0.00  0.00    -0.345 N 
HETATM    2  C           1     -26.510  -6.505 -19.543  0.00  0.00     0.249 C 
HETATM    3  O           1     -27.344  -6.184 -20.356  0.00  0.00    -0.271 OA
HETATM    4  H           1     -26.120  -6.769 -17.527  0.00  0.00     0.163 HD
ENDROOT
BRANCH   1   5
HETATM    5  C           1     -28.144  -6.109 -17.772  0.00  0.00     0.186 C 
BRANCH   5   6
HETATM    6  C           1     -28.138  -4.650 -17.391  0.00  0.00     0.196 C 
HETATM    7  O           1     -27.209  -4.192 -16.690  0.00  0.00    -0.646 OA
HETATM    8  O           1     -29.059  -3.898 -17.776  0.00  0.00    -0.646 OA
ENDBRANCH   5   6
BRANCH   5   9
HETATM    9  C           1     -28.551  -6.948 -16.568  0.00  0.00     0.045 C 
BRANCH   9  10
HETATM   10  C           1     -29.545  -8.016 -17.004  0.00  0.00     0.105 C 
BRANCH  10  11
HETATM   11  C           1     -30.698  -7.365 -17.729  0.00  0.00     0.215 C 
HETATM   12  O           1     -31.029  -7.765 -18.820  0.00  0.00    -0.274 OA
HETATM   13  N           1     -31.368  -6.322 -17.148  0.00  0.00    -0.370 N 
HETATM   14  H           1     -31.091  -5.988 -16.234  0.00  0.00     0.159 HD
HETATM   15  H           1     -32.142  -5.885 -17.634  0.00  0.00     0.159 HD
ENDBRANCH  10  11
ENDBRANCH   9  10
ENDBRANCH   5   9
ENDBRANCH   1   5
BRANCH   2  16
HETATM   16  C           1     -25.129  -6.912 -19.997  0.00  0.00     0.283 C 
BRANCH  16  17
HETATM   17  C           1     -25.243  -7.994 -21.062  0.00  0.00     0.113 C 
BRANCH  17  18
HETATM   18  S           1     -23.778  -7.949 -22.133  0.00  0.00    -0.180 SA
HETATM   19  H           1     -23.751  -9.268 -22.390  0.00  0.00     0.101 HD
ENDBRANCH  17  18
ENDBRANCH  16  17
BRANCH  16  20
HETATM   20  N           1     -24.356  -7.443 -18.826  0.00  0.00    -0.066 N 
HETATM   21  H           1     -23.422  -7.784 -19.151  0.00  0.00     0.275 HD
HETATM   22  H           1     -24.223  -6.682 -18.123  0.00  0.00     0.275 HD
HETATM   23  H           1     -24.882  -8.233 -18.391  0.00  0.00     0.275 HD
ENDBRANCH  16  20
ENDBRANCH   2  16
TORSDOF 9
ENDMDL
MODEL 6
REMARK VINA RESULT:      -5.1     14.348     15.447
REMARK  9 active torsions:
REMARK  status: ('A' for Active; 'I' for Inactive)
REMARK    1  A    between atoms: N_2  and  C_20 
REMARK       I    between atoms: N_2  and  C_3 
REMARK    2  A    between atoms: C_3  and  C_4 
REMARK    3  A    between atoms: C_4  and  C_5 
REMARK    4  A    between atoms: C_4  and  N_6 
REMARK    5  A    between atoms: C_5  and  S_9 
REMARK       I    between atoms: C_13  and  N_23 
REMARK    6  A    between atoms: C_13  and  C_22 
REMARK    7  A    between atoms: C_19  and  C_20 
REMARK    8  A    between atoms: C_20  and  C_21 
REMARK    9  A    between atoms: C_21  and  C_22 
ROOT
HETATM    1  N           1     -21.282  -6.380  -6.435  0.00  0.00    -0.345 N 
HETATM    2  C           1     -21.047  -5.109  -6.886  0.00  0.00     0.249 C 
HETATM    3  O           1     -20.470  -4.315  -6.182  0.00  0.00    -0.271 OA
HETATM    4  H           1     -21.767  -7.045  -7.024  0.00  0.00     0.163 HD
ENDROOT
BRANCH   1   5
HETATM    5  C           1     -20.835  -6.774  -5.113  0.00  0.00     0.186 C 
BRANCH   5   6
HETATM    6  C           1     -20.342  -8.199  -5.153  0.00  0.00     0.196 C 
HETATM    7  O           1     -21.013  -9.108  -4.617  0.00  0.00    -0.646 OA
HETATM    8  O           1     -19.263  -8.472  -5.723  0.00  0.00    -0.646 OA
ENDBRANCH   5   6
BRANCH   5   9
HETATM    9  C           1     -21.995  -6.665  -4.132  0.00  0.00     0.045 C 
BRANCH   9  10
HETATM   10  C           1     -21.488  -6.114  -2.805  0.00  0.00     0.105 C 
BRANCH  10  11
HETATM   11  C           1     -21.880  -7.052  -1.689  0.00  0.00     0.215 C 
HETATM   12  O           1     -22.696  -6.707  -0.868  0.00  0.00    -0.274 OA
HETATM   13  N           1     -21.309  -8.293  -1.607  0.00  0.00    -0.370 N 
HETATM   14  H           1     -20.625  -8.583  -2.295  0.00  0.00     0.159 HD
HETATM   15  H           1     -21.572  -8.923  -0.859  0.00  0.00     0.159 HD
ENDBRANCH  10  11
ENDBRANCH   9  10
ENDBRANCH   5   9
ENDBRANCH   1   5
BRANCH   2  16
HETATM   16  C           1     -21.512  -4.699  -8.263  0.00  0.00     0.283 C 
BRANCH  16  17
HETATM   17  C           1     -20.307  -4.319  -9.113  0.00  0.00     0.113 C 
BRANCH  17  18
HETATM   18  S           1     -20.834  -4.059 -10.831  0.00  0.00    -0.180 SA
HETATM   19  H           1     -22.113  -4.428 -10.643  0.00  0.00     0.101 HD
ENDBRANCH  17  18
ENDBRANCH  16  17
BRANCH  16  20
HETATM   20  N           1     -22.434  -3.522  -8.148  0.00  0.00    -0.066 N 
HETATM   21  H           1     -22.879  -3.517  -7.202  0.00  0.00     0.275 HD
HETATM   22  H           1     -21.890  -2.639  -8.281  0.00  0.00     0.275 HD
HETATM   23  H           1     -23.176  -3.587  -8.881  0.00  0.00     0.275 HD
ENDBRANCH  16  20
ENDBRANCH   2  16
TORSDOF 9
ENDMDL
MODEL 7
REMARK VINA RESULT:      -4.7     19.422     21.603
REMARK  9 active torsions:
REMARK  status: ('A' for Active; 'I' for Inactive)
REMARK    1  A    between atoms: N_2  and  C_20 
REMARK       I    between atoms: N_2  and  C_3 
REMARK    2  A    between atoms: C_3  and  C_4 
REMARK    3  A    between atoms: C_4  and  C_5 
REMARK    4  A    between atoms: C_4  and  N_6 
REMARK    5  A    between atoms: C_5  and  S_9 
REMARK       I    between atoms: C_13  and  N_23 
REMARK    6  A    between atoms: C_13  and  C_22 
REMARK    7  A    between atoms: C_19  and  C_20 
REMARK    8  A    between atoms: C_20  and  C_21 
REMARK    9  A    between atoms: C_21  and  C_22 
ROOT
HETATM    1  N           1     -12.622   7.195 -19.887  0.00  0.00    -0.345 N 
HETATM    2  C           1     -12.066   8.210 -20.619  0.00  0.00     0.249 C 
HETATM    3  O           1     -11.671   7.999 -21.741  0.00  0.00    -0.271 OA
HETATM    4  H           1     -12.952   7.372 -18.947  0.00  0.00     0.163 HD
ENDROOT
BRANCH   1   5
HETATM    5  C           1     -12.738   5.868 -20.459  0.00  0.00     0.186 C 
BRANCH   5   6
HETATM    6  C           1     -14.194   5.480 -20.534  0.00  0.00     0.196 C 
HETATM    7  O           1     -14.781   5.466 -21.638  0.00  0.00    -0.646 OA
HETATM    8  O           1     -14.814   5.169 -19.494  0.00  0.00    -0.646 OA
ENDBRANCH   5   6
BRANCH   5   9
HETATM    9  C           1     -11.990   4.871 -19.585  0.00  0.00     0.045 C 
BRANCH   9  10
HETATM   10  C           1     -10.609   4.614 -20.174  0.00  0.00     0.105 C 
BRANCH  10  11
HETATM   11  C           1      -9.609   5.552 -19.543  0.00  0.00     0.215 C 
HETATM   12  O           1      -8.920   6.258 -20.239  0.00  0.00    -0.274 OA
HETATM   13  N           1      -9.484   5.601 -18.181  0.00  0.00    -0.370 N 
HETATM   14  H           1     -10.061   5.009 -17.597  0.00  0.00     0.159 HD
HETATM   15  H           1      -8.813   6.230 -17.757  0.00  0.00     0.159 HD
ENDBRANCH  10  11
ENDBRANCH   9  10
ENDBRANCH   5   9
ENDBRANCH   1   5
BRANCH   2  16
HETATM   16  C           1     -11.945   9.592 -20.023  0.00  0.00     0.283 C 
BRANCH  16  17
HETATM   17  C           1     -12.943   9.742 -18.882  0.00  0.00     0.113 C 
BRANCH  17  18
HETATM   18  S           1     -14.033  11.155 -19.211  0.00  0.00    -0.180 SA
HETATM   19  H           1     -15.180  10.521 -18.911  0.00  0.00     0.101 HD
ENDBRANCH  17  18
ENDBRANCH  16  17
BRANCH  16  20
HETATM   20  N           1     -12.236  10.617 -21.079  0.00  0.00    -0.066 N 
HETATM   21  H           1     -11.407  10.717 -21.707  0.00  0.00     0.275 HD
HETATM   22  H           1     -13.063  10.314 -21.641  0.00  0.00     0.275 HD
HETATM   23  H           1     -12.440  11.536 -20.625  0.00  0.00     0.275 HD
ENDBRANCH  16  20
ENDBRANCH   2  16
TORSDOF 9
ENDMDL
MODEL 8
REMARK VINA RESULT:      -4.6     15.706     16.664
REMARK  9 active torsions:
REMARK  status: ('A' for Active; 'I' for Inactive)
REMARK    1  A    between atoms: N_2  and  C_20 
REMARK       I    between atoms: N_2  and  C_3 
REMARK    2  A    between atoms: C_3  and  C_4 
REMARK    3  A    between atoms: C_4  and  C_5 
REMARK    4  A    between atoms: C_4  and  N_6 
REMARK    5  A    between atoms: C_5  and  S_9 
REMARK       I    between atoms: C_13  and  N_23 
REMARK    6  A    between atoms: C_13  and  C_22 
REMARK    7  A    between atoms: C_19  and  C_20 
REMARK    8  A    between atoms: C_20  and  C_21 
REMARK    9  A    between atoms: C_21  and  C_22 
ROOT
HETATM    1  N           1     -19.952  -8.774  -5.075  0.00  0.00    -0.345 N 
HETATM    2  C           1     -19.849 -10.140  -5.087  0.00  0.00     0.249 C 
HETATM    3  O           1     -20.699 -10.814  -4.555  0.00  0.00    -0.271 OA
HETATM    4  H           1     -19.241  -8.209  -5.520  0.00  0.00     0.163 HD
ENDROOT
BRANCH   1   5
HETATM    5  C           1     -21.081  -8.138  -4.425  0.00  0.00     0.186 C 
BRANCH   5   6
HETATM    6  C           1     -21.626  -7.050  -5.316  0.00  0.00     0.196 C 
HETATM    7  O           1     -22.488  -6.257  -4.878  0.00  0.00    -0.646 OA
HETATM    8  O           1     -21.217  -6.939  -6.492  0.00  0.00    -0.646 OA
ENDBRANCH   5   6
BRANCH   5   9
HETATM    9  C           1     -20.631  -7.534  -3.102  0.00  0.00     0.045 C 
BRANCH   9  10
HETATM   10  C           1     -21.499  -8.075  -1.974  0.00  0.00     0.105 C 
BRANCH  10  11
HETATM   11  C           1     -22.285  -6.943  -1.357  0.00  0.00     0.215 C 
HETATM   12  O           1     -22.918  -7.129  -0.345  0.00  0.00    -0.274 OA
HETATM   13  N           1     -22.280  -5.707  -1.944  0.00  0.00    -0.370 N 
HETATM   14  H           1     -21.749  -5.552  -2.792  0.00  0.00     0.159 HD
HETATM   15  H           1     -22.807  -4.948  -1.531  0.00  0.00     0.159 HD
ENDBRANCH  10  11
ENDBRANCH   9  10
ENDBRANCH   5   9
ENDBRANCH   1   5
BRANCH   2  16
HETATM   16  C           1     -18.674 -10.802  -5.765  0.00  0.00     0.283 C 
BRANCH  16  17
HETATM   17  C           1     -17.585  -9.767  -6.017  0.00  0.00     0.113 C 
BRANCH  17  18
HETATM   18  S           1     -16.080 -10.240  -5.119  0.00  0.00    -0.180 SA
HETATM   19  H           1     -15.314 -10.415  -6.210  0.00  0.00     0.101 HD
ENDBRANCH  17  18
ENDBRANCH  16  17
BRANCH  16  20
HETATM   20  N           1     -19.118 -11.389  -7.072  0.00  0.00    -0.066 N 
HETATM   21  H           1     -19.170 -10.634  -7.794  0.00  0.00     0.275 HD
HETATM   22  H           1     -18.432 -12.115  -7.378  0.00  0.00     0.275 HD
HETATM   23  H           1     -20.060 -11.824  -6.956  0.00  0.00     0.275 HD
ENDBRANCH  16  20
ENDBRANCH   2  16
TORSDOF 9
ENDMDL
MODEL 9
REMARK VINA RESULT:      -4.6     14.999     16.470
REMARK  9 active torsions:
REMARK  status: ('A' for Active; 'I' for Inactive)
REMARK    1  A    between atoms: N_2  and  C_20 
REMARK       I    between atoms: N_2  and  C_3 
REMARK    2  A    between atoms: C_3  and  C_4 
REMARK    3  A    between atoms: C_4  and  C_5 
REMARK    4  A    between atoms: C_4  and  N_6 
REMARK    5  A    between atoms: C_5  and  S_9 
REMARK       I    between atoms: C_13  and  N_23 
REMARK    6  A    between atoms: C_13  and  C_22 
REMARK    7  A    between atoms: C_19  and  C_20 
REMARK    8  A    between atoms: C_20  and  C_21 
REMARK    9  A    between atoms: C_21  and  C_22 
ROOT
HETATM    1  N           1     -20.822  -6.589  -4.890  0.00  0.00    -0.345 N 
HETATM    2  C           1     -21.450  -5.710  -5.732  0.00  0.00     0.249 C 
HETATM    3  O           1     -22.656  -5.634  -5.735  0.00  0.00    -0.271 OA
HETATM    4  H           1     -19.813  -6.653  -4.887  0.00  0.00     0.163 HD
ENDROOT
BRANCH   1   5
HETATM    5  C           1     -21.605  -7.426  -4.002  0.00  0.00     0.186 C 
BRANCH   5   6
HETATM    6  C           1     -21.582  -6.842  -2.611  0.00  0.00     0.196 C 
HETATM    7  O           1     -20.822  -7.325  -1.743  0.00  0.00    -0.646 OA
HETATM    8  O           1     -22.322  -5.876  -2.326  0.00  0.00    -0.646 OA
ENDBRANCH   5   6
BRANCH   5   9
HETATM    9  C           1     -21.013  -8.829  -3.975  0.00  0.00     0.045 C 
BRANCH   9  10
HETATM   10  C           1     -19.744  -8.862  -4.816  0.00  0.00     0.105 C 
BRANCH  10  11
HETATM   11  C           1     -18.583  -9.305  -3.960  0.00  0.00     0.215 C 
HETATM   12  O           1     -17.565  -9.700  -4.478  0.00  0.00    -0.274 OA
HETATM   13  N           1     -18.683  -9.259  -2.595  0.00  0.00    -0.370 N 
HETATM   14  H           1     -19.535  -8.928  -2.161  0.00  0.00     0.159 HD
HETATM   15  H           1     -17.905  -9.556  -2.020  0.00  0.00     0.159 HD
ENDBRANCH  10  11
ENDBRANCH   9  10
ENDBRANCH   5   9
ENDBRANCH   1   5
BRANCH   2  16
HETATM   16  C           1     -20.636  -4.838  -6.656  0.00  0.00     0.283 C 
BRANCH  16  17
HETATM   17  C           1     -21.538  -3.785  -7.287  0.00  0.00     0.113 C 
BRANCH  17  18
HETATM   18  S           1     -21.881  -4.236  -9.012  0.00  0.00    -0.180 SA
HETATM   19  H           1     -22.382  -5.454  -8.742  0.00  0.00     0.101 HD
ENDBRANCH  17  18
ENDBRANCH  16  17
BRANCH  16  20
HETATM   20  N           1     -20.027  -5.685  -7.734  0.00  0.00    -0.066 N 
HETATM   21  H           1     -20.785  -6.146  -8.286  0.00  0.00     0.275 HD
HETATM   22  H           1     -19.452  -5.083  -8.366  0.00  0.00     0.275 HD
HETATM   23  H           1     -19.419  -6.416  -7.300  0.00  0.00     0.275 HD
ENDBRANCH  16  20
ENDBRANCH   2  16
TORSDOF 9
ENDMDL
