MODEL 1
REMARK VINA RESULT:      -6.0      0.000      0.000
REMARK  9 active torsions:
REMARK  status: ('A' for Active; 'I' for Inactive)
REMARK    1  A    between atoms: C_1  and  C_12 
REMARK    2  A    between atoms: C_1  and  C_5 
REMARK    3  A    between atoms: C_2  and  Se_10 
REMARK    4  A    between atoms: C_2  and  C_14 
REMARK    5  A    between atoms: N_8  and  C_12 
REMARK    6  A    between atoms: N_11  and  C_20 
REMARK       I    between atoms: N_11  and  C_19 
REMARK    7  A    between atoms: C_12  and  C_19 
REMARK    8  A    between atoms: C_14  and  C_20 
REMARK    9  A    between atoms: C_18  and  C_20 
ROOT
HETATM    1  H           1     -35.304  -0.696 -11.171  0.00  0.00     0.163 HD
HETATM    2  N           1     -35.390  -1.130 -12.081  0.00  0.00    -0.345 N 
HETATM    3  O           1     -34.715  -2.729 -13.487  0.00  0.00    -0.271 OA
HETATM    4  C           1     -34.611  -2.211 -12.401  0.00  0.00     0.249 C 
ENDROOT
BRANCH   4   5
HETATM    5  C           1     -33.625  -2.754 -11.396  0.00  0.00     0.275 C 
BRANCH   5   6
HETATM    6  C           1     -34.230  -3.962 -10.692  0.00  0.00     0.046 C 
BRANCH   6   7
HETATM    7  C           1     -33.838  -5.232 -11.435  0.00  0.00    -0.020 C 
HETATM    8  C           1     -32.362  -5.170 -11.805  0.00  0.00     0.009 C 
HETATM    9  C           1     -34.086  -6.440 -10.541  0.00  0.00     0.009 C 
ENDBRANCH   6   7
ENDBRANCH   5   6
BRANCH   5  10
HETATM   10  N           1     -33.308  -1.693 -10.384  0.00  0.00    -0.066 N 
HETATM   11  H           1     -34.008  -0.921 -10.458  0.00  0.00     0.275 HD
HETATM   12  H           1     -32.351  -1.314 -10.566  0.00  0.00     0.275 HD
HETATM   13  H           1     -33.344  -2.105  -9.425  0.00  0.00     0.275 HD
ENDBRANCH   5  10
ENDBRANCH   4   5
BRANCH   2  14
HETATM   14  C           1     -36.338  -0.609 -13.046  0.00  0.00     0.185 C 
BRANCH  14  15
HETATM   15  C           1     -37.550  -0.049 -12.315  0.00  0.00     0.036 C 
BRANCH  15  16
HETATM   16  C           1     -37.572  -0.579 -10.887  0.00  0.00     0.003 C 
BRANCH  16  17
HETATM   17 Se           1     -37.321   0.899  -9.641  0.00  0.00     0.000 Se
HETATM   18  C           1     -37.567  -0.191  -8.044  0.00  0.00     0.000 C 
ENDBRANCH  16  17
ENDBRANCH  15  16
ENDBRANCH  14  15
BRANCH  14  19
HETATM   19  C           1     -35.684   0.489 -13.851  0.00  0.00     0.196 C 
HETATM   20  O           1     -36.113   0.768 -14.991  0.00  0.00    -0.646 OA
HETATM   21  O           1     -34.714   1.117 -13.376  0.00  0.00    -0.646 OA
ENDBRANCH  14  19
ENDBRANCH   2  14
TORSDOF 9
ENDMDL
MODEL 2
REMARK VINA RESULT:      -5.8      2.669      3.563
REMARK  9 active torsions:
REMARK  status: ('A' for Active; 'I' for Inactive)
REMARK    1  A    between atoms: C_1  and  C_12 
REMARK    2  A    between atoms: C_1  and  C_5 
REMARK    3  A    between atoms: C_2  and  Se_10 
REMARK    4  A    between atoms: C_2  and  C_14 
REMARK    5  A    between atoms: N_8  and  C_12 
REMARK    6  A    between atoms: N_11  and  C_20 
REMARK       I    between atoms: N_11  and  C_19 
REMARK    7  A    between atoms: C_12  and  C_19 
REMARK    8  A    between atoms: C_14  and  C_20 
REMARK    9  A    between atoms: C_18  and  C_20 
ROOT
HETATM    1  H           1     -35.948  -2.486 -12.800  0.00  0.00     0.163 HD
HETATM    2  N           1     -35.388  -1.874 -12.220  0.00  0.00    -0.345 N 
HETATM    3  O           1     -33.605  -1.629 -10.898  0.00  0.00    -0.271 OA
HETATM    4  C           1     -34.274  -2.360 -11.589  0.00  0.00     0.249 C 
ENDROOT
BRANCH   4   5
HETATM    5  C           1     -33.881  -3.807 -11.759  0.00  0.00     0.275 C 
BRANCH   5   6
HETATM    6  C           1     -34.290  -4.593 -10.519  0.00  0.00     0.046 C 
BRANCH   6   7
HETATM    7  C           1     -34.285  -6.082 -10.838  0.00  0.00    -0.020 C 
HETATM    8  C           1     -34.878  -6.854  -9.667  0.00  0.00     0.009 C 
HETATM    9  C           1     -35.119  -6.336 -12.087  0.00  0.00     0.009 C 
ENDBRANCH   6   7
ENDBRANCH   5   6
BRANCH   5  10
HETATM   10  N           1     -32.396  -3.902 -11.944  0.00  0.00    -0.066 N 
HETATM   11  H           1     -32.161  -3.769 -12.954  0.00  0.00     0.275 HD
HETATM   12  H           1     -32.067  -4.843 -11.632  0.00  0.00     0.275 HD
HETATM   13  H           1     -31.926  -3.161 -11.377  0.00  0.00     0.275 HD
ENDBRANCH   5  10
ENDBRANCH   4   5
BRANCH   2  14
HETATM   14  C           1     -35.766  -0.484 -12.057  0.00  0.00     0.185 C 
BRANCH  14  15
HETATM   15  C           1     -36.405   0.022 -13.343  0.00  0.00     0.036 C 
BRANCH  15  16
HETATM   16  C           1     -35.324   0.253 -14.391  0.00  0.00     0.003 C 
BRANCH  16  17
HETATM   17 Se           1     -35.813  -0.661 -16.042  0.00  0.00     0.000 Se
HETATM   18  C           1     -37.721  -0.308 -15.865  0.00  0.00     0.000 C 
ENDBRANCH  16  17
ENDBRANCH  15  16
ENDBRANCH  14  15
BRANCH  14  19
HETATM   19  C           1     -36.752  -0.360 -10.922  0.00  0.00     0.196 C 
HETATM   20  O           1     -37.815  -1.017 -10.944  0.00  0.00    -0.646 OA
HETATM   21  O           1     -36.506   0.399  -9.960  0.00  0.00    -0.646 OA
ENDBRANCH  14  19
ENDBRANCH   2  14
TORSDOF 9
ENDMDL
MODEL 3
REMARK VINA RESULT:      -5.4     14.297     16.453
REMARK  9 active torsions:
REMARK  status: ('A' for Active; 'I' for Inactive)
REMARK    1  A    between atoms: C_1  and  C_12 
REMARK    2  A    between atoms: C_1  and  C_5 
REMARK    3  A    between atoms: C_2  and  Se_10 
REMARK    4  A    between atoms: C_2  and  C_14 
REMARK    5  A    between atoms: N_8  and  C_12 
REMARK    6  A    between atoms: N_11  and  C_20 
REMARK       I    between atoms: N_11  and  C_19 
REMARK    7  A    between atoms: C_12  and  C_19 
REMARK    8  A    between atoms: C_14  and  C_20 
REMARK    9  A    between atoms: C_18  and  C_20 
ROOT
HETATM    1  H           1     -20.709  -4.434  -4.635  0.00  0.00     0.163 HD
HETATM    2  N           1     -21.053  -5.283  -5.065  0.00  0.00    -0.345 N 
HETATM    3  O           1     -21.790  -7.374  -4.800  0.00  0.00    -0.271 OA
HETATM    4  C           1     -21.379  -6.362  -4.286  0.00  0.00     0.249 C 
ENDROOT
BRANCH   4   5
HETATM    5  C           1     -21.224  -6.284  -2.787  0.00  0.00     0.275 C 
BRANCH   5   6
HETATM    6  C           1     -20.744  -7.629  -2.256  0.00  0.00     0.046 C 
BRANCH   6   7
HETATM    7  C           1     -21.808  -8.225  -1.345  0.00  0.00    -0.020 C 
HETATM    8  C           1     -22.149  -9.633  -1.815  0.00  0.00     0.009 C 
HETATM    9  C           1     -21.281  -8.281   0.083  0.00  0.00     0.009 C 
ENDBRANCH   6   7
ENDBRANCH   5   6
BRANCH   5  10
HETATM   10  N           1     -22.546  -5.945  -2.166  0.00  0.00    -0.066 N 
HETATM   11  H           1     -23.094  -5.340  -2.820  0.00  0.00     0.275 HD
HETATM   12  H           1     -22.388  -5.435  -1.269  0.00  0.00     0.275 HD
HETATM   13  H           1     -23.079  -6.825  -1.979  0.00  0.00     0.275 HD
ENDBRANCH   5  10
ENDBRANCH   4   5
BRANCH   2  14
HETATM   14  C           1     -21.201  -5.357  -6.505  0.00  0.00     0.185 C 
BRANCH  14  15
HETATM   15  C           1     -21.737  -4.032  -7.029  0.00  0.00     0.036 C 
BRANCH  15  16
HETATM   16  C           1     -22.854  -4.295  -8.030  0.00  0.00     0.003 C 
BRANCH  16  17
HETATM   17 Se           1     -22.193  -3.993  -9.838  0.00  0.00     0.000 Se
HETATM   18  C           1     -23.693  -4.880 -10.711  0.00  0.00     0.000 C 
ENDBRANCH  16  17
ENDBRANCH  15  16
ENDBRANCH  14  15
BRANCH  14  19
HETATM   19  C           1     -19.859  -5.642  -7.135  0.00  0.00     0.196 C 
HETATM   20  O           1     -19.411  -6.809  -7.148  0.00  0.00    -0.646 OA
HETATM   21  O           1     -19.198  -4.711  -7.642  0.00  0.00    -0.646 OA
ENDBRANCH  14  19
ENDBRANCH   2  14
TORSDOF 9
ENDMDL
MODEL 4
REMARK VINA RESULT:      -5.4      3.115      5.937
REMARK  9 active torsions:
REMARK  status: ('A' for Active; 'I' for Inactive)
REMARK    1  A    between atoms: C_1  and  C_12 
REMARK    2  A    between atoms: C_1  and  C_5 
REMARK    3  A    between atoms: C_2  and  Se_10 
REMARK    4  A    between atoms: C_2  and  C_14 
REMARK    5  A    between atoms: N_8  and  C_12 
REMARK    6  A    between atoms: N_11  and  C_20 
REMARK       I    between atoms: N_11  and  C_19 
REMARK    7  A    between atoms: C_12  and  C_19 
REMARK    8  A    between atoms: C_14  and  C_20 
REMARK    9  A    between atoms: C_18  and  C_20 
ROOT
HETATM    1  H           1     -36.023  -3.041 -12.369  0.00  0.00     0.163 HD
HETATM    2  N           1     -35.251  -2.872 -11.737  0.00  0.00    -0.345 N 
HETATM    3  O           1     -34.151  -1.427 -10.438  0.00  0.00    -0.271 OA
HETATM    4  C           1     -35.072  -1.628 -11.194  0.00  0.00     0.249 C 
ENDROOT
BRANCH   4   5
HETATM    5  C           1     -36.025  -0.510 -11.537  0.00  0.00     0.275 C 
BRANCH   5   6
HETATM    6  C           1     -35.375   0.415 -12.559  0.00  0.00     0.046 C 
BRANCH   6   7
HETATM    7  C           1     -35.801   0.003 -13.961  0.00  0.00    -0.020 C 
HETATM    8  C           1     -37.320  -0.091 -14.024  0.00  0.00     0.009 C 
HETATM    9  C           1     -35.316   1.041 -14.965  0.00  0.00     0.009 C 
ENDBRANCH   6   7
ENDBRANCH   5   6
BRANCH   5  10
HETATM   10  N           1     -36.351   0.267 -10.296  0.00  0.00    -0.066 N 
HETATM   11  H           1     -36.481  -0.393  -9.496  0.00  0.00     0.275 HD
HETATM   12  H           1     -37.231   0.809 -10.447  0.00  0.00     0.275 HD
HETATM   13  H           1     -35.568   0.925 -10.081  0.00  0.00     0.275 HD
ENDBRANCH   5  10
ENDBRANCH   4   5
BRANCH   2  14
HETATM   14  C           1     -34.336  -3.947 -11.407  0.00  0.00     0.185 C 
BRANCH  14  15
HETATM   15  C           1     -35.103  -5.259 -11.326  0.00  0.00     0.036 C 
BRANCH  15  16
HETATM   16  C           1     -34.150  -6.382 -10.935  0.00  0.00     0.003 C 
BRANCH  16  17
HETATM   17 Se           1     -34.997  -7.519  -9.598  0.00  0.00     0.000 Se
HETATM   18  C           1     -33.793  -9.025  -9.879  0.00  0.00     0.000 C 
ENDBRANCH  16  17
ENDBRANCH  15  16
ENDBRANCH  14  15
BRANCH  14  19
HETATM   19  C           1     -33.274  -4.049 -12.475  0.00  0.00     0.196 C 
HETATM   20  O           1     -33.584  -3.917 -13.678  0.00  0.00    -0.646 OA
HETATM   21  O           1     -32.086  -4.265 -12.155  0.00  0.00    -0.646 OA
ENDBRANCH  14  19
ENDBRANCH   2  14
TORSDOF 9
ENDMDL
MODEL 5
REMARK VINA RESULT:      -5.1      3.134      4.477
REMARK  9 active torsions:
REMARK  status: ('A' for Active; 'I' for Inactive)
REMARK    1  A    between atoms: C_1  and  C_12 
REMARK    2  A    between atoms: C_1  and  C_5 
REMARK    3  A    between atoms: C_2  and  Se_10 
REMARK    4  A    between atoms: C_2  and  C_14 
REMARK    5  A    between atoms: N_8  and  C_12 
REMARK    6  A    between atoms: N_11  and  C_20 
REMARK       I    between atoms: N_11  and  C_19 
REMARK    7  A    between atoms: C_12  and  C_19 
REMARK    8  A    between atoms: C_14  and  C_20 
REMARK    9  A    between atoms: C_18  and  C_20 
ROOT
HETATM    1  H           1     -35.396  -2.284 -14.150  0.00  0.00     0.163 HD
HETATM    2  N           1     -35.344  -1.274 -14.126  0.00  0.00    -0.345 N 
HETATM    3  O           1     -34.884   0.570 -12.953  0.00  0.00    -0.271 OA
HETATM    4  C           1     -34.946  -0.636 -12.981  0.00  0.00     0.249 C 
ENDROOT
BRANCH   4   5
HETATM    5  C           1     -34.585  -1.439 -11.756  0.00  0.00     0.275 C 
BRANCH   5   6
HETATM    6  C           1     -34.730  -2.924 -12.061  0.00  0.00     0.046 C 
BRANCH   6   7
HETATM    7  C           1     -33.784  -3.721 -11.173  0.00  0.00    -0.020 C 
HETATM    8  C           1     -34.492  -4.970 -10.667  0.00  0.00     0.009 C 
HETATM    9  C           1     -32.554  -4.125 -11.976  0.00  0.00     0.009 C 
ENDBRANCH   6   7
ENDBRANCH   5   6
BRANCH   5  10
HETATM   10  N           1     -35.501  -1.069 -10.628  0.00  0.00    -0.066 N 
HETATM   11  H           1     -36.395  -1.604 -10.715  0.00  0.00     0.275 HD
HETATM   12  H           1     -35.704  -0.044 -10.667  0.00  0.00     0.275 HD
HETATM   13  H           1     -35.044  -1.300  -9.717  0.00  0.00     0.275 HD
ENDBRANCH   5  10
ENDBRANCH   4   5
BRANCH   2  14
HETATM   14  C           1     -35.691  -0.502 -15.303  0.00  0.00     0.185 C 
BRANCH  14  15
HETATM   15  C           1     -35.351  -1.303 -16.553  0.00  0.00     0.036 C 
BRANCH  15  16
HETATM   16  C           1     -34.867  -2.690 -16.151  0.00  0.00     0.003 C 
BRANCH  16  17
HETATM   17 Se           1     -33.399  -3.230 -17.315  0.00  0.00     0.000 Se
HETATM   18  C           1     -32.773  -4.652 -16.138  0.00  0.00     0.000 C 
ENDBRANCH  16  17
ENDBRANCH  15  16
ENDBRANCH  14  15
BRANCH  14  19
HETATM   19  C           1     -37.169  -0.198 -15.287  0.00  0.00     0.196 C 
HETATM   20  O           1     -37.613   0.778 -15.929  0.00  0.00    -0.646 OA
HETATM   21  O           1     -37.948  -0.922 -14.631  0.00  0.00    -0.646 OA
ENDBRANCH  14  19
ENDBRANCH   2  14
TORSDOF 9
ENDMDL
MODEL 6
REMARK VINA RESULT:      -5.1     14.110     16.240
REMARK  9 active torsions:
REMARK  status: ('A' for Active; 'I' for Inactive)
REMARK    1  A    between atoms: C_1  and  C_12 
REMARK    2  A    between atoms: C_1  and  C_5 
REMARK    3  A    between atoms: C_2  and  Se_10 
REMARK    4  A    between atoms: C_2  and  C_14 
REMARK    5  A    between atoms: N_8  and  C_12 
REMARK    6  A    between atoms: N_11  and  C_20 
REMARK       I    between atoms: N_11  and  C_19 
REMARK    7  A    between atoms: C_12  and  C_19 
REMARK    8  A    between atoms: C_14  and  C_20 
REMARK    9  A    between atoms: C_18  and  C_20 
ROOT
HETATM    1  H           1     -22.952  -6.296  -6.116  0.00  0.00     0.163 HD
HETATM    2  N           1     -21.976  -6.032  -6.110  0.00  0.00    -0.345 N 
HETATM    3  O           1     -20.322  -4.878  -7.070  0.00  0.00    -0.271 OA
HETATM    4  C           1     -21.488  -5.193  -7.077  0.00  0.00     0.249 C 
ENDROOT
BRANCH   4   5
HETATM    5  C           1     -22.407  -4.661  -8.149  0.00  0.00     0.275 C 
BRANCH   5   6
HETATM    6  C           1     -21.714  -3.529  -8.896  0.00  0.00     0.046 C 
BRANCH   6   7
HETATM    7  C           1     -22.022  -3.638 -10.383  0.00  0.00    -0.020 C 
HETATM    8  C           1     -20.735  -3.907 -11.150  0.00  0.00     0.009 C 
HETATM    9  C           1     -23.000  -4.782 -10.616  0.00  0.00     0.009 C 
ENDBRANCH   6   7
ENDBRANCH   5   6
BRANCH   5  10
HETATM   10  N           1     -23.666  -4.147  -7.516  0.00  0.00    -0.066 N 
HETATM   11  H           1     -23.423  -3.532  -6.706  0.00  0.00     0.275 HD
HETATM   12  H           1     -24.241  -4.952  -7.182  0.00  0.00     0.275 HD
HETATM   13  H           1     -24.209  -3.596  -8.219  0.00  0.00     0.275 HD
ENDBRANCH   5  10
ENDBRANCH   4   5
BRANCH   2  14
HETATM   14  C           1     -21.092  -6.544  -5.081  0.00  0.00     0.185 C 
BRANCH  14  15
HETATM   15  C           1     -21.857  -6.663  -3.770  0.00  0.00     0.036 C 
BRANCH  15  16
HETATM   16  C           1     -20.894  -7.036  -2.651  0.00  0.00     0.003 C 
BRANCH  16  17
HETATM   17 Se           1     -21.596  -8.568  -1.672  0.00  0.00     0.000 Se
HETATM   18  C           1     -22.502  -7.496  -0.320  0.00  0.00     0.000 C 
ENDBRANCH  16  17
ENDBRANCH  15  16
ENDBRANCH  14  15
BRANCH  14  19
HETATM   19  C           1     -20.577  -7.902  -5.489  0.00  0.00     0.196 C 
HETATM   20  O           1     -21.372  -8.856  -5.629  0.00  0.00    -0.646 OA
HETATM   21  O           1     -19.355  -8.073  -5.687  0.00  0.00    -0.646 OA
ENDBRANCH  14  19
ENDBRANCH   2  14
TORSDOF 9
ENDMDL
MODEL 7
REMARK VINA RESULT:      -5.1     14.699     17.340
REMARK  9 active torsions:
REMARK  status: ('A' for Active; 'I' for Inactive)
REMARK    1  A    between atoms: C_1  and  C_12 
REMARK    2  A    between atoms: C_1  and  C_5 
REMARK    3  A    between atoms: C_2  and  Se_10 
REMARK    4  A    between atoms: C_2  and  C_14 
REMARK    5  A    between atoms: N_8  and  C_12 
REMARK    6  A    between atoms: N_11  and  C_20 
REMARK       I    between atoms: N_11  and  C_19 
REMARK    7  A    between atoms: C_12  and  C_19 
REMARK    8  A    between atoms: C_14  and  C_20 
REMARK    9  A    between atoms: C_18  and  C_20 
ROOT
HETATM    1  H           1     -19.929  -6.456  -4.772  0.00  0.00     0.163 HD
HETATM    2  N           1     -20.937  -6.533  -4.759  0.00  0.00    -0.345 N 
HETATM    3  O           1     -22.899  -5.841  -5.573  0.00  0.00    -0.271 OA
HETATM    4  C           1     -21.694  -5.749  -5.589  0.00  0.00     0.249 C 
ENDROOT
BRANCH   4   5
HETATM    5  C           1     -21.024  -4.772  -6.522  0.00  0.00     0.275 C 
BRANCH   5   6
HETATM    6  C           1     -21.238  -5.218  -7.963  0.00  0.00     0.046 C 
BRANCH   6   7
HETATM    7  C           1     -21.633  -4.018  -8.813  0.00  0.00    -0.020 C 
HETATM    8  C           1     -21.041  -4.166 -10.209  0.00  0.00     0.009 C 
HETATM    9  C           1     -23.151  -3.943  -8.912  0.00  0.00     0.009 C 
ENDBRANCH   6   7
ENDBRANCH   5   6
BRANCH   5  10
HETATM   10  N           1     -19.555  -4.726  -6.227  0.00  0.00    -0.066 N 
HETATM   11  H           1     -19.314  -3.803  -5.800  0.00  0.00     0.275 HD
HETATM   12  H           1     -19.018  -4.850  -7.114  0.00  0.00     0.275 HD
HETATM   13  H           1     -19.310  -5.492  -5.559  0.00  0.00     0.275 HD
ENDBRANCH   5  10
ENDBRANCH   4   5
BRANCH   2  14
HETATM   14  C           1     -21.581  -7.472  -3.862  0.00  0.00     0.185 C 
BRANCH  14  15
HETATM   15  C           1     -20.810  -8.785  -3.863  0.00  0.00     0.036 C 
BRANCH  15  16
HETATM   16  C           1     -19.623  -8.676  -4.811  0.00  0.00     0.003 C 
BRANCH  16  17
HETATM   17 Se           1     -19.036 -10.461  -5.328  0.00  0.00     0.000 Se
HETATM   18  C           1     -17.247  -9.898  -5.856  0.00  0.00     0.000 C 
ENDBRANCH  16  17
ENDBRANCH  15  16
ENDBRANCH  14  15
BRANCH  14  19
HETATM   19  C           1     -21.601  -6.901  -2.465  0.00  0.00     0.196 C 
HETATM   20  O           1     -20.906  -7.423  -1.566  0.00  0.00    -0.646 OA
HETATM   21  O           1     -22.312  -5.906  -2.208  0.00  0.00    -0.646 OA
ENDBRANCH  14  19
ENDBRANCH   2  14
TORSDOF 9
ENDMDL
MODEL 8
REMARK VINA RESULT:      -5.1      3.034      6.013
REMARK  9 active torsions:
REMARK  status: ('A' for Active; 'I' for Inactive)
REMARK    1  A    between atoms: C_1  and  C_12 
REMARK    2  A    between atoms: C_1  and  C_5 
REMARK    3  A    between atoms: C_2  and  Se_10 
REMARK    4  A    between atoms: C_2  and  C_14 
REMARK    5  A    between atoms: N_8  and  C_12 
REMARK    6  A    between atoms: N_11  and  C_20 
REMARK       I    between atoms: N_11  and  C_19 
REMARK    7  A    between atoms: C_12  and  C_19 
REMARK    8  A    between atoms: C_14  and  C_20 
REMARK    9  A    between atoms: C_18  and  C_20 
ROOT
HETATM    1  H           1     -36.228  -2.639 -12.297  0.00  0.00     0.163 HD
HETATM    2  N           1     -35.511  -2.600 -11.585  0.00  0.00    -0.345 N 
HETATM    3  O           1     -34.551  -1.450  -9.928  0.00  0.00    -0.271 OA
HETATM    4  C           1     -35.407  -1.497 -10.779  0.00  0.00     0.249 C 
ENDROOT
BRANCH   4   5
HETATM    5  C           1     -36.362  -0.342 -10.954  0.00  0.00     0.275 C 
BRANCH   5   6
HETATM    6  C           1     -37.508  -0.476  -9.959  0.00  0.00     0.046 C 
BRANCH   6   7
HETATM    7  C           1     -37.232   0.398  -8.744  0.00  0.00    -0.020 C 
HETATM    8  C           1     -37.955   1.729  -8.898  0.00  0.00     0.009 C 
HETATM    9  C           1     -37.729  -0.307  -7.488  0.00  0.00     0.009 C 
ENDBRANCH   6   7
ENDBRANCH   5   6
BRANCH   5  10
HETATM   10  N           1     -36.908  -0.352 -12.350  0.00  0.00    -0.066 N 
HETATM   11  H           1     -36.202  -0.773 -12.997  0.00  0.00     0.275 HD
HETATM   12  H           1     -37.115   0.627 -12.650  0.00  0.00     0.275 HD
HETATM   13  H           1     -37.785  -0.919 -12.377  0.00  0.00     0.275 HD
ENDBRANCH   5  10
ENDBRANCH   4   5
BRANCH   2  14
HETATM   14  C           1     -34.593  -3.709 -11.417  0.00  0.00     0.185 C 
BRANCH  14  15
HETATM   15  C           1     -35.383  -4.999 -11.244  0.00  0.00     0.036 C 
BRANCH  15  16
HETATM   16  C           1     -34.420  -6.168 -11.083  0.00  0.00     0.003 C 
BRANCH  16  17
HETATM   17 Se           1     -34.987  -7.275  -9.582  0.00  0.00     0.000 Se
HETATM   18  C           1     -33.820  -8.770 -10.033  0.00  0.00     0.000 C 
ENDBRANCH  16  17
ENDBRANCH  15  16
ENDBRANCH  14  15
BRANCH  14  19
HETATM   19  C           1     -33.709  -3.819 -12.635  0.00  0.00     0.196 C 
HETATM   20  O           1     -32.498  -4.100 -12.505  0.00  0.00    -0.646 OA
HETATM   21  O           1     -34.188  -3.629 -13.773  0.00  0.00    -0.646 OA
ENDBRANCH  14  19
ENDBRANCH   2  14
TORSDOF 9
ENDMDL
MODEL 9
REMARK VINA RESULT:      -5.1     16.862     18.314
REMARK  9 active torsions:
REMARK  status: ('A' for Active; 'I' for Inactive)
REMARK    1  A    between atoms: C_1  and  C_12 
REMARK    2  A    between atoms: C_1  and  C_5 
REMARK    3  A    between atoms: C_2  and  Se_10 
REMARK    4  A    between atoms: C_2  and  C_14 
REMARK    5  A    between atoms: N_8  and  C_12 
REMARK    6  A    between atoms: N_11  and  C_20 
REMARK       I    between atoms: N_11  and  C_19 
REMARK    7  A    between atoms: C_12  and  C_19 
REMARK    8  A    between atoms: C_14  and  C_20 
REMARK    9  A    between atoms: C_18  and  C_20 
ROOT
HETATM    1  H           1     -20.720  -8.063  -2.853  0.00  0.00     0.163 HD
HETATM    2  N           1     -21.058  -8.831  -3.419  0.00  0.00    -0.345 N 
HETATM    3  O           1     -22.211 -10.741  -3.522  0.00  0.00    -0.271 OA
HETATM    4  C           1     -21.808  -9.824  -2.847  0.00  0.00     0.249 C 
ENDROOT
BRANCH   4   5
HETATM    5  C           1     -22.131  -9.772  -1.374  0.00  0.00     0.275 C 
BRANCH   5   6
HETATM    6  C           1     -21.180  -8.806  -0.679  0.00  0.00     0.046 C 
BRANCH   6   7
HETATM    7  C           1     -21.978  -7.668  -0.056  0.00  0.00    -0.020 C 
HETATM    8  C           1     -22.342  -6.653  -1.131  0.00  0.00     0.009 C 
HETATM    9  C           1     -23.251  -8.224   0.569  0.00  0.00     0.009 C 
ENDBRANCH   6   7
ENDBRANCH   5   6
BRANCH   5  10
HETATM   10  N           1     -21.975 -11.140  -0.780  0.00  0.00    -0.066 N 
HETATM   11  H           1     -22.733 -11.305  -0.079  0.00  0.00     0.275 HD
HETATM   12  H           1     -21.045 -11.212  -0.311  0.00  0.00     0.275 HD
HETATM   13  H           1     -22.040 -11.858  -1.537  0.00  0.00     0.275 HD
ENDBRANCH   5  10
ENDBRANCH   4   5
BRANCH   2  14
HETATM   14  C           1     -20.747  -8.881  -4.834  0.00  0.00     0.185 C 
BRANCH  14  15
HETATM   15  C           1     -21.307  -7.641  -5.520  0.00  0.00     0.036 C 
BRANCH  15  16
HETATM   16  C           1     -21.102  -6.428  -4.622  0.00  0.00     0.003 C 
BRANCH  16  17
HETATM   17 Se           1     -20.334  -4.971  -5.664  0.00  0.00     0.000 Se
HETATM   18  C           1     -20.734  -5.777  -7.392  0.00  0.00     0.000 C 
ENDBRANCH  16  17
ENDBRANCH  15  16
ENDBRANCH  14  15
BRANCH  14  19
HETATM   19  C           1     -19.250  -8.926  -5.019  0.00  0.00     0.196 C 
HETATM   20  O           1     -18.758  -8.820  -6.163  0.00  0.00    -0.646 OA
HETATM   21  O           1     -18.503  -9.070  -4.028  0.00  0.00    -0.646 OA
ENDBRANCH  14  19
ENDBRANCH   2  14
TORSDOF 9
ENDMDL
