MODEL 1
REMARK VINA RESULT:      -5.7      0.000      0.000
REMARK  6 active torsions:
REMARK  status: ('A' for Active; 'I' for Inactive)
REMARK    1  A    between atoms: C_1  and  C_2 
REMARK    2  A    between atoms: C_1  and  C_19 
REMARK    3  A    between atoms: C_1  and  N_15 
REMARK       I    between atoms: C_2  and  N_3 
REMARK    4  A    between atoms: C_4  and  C_6 
REMARK    5  A    between atoms: Se_17  and  C_18 
REMARK    6  A    between atoms: C_18  and  C_19 
ROOT
HETATM    1  C           1     -27.045  -6.672 -16.313  0.00  0.00     0.251 C 
HETATM    2  N           1     -28.174  -6.088 -16.821  0.00  0.00    -0.336 N 
HETATM    3  C           1     -29.551  -6.273 -16.371  0.00  0.00     0.188 C 
HETATM    4  C           1     -30.143  -4.876 -16.436  0.00  0.00     0.038 C 
HETATM    5  C           1     -29.300  -4.135 -17.468  0.00  0.00     0.022 C 
HETATM    6  C           1     -28.265  -5.144 -17.932  0.00  0.00     0.127 C 
HETATM    7  O           1     -27.127  -7.439 -15.385  0.00  0.00    -0.271 OA
ENDROOT
BRANCH   1   8
HETATM    8  C           1     -25.697  -6.357 -16.915  0.00  0.00     0.275 C 
BRANCH   8   9
HETATM    9  C           1     -25.690  -6.756 -18.384  0.00  0.00     0.042 C 
BRANCH   9  10
HETATM   10  C           1     -24.270  -7.104 -18.810  0.00  0.00     0.003 C 
BRANCH  10  11
HETATM   11 Se           1     -24.292  -7.833 -20.617  0.00  0.00     0.000 Se
HETATM   12  C           1     -26.227  -7.711 -20.817  0.00  0.00     0.000 C 
ENDBRANCH  10  11
ENDBRANCH   9  10
ENDBRANCH   8   9
BRANCH   8  13
HETATM   13  N           1     -24.633  -7.122 -16.185  0.00  0.00    -0.067 N 
HETATM   14  H           1     -23.911  -7.451 -16.864  0.00  0.00     0.275 HD
HETATM   15  H           1     -24.185  -6.501 -15.473  0.00  0.00     0.275 HD
HETATM   16  H           1     -25.063  -7.946 -15.706  0.00  0.00     0.275 HD
ENDBRANCH   8  13
ENDBRANCH   1   8
BRANCH   3  17
HETATM   17  C           1     -30.294  -7.215 -17.285  0.00  0.00     0.196 C 
HETATM   18  O           1     -31.471  -6.963 -17.621  0.00  0.00    -0.646 OA
HETATM   19  O           1     -29.732  -8.250 -17.706  0.00  0.00    -0.646 OA
ENDBRANCH   3  17
TORSDOF 6
ENDMDL
MODEL 2
REMARK VINA RESULT:      -5.7      2.269      3.324
REMARK  6 active torsions:
REMARK  status: ('A' for Active; 'I' for Inactive)
REMARK    1  A    between atoms: C_1  and  C_2 
REMARK    2  A    between atoms: C_1  and  C_19 
REMARK    3  A    between atoms: C_1  and  N_15 
REMARK       I    between atoms: C_2  and  N_3 
REMARK    4  A    between atoms: C_4  and  C_6 
REMARK    5  A    between atoms: Se_17  and  C_18 
REMARK    6  A    between atoms: C_18  and  C_19 
ROOT
HETATM    1  C           1     -25.678  -6.594 -18.892  0.00  0.00     0.251 C 
HETATM    2  N           1     -26.793  -6.243 -18.179  0.00  0.00    -0.336 N 
HETATM    3  C           1     -26.849  -5.694 -16.828  0.00  0.00     0.188 C 
HETATM    4  C           1     -27.931  -4.632 -16.914  0.00  0.00     0.038 C 
HETATM    5  C           1     -28.815  -5.058 -18.081  0.00  0.00     0.022 C 
HETATM    6  C           1     -28.186  -6.337 -18.607  0.00  0.00     0.127 C 
HETATM    7  O           1     -24.582  -6.459 -18.403  0.00  0.00    -0.271 OA
ENDROOT
BRANCH   1   8
HETATM    8  C           1     -25.818  -7.150 -20.287  0.00  0.00     0.275 C 
BRANCH   8   9
HETATM    9  C           1     -24.495  -7.766 -20.724  0.00  0.00     0.042 C 
BRANCH   9  10
HETATM   10  C           1     -24.317  -7.575 -22.225  0.00  0.00     0.003 C 
BRANCH  10  11
HETATM   11 Se           1     -22.816  -8.653 -22.843  0.00  0.00     0.000 Se
HETATM   12  C           1     -21.905  -8.669 -21.120  0.00  0.00     0.000 C 
ENDBRANCH  10  11
ENDBRANCH   9  10
ENDBRANCH   8   9
BRANCH   8  13
HETATM   13  N           1     -26.190  -6.045 -21.231  0.00  0.00    -0.067 N 
HETATM   14  H           1     -27.059  -5.574 -20.892  0.00  0.00     0.275 HD
HETATM   15  H           1     -25.411  -5.349 -21.276  0.00  0.00     0.275 HD
HETATM   16  H           1     -26.357  -6.442 -22.183  0.00  0.00     0.275 HD
ENDBRANCH   8  13
ENDBRANCH   1   8
BRANCH   3  17
HETATM   17  C           1     -27.222  -6.762 -15.829  0.00  0.00     0.196 C 
HETATM   18  O           1     -28.385  -6.813 -15.374  0.00  0.00    -0.646 OA
HETATM   19  O           1     -26.367  -7.594 -15.456  0.00  0.00    -0.646 OA
ENDBRANCH   3  17
TORSDOF 6
ENDMDL
MODEL 3
REMARK VINA RESULT:      -5.7     10.260     11.937
REMARK  6 active torsions:
REMARK  status: ('A' for Active; 'I' for Inactive)
REMARK    1  A    between atoms: C_1  and  C_2 
REMARK    2  A    between atoms: C_1  and  C_19 
REMARK    3  A    between atoms: C_1  and  N_15 
REMARK       I    between atoms: C_2  and  N_3 
REMARK    4  A    between atoms: C_4  and  C_6 
REMARK    5  A    between atoms: Se_17  and  C_18 
REMARK    6  A    between atoms: C_18  and  C_19 
ROOT
HETATM    1  C           1     -21.391  -4.958  -8.104  0.00  0.00     0.251 C 
HETATM    2  N           1     -22.118  -4.420  -9.132  0.00  0.00    -0.336 N 
HETATM    3  C           1     -21.983  -4.701 -10.559  0.00  0.00     0.188 C 
HETATM    4  C           1     -23.418  -4.762 -11.052  0.00  0.00     0.038 C 
HETATM    5  C           1     -24.217  -3.929 -10.057  0.00  0.00     0.022 C 
HETATM    6  C           1     -23.199  -3.442  -9.040  0.00  0.00     0.127 C 
HETATM    7  O           1     -20.521  -5.762  -8.335  0.00  0.00    -0.271 OA
ENDROOT
BRANCH   1   8
HETATM    8  C           1     -21.676  -4.544  -6.681  0.00  0.00     0.275 C 
BRANCH   8   9
HETATM    9  C           1     -20.485  -4.895  -5.800  0.00  0.00     0.042 C 
BRANCH   9  10
HETATM   10  C           1     -20.918  -5.894  -4.735  0.00  0.00     0.003 C 
BRANCH  10  11
HETATM   11 Se           1     -20.248  -7.666  -5.195  0.00  0.00     0.000 Se
HETATM   12  C           1     -21.596  -8.623  -4.161  0.00  0.00     0.000 C 
ENDBRANCH  10  11
ENDBRANCH   9  10
ENDBRANCH   8   9
BRANCH   8  13
HETATM   13  N           1     -22.894  -5.265  -6.185  0.00  0.00    -0.067 N 
HETATM   14  H           1     -22.613  -5.982  -5.478  0.00  0.00     0.275 HD
HETATM   15  H           1     -23.549  -4.580  -5.744  0.00  0.00     0.275 HD
HETATM   16  H           1     -23.371  -5.736  -6.987  0.00  0.00     0.275 HD
ENDBRANCH   8  13
ENDBRANCH   1   8
BRANCH   3  17
HETATM   17  C           1     -21.222  -3.598 -11.252  0.00  0.00     0.196 C 
HETATM   18  O           1     -20.086  -3.271 -10.846  0.00  0.00    -0.646 OA
HETATM   19  O           1     -21.728  -3.010 -12.233  0.00  0.00    -0.646 OA
ENDBRANCH   3  17
TORSDOF 6
ENDMDL
MODEL 4
REMARK VINA RESULT:      -5.4     11.583     13.318
REMARK  6 active torsions:
REMARK  status: ('A' for Active; 'I' for Inactive)
REMARK    1  A    between atoms: C_1  and  C_2 
REMARK    2  A    between atoms: C_1  and  C_19 
REMARK    3  A    between atoms: C_1  and  N_15 
REMARK       I    between atoms: C_2  and  N_3 
REMARK    4  A    between atoms: C_4  and  C_6 
REMARK    5  A    between atoms: Se_17  and  C_18 
REMARK    6  A    between atoms: C_18  and  C_19 
ROOT
HETATM    1  C           1     -20.676  -6.183  -6.616  0.00  0.00     0.251 C 
HETATM    2  N           1     -21.132  -6.762  -5.462  0.00  0.00    -0.336 N 
HETATM    3  C           1     -20.487  -7.813  -4.680  0.00  0.00     0.188 C 
HETATM    4  C           1     -20.717  -7.385  -3.241  0.00  0.00     0.038 C 
HETATM    5  C           1     -21.958  -6.501  -3.283  0.00  0.00     0.022 C 
HETATM    6  C           1     -22.368  -6.462  -4.745  0.00  0.00     0.127 C 
HETATM    7  O           1     -19.627  -6.537  -7.096  0.00  0.00    -0.271 OA
ENDROOT
BRANCH   1   8
HETATM    8  C           1     -21.487  -5.103  -7.289  0.00  0.00     0.275 C 
BRANCH   8   9
HETATM    9  C           1     -21.245  -5.146  -8.792  0.00  0.00     0.042 C 
BRANCH   9  10
HETATM   10  C           1     -21.974  -3.986  -9.458  0.00  0.00     0.003 C 
BRANCH  10  11
HETATM   11 Se           1     -23.473  -4.671 -10.497  0.00  0.00     0.000 Se
HETATM   12  C           1     -24.753  -3.370  -9.814  0.00  0.00     0.000 C 
ENDBRANCH  10  11
ENDBRANCH   9  10
ENDBRANCH   8   9
BRANCH   8  13
HETATM   13  N           1     -21.075  -3.763  -6.755  0.00  0.00    -0.067 N 
HETATM   14  H           1     -20.854  -3.122  -7.551  0.00  0.00     0.275 HD
HETATM   15  H           1     -21.856  -3.358  -6.190  0.00  0.00     0.275 HD
HETATM   16  H           1     -20.229  -3.874  -6.151  0.00  0.00     0.275 HD
ENDBRANCH   8  13
ENDBRANCH   1   8
BRANCH   3  17
HETATM   17  C           1     -21.125  -9.153  -4.951  0.00  0.00     0.196 C 
HETATM   18  O           1     -21.692  -9.774  -4.027  0.00  0.00    -0.646 OA
HETATM   19  O           1     -21.085  -9.642  -6.101  0.00  0.00    -0.646 OA
ENDBRANCH   3  17
TORSDOF 6
ENDMDL
MODEL 5
REMARK VINA RESULT:      -5.4      2.272      3.050
REMARK  6 active torsions:
REMARK  status: ('A' for Active; 'I' for Inactive)
REMARK    1  A    between atoms: C_1  and  C_2 
REMARK    2  A    between atoms: C_1  and  C_19 
REMARK    3  A    between atoms: C_1  and  N_15 
REMARK       I    between atoms: C_2  and  N_3 
REMARK    4  A    between atoms: C_4  and  C_6 
REMARK    5  A    between atoms: Se_17  and  C_18 
REMARK    6  A    between atoms: C_18  and  C_19 
ROOT
HETATM    1  C           1     -26.815  -6.689 -19.355  0.00  0.00     0.251 C 
HETATM    2  N           1     -27.379  -6.411 -18.139  0.00  0.00    -0.336 N 
HETATM    3  C           1     -28.783  -6.542 -17.760  0.00  0.00     0.188 C 
HETATM    4  C           1     -28.726  -7.114 -16.354  0.00  0.00     0.038 C 
HETATM    5  C           1     -27.362  -6.700 -15.812  0.00  0.00     0.022 C 
HETATM    6  C           1     -26.708  -5.920 -16.939  0.00  0.00     0.127 C 
HETATM    7  O           1     -27.502  -7.091 -20.262  0.00  0.00    -0.271 OA
ENDROOT
BRANCH   1   8
HETATM    8  C           1     -25.333  -6.491 -19.562  0.00  0.00     0.275 C 
BRANCH   8   9
HETATM    9  C           1     -24.993  -6.698 -21.032  0.00  0.00     0.042 C 
BRANCH   9  10
HETATM   10  C           1     -24.446  -8.105 -21.233  0.00  0.00     0.003 C 
BRANCH  10  11
HETATM   11 Se           1     -23.327  -8.145 -22.828  0.00  0.00     0.000 Se
HETATM   12  C           1     -21.813  -8.998 -21.944  0.00  0.00     0.000 C 
ENDBRANCH  10  11
ENDBRANCH   9  10
ENDBRANCH   8   9
BRANCH   8  13
HETATM   13  N           1     -24.576  -7.481 -18.729  0.00  0.00    -0.067 N 
HETATM   14  H           1     -25.080  -7.639 -17.828  0.00  0.00     0.275 HD
HETATM   15  H           1     -24.499  -8.386 -19.248  0.00  0.00     0.275 HD
HETATM   16  H           1     -23.618  -7.111 -18.532  0.00  0.00     0.275 HD
ENDBRANCH   8  13
ENDBRANCH   1   8
BRANCH   3  17
HETATM   17  C           1     -29.468  -5.197 -17.765  0.00  0.00     0.196 C 
HETATM   18  O           1     -29.344  -4.437 -18.749  0.00  0.00    -0.646 OA
HETATM   19  O           1     -30.160  -4.844 -16.786  0.00  0.00    -0.646 OA
ENDBRANCH   3  17
TORSDOF 6
ENDMDL
MODEL 6
REMARK VINA RESULT:      -5.3     11.853     13.603
REMARK  6 active torsions:
REMARK  status: ('A' for Active; 'I' for Inactive)
REMARK    1  A    between atoms: C_1  and  C_2 
REMARK    2  A    between atoms: C_1  and  C_19 
REMARK    3  A    between atoms: C_1  and  N_15 
REMARK       I    between atoms: C_2  and  N_3 
REMARK    4  A    between atoms: C_4  and  C_6 
REMARK    5  A    between atoms: Se_17  and  C_18 
REMARK    6  A    between atoms: C_18  and  C_19 
ROOT
HETATM    1  C           1     -21.317  -5.940  -6.677  0.00  0.00     0.251 C 
HETATM    2  N           1     -21.741  -5.096  -7.668  0.00  0.00    -0.336 N 
HETATM    3  C           1     -21.377  -5.130  -9.082  0.00  0.00     0.188 C 
HETATM    4  C           1     -22.682  -4.828  -9.797  0.00  0.00     0.038 C 
HETATM    5  C           1     -23.521  -4.056  -8.785  0.00  0.00     0.022 C 
HETATM    6  C           1     -22.656  -3.965  -7.541  0.00  0.00     0.127 C 
HETATM    7  O           1     -20.552  -6.838  -6.935  0.00  0.00    -0.271 OA
ENDROOT
BRANCH   1   8
HETATM    8  C           1     -21.804  -5.748  -5.262  0.00  0.00     0.275 C 
BRANCH   8   9
HETATM    9  C           1     -20.949  -6.576  -4.312  0.00  0.00     0.042 C 
BRANCH   9  10
HETATM   10  C           1     -21.377  -6.305  -2.876  0.00  0.00     0.003 C 
BRANCH  10  11
HETATM   11 Se           1     -21.093  -7.905  -1.800  0.00  0.00     0.000 Se
HETATM   12  C           1     -22.420  -7.432  -0.452  0.00  0.00     0.000 C 
ENDBRANCH  10  11
ENDBRANCH   9  10
ENDBRANCH   8   9
BRANCH   8  13
HETATM   13  N           1     -23.234  -6.189  -5.161  0.00  0.00    -0.067 N 
HETATM   14  H           1     -23.707  -6.057  -6.084  0.00  0.00     0.275 HD
HETATM   15  H           1     -23.268  -7.199  -4.894  0.00  0.00     0.275 HD
HETATM   16  H           1     -23.724  -5.620  -4.434  0.00  0.00     0.275 HD
ENDBRANCH   8  13
ENDBRANCH   1   8
BRANCH   3  17
HETATM   17  C           1     -20.337  -4.083  -9.394  0.00  0.00     0.196 C 
HETATM   18  O           1     -19.487  -3.770  -8.533  0.00  0.00    -0.646 OA
HETATM   19  O           1     -20.326  -3.528 -10.514  0.00  0.00    -0.646 OA
ENDBRANCH   3  17
TORSDOF 6
ENDMDL
MODEL 7
REMARK VINA RESULT:      -5.1     15.569     17.150
REMARK  6 active torsions:
REMARK  status: ('A' for Active; 'I' for Inactive)
REMARK    1  A    between atoms: C_1  and  C_2 
REMARK    2  A    between atoms: C_1  and  C_19 
REMARK    3  A    between atoms: C_1  and  N_15 
REMARK       I    between atoms: C_2  and  N_3 
REMARK    4  A    between atoms: C_4  and  C_6 
REMARK    5  A    between atoms: Se_17  and  C_18 
REMARK    6  A    between atoms: C_18  and  C_19 
ROOT
HETATM    1  C           1     -20.878  -8.145  -2.319  0.00  0.00     0.251 C 
HETATM    2  N           1     -21.384  -8.564  -1.118  0.00  0.00    -0.336 N 
HETATM    3  C           1     -20.765  -9.481  -0.164  0.00  0.00     0.188 C 
HETATM    4  C           1     -21.074  -8.859   1.187  0.00  0.00     0.038 C 
HETATM    5  C           1     -22.324  -8.016   0.960  0.00  0.00     0.022 C 
HETATM    6  C           1     -22.658  -8.192  -0.511  0.00  0.00     0.127 C 
HETATM    7  O           1     -19.801  -8.542  -2.693  0.00  0.00    -0.271 OA
ENDROOT
BRANCH   1   8
HETATM    8  C           1     -21.668  -7.187  -3.177  0.00  0.00     0.275 C 
BRANCH   8   9
HETATM    9  C           1     -21.087  -7.167  -4.584  0.00  0.00     0.042 C 
BRANCH   9  10
HETATM   10  C           1     -21.655  -5.979  -5.351  0.00  0.00     0.003 C 
BRANCH  10  11
HETATM   11 Se           1     -20.195  -4.837  -5.955  0.00  0.00     0.000 Se
HETATM   12  C           1     -21.303  -3.783  -7.163  0.00  0.00     0.000 C 
ENDBRANCH  10  11
ENDBRANCH   9  10
ENDBRANCH   8   9
BRANCH   8  13
HETATM   13  N           1     -21.594  -5.810  -2.586  0.00  0.00    -0.067 N 
HETATM   14  H           1     -20.611  -5.458  -2.640  0.00  0.00     0.275 HD
HETATM   15  H           1     -22.223  -5.168  -3.120  0.00  0.00     0.275 HD
HETATM   16  H           1     -21.897  -5.843  -1.586  0.00  0.00     0.275 HD
ENDBRANCH   8  13
ENDBRANCH   1   8
BRANCH   3  17
HETATM   17  C           1     -21.371 -10.859  -0.273  0.00  0.00     0.196 C 
HETATM   18  O           1     -21.529 -11.385  -1.396  0.00  0.00    -0.646 OA
HETATM   19  O           1     -21.716 -11.474   0.759  0.00  0.00    -0.646 OA
ENDBRANCH   3  17
TORSDOF 6
ENDMDL
MODEL 8
REMARK VINA RESULT:      -5.1     16.023     17.605
REMARK  6 active torsions:
REMARK  status: ('A' for Active; 'I' for Inactive)
REMARK    1  A    between atoms: C_1  and  C_2 
REMARK    2  A    between atoms: C_1  and  C_19 
REMARK    3  A    between atoms: C_1  and  N_15 
REMARK       I    between atoms: C_2  and  N_3 
REMARK    4  A    between atoms: C_4  and  C_6 
REMARK    5  A    between atoms: Se_17  and  C_18 
REMARK    6  A    between atoms: C_18  and  C_19 
ROOT
HETATM    1  C           1     -22.041  -8.222  -0.869  0.00  0.00     0.251 C 
HETATM    2  N           1     -22.353  -9.555  -0.880  0.00  0.00    -0.336 N 
HETATM    3  C           1     -22.515 -10.440   0.269  0.00  0.00     0.188 C 
HETATM    4  C           1     -23.715 -11.295  -0.100  0.00  0.00     0.038 C 
HETATM    5  C           1     -23.764 -11.274  -1.623  0.00  0.00     0.022 C 
HETATM    6  C           1     -22.596 -10.400  -2.046  0.00  0.00     0.127 C 
HETATM    7  O           1     -21.867  -7.651   0.181  0.00  0.00    -0.271 OA
ENDROOT
BRANCH   1   8
HETATM    8  C           1     -21.915  -7.465  -2.168  0.00  0.00     0.275 C 
BRANCH   8   9
HETATM    9  C           1     -20.459  -7.458  -2.613  0.00  0.00     0.042 C 
BRANCH   9  10
HETATM   10  C           1     -20.324  -8.227  -3.921  0.00  0.00     0.003 C 
BRANCH  10  11
HETATM   11 Se           1     -21.526  -7.465  -5.251  0.00  0.00     0.000 Se
HETATM   12  C           1     -20.718  -5.691  -5.204  0.00  0.00     0.000 C 
ENDBRANCH  10  11
ENDBRANCH   9  10
ENDBRANCH   8   9
BRANCH   8  13
HETATM   13  N           1     -22.384  -6.054  -1.972  0.00  0.00    -0.067 N 
HETATM   14  H           1     -22.809  -5.955  -1.022  0.00  0.00     0.275 HD
HETATM   15  H           1     -21.572  -5.402  -2.060  0.00  0.00     0.275 HD
HETATM   16  H           1     -23.099  -5.820  -2.698  0.00  0.00     0.275 HD
ENDBRANCH   8  13
ENDBRANCH   1   8
BRANCH   3  17
HETATM   17  C           1     -21.286 -11.294   0.467  0.00  0.00     0.196 C 
HETATM   18  O           1     -20.152 -10.769   0.450  0.00  0.00    -0.646 OA
HETATM   19  O           1     -21.403 -12.525   0.646  0.00  0.00    -0.646 OA
ENDBRANCH   3  17
TORSDOF 6
ENDMDL
MODEL 9
REMARK VINA RESULT:      -5.0     17.257     18.840
REMARK  6 active torsions:
REMARK  status: ('A' for Active; 'I' for Inactive)
REMARK    1  A    between atoms: C_1  and  C_2 
REMARK    2  A    between atoms: C_1  and  C_19 
REMARK    3  A    between atoms: C_1  and  N_15 
REMARK       I    between atoms: C_2  and  N_3 
REMARK    4  A    between atoms: C_4  and  C_6 
REMARK    5  A    between atoms: Se_17  and  C_18 
REMARK    6  A    between atoms: C_18  and  C_19 
ROOT
HETATM    1  C           1     -20.913 -10.631   0.307  0.00  0.00     0.251 C 
HETATM    2  N           1     -21.186  -9.691  -0.650  0.00  0.00    -0.336 N 
HETATM    3  C           1     -21.064  -8.241  -0.533  0.00  0.00     0.188 C 
HETATM    4  C           1     -20.480  -7.819  -1.870  0.00  0.00     0.038 C 
HETATM    5  C           1     -20.879  -8.922  -2.844  0.00  0.00     0.022 C 
HETATM    6  C           1     -21.661  -9.922  -2.011  0.00  0.00     0.127 C 
HETATM    7  O           1     -20.523 -10.288   1.397  0.00  0.00    -0.271 OA
ENDROOT
BRANCH   1   8
HETATM    8  C           1     -21.100 -12.097   0.001  0.00  0.00     0.275 C 
BRANCH   8   9
HETATM    9  C           1     -21.951 -12.739   1.088  0.00  0.00     0.042 C 
BRANCH   9  10
HETATM   10  C           1     -23.407 -12.772   0.641  0.00  0.00     0.003 C 
BRANCH  10  11
HETATM   11 Se           1     -23.493 -13.178  -1.263  0.00  0.00     0.000 Se
HETATM   12  C           1     -24.650 -14.732  -1.046  0.00  0.00     0.000 C 
ENDBRANCH  10  11
ENDBRANCH   9  10
ENDBRANCH   8   9
BRANCH   8  13
HETATM   13  N           1     -19.761 -12.772  -0.049  0.00  0.00    -0.067 N 
HETATM   14  H           1     -19.087 -12.173  -0.579  0.00  0.00     0.275 HD
HETATM   15  H           1     -19.408 -12.917   0.923  0.00  0.00     0.275 HD
HETATM   16  H           1     -19.856 -13.697  -0.528  0.00  0.00     0.275 HD
ENDBRANCH   8  13
ENDBRANCH   1   8
BRANCH   3  17
HETATM   17  C           1     -22.414  -7.605  -0.310  0.00  0.00     0.196 C 
HETATM   18  O           1     -23.188  -8.069   0.554  0.00  0.00    -0.646 OA
HETATM   19  O           1     -22.758  -6.615  -0.990  0.00  0.00    -0.646 OA
ENDBRANCH   3  17
TORSDOF 6
ENDMDL
