MODEL 1
REMARK VINA RESULT:      -7.5      0.000      0.000
REMARK  10 active torsions:
REMARK  status: ('A' for Active; 'I' for Inactive)
REMARK       I    between atoms: C_1  and  N_2 
REMARK    1  A    between atoms: C_1  and  C_21 
REMARK    2  A    between atoms: N_2  and  C_12 
REMARK    3  A    between atoms: N_7  and  C_21 
REMARK    4  A    between atoms: C_9  and  C_19 
REMARK    5  A    between atoms: C_12  and  C_13 
REMARK    6  A    between atoms: C_12  and  C_24 
REMARK    7  A    between atoms: C_13  and  C_18 
REMARK    8  A    between atoms: C_19  and  C_20 
REMARK    9  A    between atoms: C_20  and  C_21 
REMARK   10  A    between atoms: O_22  and  C_23 
ROOT
HETATM    1  C           1     -21.307  -6.500  -4.440  0.00  0.00     0.249 C 
HETATM    2  N           1     -21.081  -5.343  -5.135  0.00  0.00    -0.344 N 
HETATM    3  O           1     -21.499  -7.534  -5.035  0.00  0.00    -0.271 OA
HETATM    4  H           1     -20.920  -4.476  -4.636  0.00  0.00     0.163 HD
ENDROOT
BRANCH   2   5
HETATM    5  C           1     -21.075  -5.357  -6.585  0.00  0.00     0.189 C 
BRANCH   5   6
HETATM    6  C           1     -21.596  -4.025  -7.107  0.00  0.00     0.074 C 
BRANCH   6   7
HETATM    7  C           1     -22.134  -4.207  -8.493  0.00  0.00    -0.056 A 
HETATM    8  C           1     -21.266  -4.186  -9.585  0.00  0.00     0.010 A 
HETATM    9  C           1     -21.768  -4.355 -10.876  0.00  0.00     0.037 A 
HETATM   10  C           1     -23.135  -4.545 -11.075  0.00  0.00     0.065 A 
HETATM   11  C           1     -24.002  -4.564  -9.982  0.00  0.00     0.037 A 
HETATM   12  C           1     -23.501  -4.396  -8.691  0.00  0.00     0.010 A 
BRANCH  10  13
HETATM   13  O           1     -23.621  -4.708 -12.328  0.00  0.00    -0.361 OA
HETATM   14  H           1     -23.563  -3.853 -12.788  0.00  0.00     0.217 HD
ENDBRANCH  10  13
ENDBRANCH   6   7
ENDBRANCH   5   6
BRANCH   5  15
HETATM   15  C           1     -19.666  -5.575  -7.079  0.00  0.00     0.197 C 
HETATM   16  O           1     -18.885  -4.605  -7.186  0.00  0.00    -0.646 OA
HETATM   17  O           1     -19.280  -6.725  -7.379  0.00  0.00    -0.646 OA
ENDBRANCH   5  15
ENDBRANCH   2   5
BRANCH   1  18
HETATM   18  C           1     -21.313  -6.486  -2.931  0.00  0.00     0.275 C 
BRANCH  18  19
HETATM   19  N           1     -22.577  -5.839  -2.444  0.00  0.00    -0.066 N 
HETATM   20  H           1     -22.384  -5.322  -1.556  0.00  0.00     0.275 HD
HETATM   21  H           1     -22.927  -5.171  -3.167  0.00  0.00     0.275 HD
HETATM   22  H           1     -23.299  -6.575  -2.268  0.00  0.00     0.275 HD
ENDBRANCH  18  19
BRANCH  18  23
HETATM   23  C           1     -21.241  -7.914  -2.408  0.00  0.00     0.053 C 
BRANCH  23  24
HETATM   24  C           1     -21.272  -7.900  -0.885  0.00  0.00     0.115 C 
BRANCH  24  25
HETATM   25  C           1     -22.516  -8.603  -0.399  0.00  0.00     0.172 C 
HETATM   26  O           1     -23.266  -8.043   0.430  0.00  0.00    -0.648 OA
HETATM   27  O           1     -22.796  -9.743  -0.826  0.00  0.00    -0.648 OA
ENDBRANCH  24  25
ENDBRANCH  23  24
ENDBRANCH  18  23
ENDBRANCH   1  18
TORSDOF 10
ENDMDL
MODEL 2
REMARK VINA RESULT:      -7.4     11.920     15.029
REMARK  10 active torsions:
REMARK  status: ('A' for Active; 'I' for Inactive)
REMARK       I    between atoms: C_1  and  N_2 
REMARK    1  A    between atoms: C_1  and  C_21 
REMARK    2  A    between atoms: N_2  and  C_12 
REMARK    3  A    between atoms: N_7  and  C_21 
REMARK    4  A    between atoms: C_9  and  C_19 
REMARK    5  A    between atoms: C_12  and  C_13 
REMARK    6  A    between atoms: C_12  and  C_24 
REMARK    7  A    between atoms: C_13  and  C_18 
REMARK    8  A    between atoms: C_19  and  C_20 
REMARK    9  A    between atoms: C_20  and  C_21 
REMARK   10  A    between atoms: O_22  and  C_23 
ROOT
HETATM    1  C           1     -26.191  -6.550 -19.840  0.00  0.00     0.249 C 
HETATM    2  N           1     -25.871  -6.747 -18.524  0.00  0.00    -0.344 N 
HETATM    3  O           1     -27.180  -5.922 -20.134  0.00  0.00    -0.271 OA
HETATM    4  H           1     -25.042  -7.274 -18.278  0.00  0.00     0.163 HD
ENDROOT
BRANCH   2   5
HETATM    5  C           1     -26.719  -6.203 -17.481  0.00  0.00     0.189 C 
BRANCH   5   6
HETATM    6  C           1     -28.076  -6.893 -17.520  0.00  0.00     0.074 C 
BRANCH   6   7
HETATM    7  C           1     -29.162  -5.864 -17.468  0.00  0.00    -0.056 A 
HETATM    8  C           1     -30.464  -6.241 -17.139  0.00  0.00     0.010 A 
HETATM    9  C           1     -31.476  -5.282 -17.092  0.00  0.00     0.037 A 
HETATM   10  C           1     -31.187  -3.947 -17.374  0.00  0.00     0.065 A 
HETATM   11  C           1     -29.885  -3.571 -17.704  0.00  0.00     0.037 A 
HETATM   12  C           1     -28.873  -4.529 -17.752  0.00  0.00     0.010 A 
BRANCH  10  13
HETATM   13  O           1     -32.170  -3.016 -17.328  0.00  0.00    -0.361 OA
HETATM   14  H           1     -31.866  -2.234 -17.819  0.00  0.00     0.217 HD
ENDBRANCH  10  13
ENDBRANCH   6   7
ENDBRANCH   5   6
BRANCH   5  15
HETATM   15  C           1     -26.074  -6.433 -16.137  0.00  0.00     0.197 C 
HETATM   16  O           1     -26.496  -7.342 -15.389  0.00  0.00    -0.646 OA
HETATM   17  O           1     -25.117  -5.717 -15.772  0.00  0.00    -0.646 OA
ENDBRANCH   5  15
ENDBRANCH   2   5
BRANCH   1  18
HETATM   18  C           1     -25.308  -7.116 -20.925  0.00  0.00     0.275 C 
BRANCH  18  19
HETATM   19  N           1     -24.831  -6.004 -21.811  0.00  0.00    -0.066 N 
HETATM   20  H           1     -23.863  -6.213 -22.144  0.00  0.00     0.275 HD
HETATM   21  H           1     -25.470  -5.915 -22.633  0.00  0.00     0.275 HD
HETATM   22  H           1     -24.827  -5.107 -21.273  0.00  0.00     0.275 HD
ENDBRANCH  18  19
BRANCH  18  23
HETATM   23  C           1     -24.109  -7.811 -20.295  0.00  0.00     0.053 C 
BRANCH  23  24
HETATM   24  C           1     -23.249  -8.433 -21.388  0.00  0.00     0.115 C 
BRANCH  24  25
HETATM   25  C           1     -21.815  -8.504 -20.922  0.00  0.00     0.172 C 
HETATM   26  O           1     -21.461  -7.887 -19.893  0.00  0.00    -0.648 OA
HETATM   27  O           1     -20.983  -9.178 -21.564  0.00  0.00    -0.648 OA
ENDBRANCH  24  25
ENDBRANCH  23  24
ENDBRANCH  18  23
ENDBRANCH   1  18
TORSDOF 10
ENDMDL
MODEL 3
REMARK VINA RESULT:      -7.4     11.924     14.549
REMARK  10 active torsions:
REMARK  status: ('A' for Active; 'I' for Inactive)
REMARK       I    between atoms: C_1  and  N_2 
REMARK    1  A    between atoms: C_1  and  C_21 
REMARK    2  A    between atoms: N_2  and  C_12 
REMARK    3  A    between atoms: N_7  and  C_21 
REMARK    4  A    between atoms: C_9  and  C_19 
REMARK    5  A    between atoms: C_12  and  C_13 
REMARK    6  A    between atoms: C_12  and  C_24 
REMARK    7  A    between atoms: C_13  and  C_18 
REMARK    8  A    between atoms: C_19  and  C_20 
REMARK    9  A    between atoms: C_20  and  C_21 
REMARK   10  A    between atoms: O_22  and  C_23 
ROOT
HETATM    1  C           1     -29.741  -6.710 -17.636  0.00  0.00     0.249 C 
HETATM    2  N           1     -28.607  -6.172 -17.091  0.00  0.00    -0.344 N 
HETATM    3  O           1     -29.715  -7.819 -18.115  0.00  0.00    -0.271 OA
HETATM    4  H           1     -28.629  -5.244 -16.690  0.00  0.00     0.163 HD
ENDROOT
BRANCH   2   5
HETATM    5  C           1     -27.372  -6.934 -17.089  0.00  0.00     0.189 C 
BRANCH   5   6
HETATM    6  C           1     -26.257  -6.093 -17.693  0.00  0.00     0.074 C 
BRANCH   6   7
HETATM    7  C           1     -25.765  -6.743 -18.949  0.00  0.00    -0.056 A 
HETATM    8  C           1     -26.645  -6.971 -20.007  0.00  0.00     0.010 A 
HETATM    9  C           1     -26.187  -7.578 -21.176  0.00  0.00     0.037 A 
HETATM   10  C           1     -24.849  -7.956 -21.288  0.00  0.00     0.065 A 
HETATM   11  C           1     -23.970  -7.728 -20.230  0.00  0.00     0.037 A 
HETATM   12  C           1     -24.427  -7.122 -19.060  0.00  0.00     0.010 A 
BRANCH  10  13
HETATM   13  O           1     -24.404  -8.545 -22.424  0.00  0.00    -0.361 OA
HETATM   14  H           1     -24.180  -9.468 -22.216  0.00  0.00     0.217 HD
ENDBRANCH  10  13
ENDBRANCH   6   7
ENDBRANCH   5   6
BRANCH   5  15
HETATM   15  C           1     -27.013  -7.303 -15.671  0.00  0.00     0.197 C 
HETATM   16  O           1     -25.813  -7.362 -15.325  0.00  0.00    -0.646 OA
HETATM   17  O           1     -27.914  -7.550 -14.841  0.00  0.00    -0.646 OA
ENDBRANCH   5  15
ENDBRANCH   2   5
BRANCH   1  18
HETATM   18  C           1     -31.026  -5.918 -17.638  0.00  0.00     0.275 C 
BRANCH  18  19
HETATM   19  N           1     -32.140  -6.774 -17.111  0.00  0.00    -0.066 N 
HETATM   20  H           1     -31.745  -7.518 -16.492  0.00  0.00     0.275 HD
HETATM   21  H           1     -32.805  -6.182 -16.563  0.00  0.00     0.275 HD
HETATM   22  H           1     -32.646  -7.219 -17.911  0.00  0.00     0.275 HD
ENDBRANCH  18  19
BRANCH  18  23
HETATM   23  C           1     -30.869  -4.689 -16.753  0.00  0.00     0.053 C 
BRANCH  23  24
HETATM   24  C           1     -30.741  -3.447 -17.626  0.00  0.00     0.115 C 
BRANCH  24  25
HETATM   25  C           1     -29.458  -2.725 -17.291  0.00  0.00     0.172 C 
HETATM   26  O           1     -28.428  -3.378 -17.016  0.00  0.00    -0.648 OA
HETATM   27  O           1     -29.427  -1.477 -17.288  0.00  0.00    -0.648 OA
ENDBRANCH  24  25
ENDBRANCH  23  24
ENDBRANCH  18  23
ENDBRANCH   1  18
TORSDOF 10
ENDMDL
MODEL 4
REMARK VINA RESULT:      -6.9      1.955      7.941
REMARK  10 active torsions:
REMARK  status: ('A' for Active; 'I' for Inactive)
REMARK       I    between atoms: C_1  and  N_2 
REMARK    1  A    between atoms: C_1  and  C_21 
REMARK    2  A    between atoms: N_2  and  C_12 
REMARK    3  A    between atoms: N_7  and  C_21 
REMARK    4  A    between atoms: C_9  and  C_19 
REMARK    5  A    between atoms: C_12  and  C_13 
REMARK    6  A    between atoms: C_12  and  C_24 
REMARK    7  A    between atoms: C_13  and  C_18 
REMARK    8  A    between atoms: C_19  and  C_20 
REMARK    9  A    between atoms: C_20  and  C_21 
REMARK   10  A    between atoms: O_22  and  C_23 
ROOT
HETATM    1  C           1     -20.344  -5.354  -6.004  0.00  0.00     0.249 C 
HETATM    2  N           1     -20.233  -6.713  -6.119  0.00  0.00    -0.344 N 
HETATM    3  O           1     -20.336  -4.836  -4.913  0.00  0.00    -0.271 OA
HETATM    4  H           1     -20.241  -7.146  -7.033  0.00  0.00     0.163 HD
ENDROOT
BRANCH   2   5
HETATM    5  C           1     -20.106  -7.533  -4.929  0.00  0.00     0.189 C 
BRANCH   5   6
HETATM    6  C           1     -21.456  -8.153  -4.595  0.00  0.00     0.074 C 
BRANCH   6   7
HETATM    7  C           1     -21.703  -8.049  -3.121  0.00  0.00    -0.056 A 
HETATM    8  C           1     -21.945  -6.804  -2.542  0.00  0.00     0.010 A 
HETATM    9  C           1     -22.174  -6.707  -1.169  0.00  0.00     0.037 A 
HETATM   10  C           1     -22.161  -7.854  -0.377  0.00  0.00     0.065 A 
HETATM   11  C           1     -21.917  -9.099  -0.957  0.00  0.00     0.037 A 
HETATM   12  C           1     -21.688  -9.197  -2.329  0.00  0.00     0.010 A 
BRANCH  10  13
HETATM   13  O           1     -22.383  -7.760   0.956  0.00  0.00    -0.361 OA
HETATM   14  H           1     -22.065  -6.890   1.253  0.00  0.00     0.217 HD
ENDBRANCH  10  13
ENDBRANCH   6   7
ENDBRANCH   5   6
BRANCH   5  15
HETATM   15  C           1     -19.097  -8.626  -5.178  0.00  0.00     0.197 C 
HETATM   16  O           1     -18.589  -8.760  -6.313  0.00  0.00    -0.646 OA
HETATM   17  O           1     -18.768  -9.397  -4.251  0.00  0.00    -0.646 OA
ENDBRANCH   5  15
ENDBRANCH   2   5
BRANCH   1  18
HETATM   18  C           1     -20.476  -4.500  -7.242  0.00  0.00     0.275 C 
BRANCH  18  19
HETATM   19  N           1     -19.132  -4.352  -7.892  0.00  0.00    -0.066 N 
HETATM   20  H           1     -18.432  -4.042  -7.180  0.00  0.00     0.275 HD
HETATM   21  H           1     -18.836  -5.270  -8.293  0.00  0.00     0.275 HD
HETATM   22  H           1     -19.190  -3.639  -8.655  0.00  0.00     0.275 HD
ENDBRANCH  18  19
BRANCH  18  23
HETATM   23  C           1     -21.440  -5.162  -8.217  0.00  0.00     0.053 C 
BRANCH  23  24
HETATM   24  C           1     -22.181  -4.091  -9.006  0.00  0.00     0.115 C 
BRANCH  24  25
HETATM   25  C           1     -21.707  -4.102 -10.439  0.00  0.00     0.172 C 
HETATM   26  O           1     -20.559  -4.512 -10.714  0.00  0.00    -0.648 OA
HETATM   27  O           1     -22.462  -3.701 -11.350  0.00  0.00    -0.648 OA
ENDBRANCH  24  25
ENDBRANCH  23  24
ENDBRANCH  18  23
ENDBRANCH   1  18
TORSDOF 10
ENDMDL
MODEL 5
REMARK VINA RESULT:      -6.4      3.436      8.791
REMARK  10 active torsions:
REMARK  status: ('A' for Active; 'I' for Inactive)
REMARK       I    between atoms: C_1  and  N_2 
REMARK    1  A    between atoms: C_1  and  C_21 
REMARK    2  A    between atoms: N_2  and  C_12 
REMARK    3  A    between atoms: N_7  and  C_21 
REMARK    4  A    between atoms: C_9  and  C_19 
REMARK    5  A    between atoms: C_12  and  C_13 
REMARK    6  A    between atoms: C_12  and  C_24 
REMARK    7  A    between atoms: C_13  and  C_18 
REMARK    8  A    between atoms: C_19  and  C_20 
REMARK    9  A    between atoms: C_20  and  C_21 
REMARK   10  A    between atoms: O_22  and  C_23 
ROOT
HETATM    1  C           1     -21.077  -9.201  -3.687  0.00  0.00     0.249 C 
HETATM    2  N           1     -20.940  -8.311  -2.656  0.00  0.00    -0.344 N 
HETATM    3  O           1     -21.980 -10.003  -3.678  0.00  0.00    -0.271 OA
HETATM    4  H           1     -20.184  -7.639  -2.664  0.00  0.00     0.163 HD
ENDROOT
BRANCH   2   5
HETATM    5  C           1     -21.880  -8.333  -1.551  0.00  0.00     0.189 C 
BRANCH   5   6
HETATM    6  C           1     -21.202  -8.923  -0.322  0.00  0.00     0.074 C 
BRANCH   6   7
HETATM    7  C           1     -21.835 -10.238   0.014  0.00  0.00    -0.056 A 
HETATM    8  C           1     -23.171 -10.472  -0.310  0.00  0.00     0.010 A 
HETATM    9  C           1     -23.760 -11.697   0.004  0.00  0.00     0.037 A 
HETATM   10  C           1     -23.013 -12.688   0.642  0.00  0.00     0.065 A 
HETATM   11  C           1     -21.677 -12.452   0.966  0.00  0.00     0.037 A 
HETATM   12  C           1     -21.088 -11.228   0.653  0.00  0.00     0.010 A 
BRANCH  10  13
HETATM   13  O           1     -23.585 -13.877   0.947  0.00  0.00    -0.361 OA
HETATM   14  H           1     -23.184 -14.201   1.771  0.00  0.00     0.217 HD
ENDBRANCH  10  13
ENDBRANCH   6   7
ENDBRANCH   5   6
BRANCH   5  15
HETATM   15  C           1     -22.333  -6.926  -1.250  0.00  0.00     0.197 C 
HETATM   16  O           1     -22.654  -6.609  -0.084  0.00  0.00    -0.646 OA
HETATM   17  O           1     -22.386  -6.076  -2.165  0.00  0.00    -0.646 OA
ENDBRANCH   5  15
ENDBRANCH   2   5
BRANCH   1  18
HETATM   18  C           1     -20.100  -9.178  -4.838  0.00  0.00     0.275 C 
BRANCH  18  19
HETATM   19  N           1     -20.617 -10.045  -5.948  0.00  0.00    -0.066 N 
HETATM   20  H           1     -21.498  -9.632  -6.331  0.00  0.00     0.275 HD
HETATM   21  H           1     -19.902 -10.103  -6.707  0.00  0.00     0.275 HD
HETATM   22  H           1     -20.814 -11.003  -5.579  0.00  0.00     0.275 HD
ENDBRANCH  18  19
BRANCH  18  23
HETATM   23  C           1     -19.939  -7.751  -5.342  0.00  0.00     0.053 C 
BRANCH  23  24
HETATM   24  C           1     -21.242  -7.287  -5.979  0.00  0.00     0.115 C 
BRANCH  24  25
HETATM   25  C           1     -21.488  -5.839  -5.628  0.00  0.00     0.172 C 
HETATM   26  O           1     -20.652  -5.213  -4.941  0.00  0.00    -0.648 OA
HETATM   27  O           1     -22.525  -5.268  -6.025  0.00  0.00    -0.648 OA
ENDBRANCH  24  25
ENDBRANCH  23  24
ENDBRANCH  18  23
ENDBRANCH   1  18
TORSDOF 10
ENDMDL
MODEL 6
REMARK VINA RESULT:      -6.3     11.664     14.487
REMARK  10 active torsions:
REMARK  status: ('A' for Active; 'I' for Inactive)
REMARK       I    between atoms: C_1  and  N_2 
REMARK    1  A    between atoms: C_1  and  C_21 
REMARK    2  A    between atoms: N_2  and  C_12 
REMARK    3  A    between atoms: N_7  and  C_21 
REMARK    4  A    between atoms: C_9  and  C_19 
REMARK    5  A    between atoms: C_12  and  C_13 
REMARK    6  A    between atoms: C_12  and  C_24 
REMARK    7  A    between atoms: C_13  and  C_18 
REMARK    8  A    between atoms: C_19  and  C_20 
REMARK    9  A    between atoms: C_20  and  C_21 
REMARK   10  A    between atoms: O_22  and  C_23 
ROOT
HETATM    1  C           1     -29.006  -6.831 -17.227  0.00  0.00     0.249 C 
HETATM    2  N           1     -27.833  -6.525 -16.592  0.00  0.00    -0.344 N 
HETATM    3  O           1     -28.987  -7.416 -18.284  0.00  0.00    -0.271 OA
HETATM    4  H           1     -27.849  -6.035 -15.707  0.00  0.00     0.163 HD
ENDROOT
BRANCH   2   5
HETATM    5  C           1     -26.566  -6.903 -17.189  0.00  0.00     0.189 C 
BRANCH   5   6
HETATM    6  C           1     -26.267  -5.987 -18.367  0.00  0.00     0.074 C 
BRANCH   6   7
HETATM    7  C           1     -25.611  -6.775 -19.459  0.00  0.00    -0.056 A 
HETATM    8  C           1     -26.358  -7.201 -20.556  0.00  0.00     0.010 A 
HETATM    9  C           1     -25.747  -7.936 -21.573  0.00  0.00     0.037 A 
HETATM   10  C           1     -24.389  -8.244 -21.492  0.00  0.00     0.065 A 
HETATM   11  C           1     -23.643  -7.818 -20.393  0.00  0.00     0.037 A 
HETATM   12  C           1     -24.253  -7.083 -19.377  0.00  0.00     0.010 A 
BRANCH  10  13
HETATM   13  O           1     -23.796  -8.957 -22.479  0.00  0.00    -0.361 OA
HETATM   14  H           1     -24.467  -9.538 -22.875  0.00  0.00     0.217 HD
ENDBRANCH  10  13
ENDBRANCH   6   7
ENDBRANCH   5   6
BRANCH   5  15
HETATM   15  C           1     -25.469  -6.775 -16.161  0.00  0.00     0.197 C 
HETATM   16  O           1     -24.922  -7.801 -15.699  0.00  0.00    -0.646 OA
HETATM   17  O           1     -25.106  -5.644 -15.771  0.00  0.00    -0.646 OA
ENDBRANCH   5  15
ENDBRANCH   2   5
BRANCH   1  18
HETATM   18  C           1     -30.325  -6.438 -16.607  0.00  0.00     0.275 C 
BRANCH  18  19
HETATM   19  N           1     -30.073  -5.575 -15.406  0.00  0.00    -0.066 N 
HETATM   20  H           1     -30.954  -5.080 -15.141  0.00  0.00     0.275 HD
HETATM   21  H           1     -29.756  -6.172 -14.608  0.00  0.00     0.275 HD
HETATM   22  H           1     -29.333  -4.872 -15.631  0.00  0.00     0.275 HD
ENDBRANCH  18  19
BRANCH  18  23
HETATM   23  C           1     -31.154  -5.664 -17.622  0.00  0.00     0.053 C 
BRANCH  23  24
HETATM   24  C           1     -31.145  -4.184 -17.264  0.00  0.00     0.115 C 
BRANCH  24  25
HETATM   25  C           1     -32.548  -3.736 -16.933  0.00  0.00     0.172 C 
HETATM   26  O           1     -33.117  -2.885 -17.651  0.00  0.00    -0.648 OA
HETATM   27  O           1     -33.139  -4.215 -15.943  0.00  0.00    -0.648 OA
ENDBRANCH  24  25
ENDBRANCH  23  24
ENDBRANCH  18  23
ENDBRANCH   1  18
TORSDOF 10
ENDMDL
MODEL 7
REMARK VINA RESULT:      -6.1      5.568      8.753
REMARK  10 active torsions:
REMARK  status: ('A' for Active; 'I' for Inactive)
REMARK       I    between atoms: C_1  and  N_2 
REMARK    1  A    between atoms: C_1  and  C_21 
REMARK    2  A    between atoms: N_2  and  C_12 
REMARK    3  A    between atoms: N_7  and  C_21 
REMARK    4  A    between atoms: C_9  and  C_19 
REMARK    5  A    between atoms: C_12  and  C_13 
REMARK    6  A    between atoms: C_12  and  C_24 
REMARK    7  A    between atoms: C_13  and  C_18 
REMARK    8  A    between atoms: C_19  and  C_20 
REMARK    9  A    between atoms: C_20  and  C_21 
REMARK   10  A    between atoms: O_22  and  C_23 
ROOT
HETATM    1  C           1     -20.433  -9.411  -3.580  0.00  0.00     0.249 C 
HETATM    2  N           1     -20.442  -8.493  -2.564  0.00  0.00    -0.344 N 
HETATM    3  O           1     -21.457  -9.963  -3.904  0.00  0.00    -0.271 OA
HETATM    4  H           1     -19.584  -8.031  -2.293  0.00  0.00     0.163 HD
ENDROOT
BRANCH   2   5
HETATM    5  C           1     -21.681  -8.185  -1.876  0.00  0.00     0.189 C 
BRANCH   5   6
HETATM    6  C           1     -21.517  -8.462  -0.388  0.00  0.00     0.074 C 
BRANCH   6   7
HETATM    7  C           1     -22.040  -9.830  -0.074  0.00  0.00    -0.056 A 
HETATM    8  C           1     -23.384 -10.128  -0.290  0.00  0.00     0.010 A 
HETATM    9  C           1     -23.871 -11.402   0.003  0.00  0.00     0.037 A 
HETATM   10  C           1     -23.013 -12.377   0.513  0.00  0.00     0.065 A 
HETATM   11  C           1     -21.669 -12.077   0.730  0.00  0.00     0.037 A 
HETATM   12  C           1     -21.182 -10.804   0.437  0.00  0.00     0.010 A 
BRANCH  10  13
HETATM   13  O           1     -23.486 -13.614   0.798  0.00  0.00    -0.361 OA
HETATM   14  H           1     -23.077 -14.242   0.180  0.00  0.00     0.217 HD
ENDBRANCH  10  13
ENDBRANCH   6   7
ENDBRANCH   5   6
BRANCH   5  15
HETATM   15  C           1     -22.021  -6.730  -2.083  0.00  0.00     0.197 C 
HETATM   16  O           1     -21.907  -6.216  -3.217  0.00  0.00    -0.646 OA
HETATM   17  O           1     -22.418  -6.037  -1.121  0.00  0.00    -0.646 OA
ENDBRANCH   5  15
ENDBRANCH   2   5
BRANCH   1  18
HETATM   18  C           1     -19.144  -9.732  -4.296  0.00  0.00     0.275 C 
BRANCH  18  19
HETATM   19  N           1     -19.047  -8.904  -5.543  0.00  0.00    -0.066 N 
HETATM   20  H           1     -19.991  -8.829  -5.987  0.00  0.00     0.275 HD
HETATM   21  H           1     -18.700  -7.949  -5.302  0.00  0.00     0.275 HD
HETATM   22  H           1     -18.384  -9.358  -6.212  0.00  0.00     0.275 HD
ENDBRANCH  18  19
BRANCH  18  23
HETATM   23  C           1     -17.964  -9.418  -3.387  0.00  0.00     0.053 C 
BRANCH  23  24
HETATM   24  C           1     -16.664  -9.747  -4.108  0.00  0.00     0.115 C 
BRANCH  24  25
HETATM   25  C           1     -15.850 -10.703  -3.270  0.00  0.00     0.172 C 
HETATM   26  O           1     -15.638 -10.450  -2.064  0.00  0.00    -0.648 OA
HETATM   27  O           1     -15.388 -11.744  -3.782  0.00  0.00    -0.648 OA
ENDBRANCH  24  25
ENDBRANCH  23  24
ENDBRANCH  18  23
ENDBRANCH   1  18
TORSDOF 10
ENDMDL
MODEL 8
REMARK VINA RESULT:      -6.0     12.334     15.508
REMARK  10 active torsions:
REMARK  status: ('A' for Active; 'I' for Inactive)
REMARK       I    between atoms: C_1  and  N_2 
REMARK    1  A    between atoms: C_1  and  C_21 
REMARK    2  A    between atoms: N_2  and  C_12 
REMARK    3  A    between atoms: N_7  and  C_21 
REMARK    4  A    between atoms: C_9  and  C_19 
REMARK    5  A    between atoms: C_12  and  C_13 
REMARK    6  A    between atoms: C_12  and  C_24 
REMARK    7  A    between atoms: C_13  and  C_18 
REMARK    8  A    between atoms: C_19  and  C_20 
REMARK    9  A    between atoms: C_20  and  C_21 
REMARK   10  A    between atoms: O_22  and  C_23 
ROOT
HETATM    1  C           1     -32.119  -4.470 -16.939  0.00  0.00     0.249 C 
HETATM    2  N           1     -31.636  -5.749 -16.874  0.00  0.00    -0.344 N 
HETATM    3  O           1     -31.411  -3.576 -17.338  0.00  0.00    -0.271 OA
HETATM    4  H           1     -32.229  -6.498 -16.540  0.00  0.00     0.163 HD
ENDROOT
BRANCH   2   5
HETATM    5  C           1     -30.274  -6.031 -17.285  0.00  0.00     0.189 C 
BRANCH   5   6
HETATM    6  C           1     -29.334  -5.811 -16.108  0.00  0.00     0.074 C 
BRANCH   6   7
HETATM    7  C           1     -27.930  -6.126 -16.524  0.00  0.00    -0.056 A 
HETATM    8  C           1     -27.538  -5.942 -17.850  0.00  0.00     0.010 A 
HETATM    9  C           1     -26.230  -6.236 -18.237  0.00  0.00     0.037 A 
HETATM   10  C           1     -25.316  -6.714 -17.299  0.00  0.00     0.065 A 
HETATM   11  C           1     -25.709  -6.900 -15.974  0.00  0.00     0.037 A 
HETATM   12  C           1     -27.016  -6.606 -15.586  0.00  0.00     0.010 A 
BRANCH  10  13
HETATM   13  O           1     -24.046  -7.000 -17.676  0.00  0.00    -0.361 OA
HETATM   14  H           1     -24.068  -7.311 -18.597  0.00  0.00     0.217 HD
ENDBRANCH  10  13
ENDBRANCH   6   7
ENDBRANCH   5   6
BRANCH   5  15
HETATM   15  C           1     -30.176  -7.464 -17.748  0.00  0.00     0.197 C 
HETATM   16  O           1     -29.784  -8.350 -16.958  0.00  0.00    -0.646 OA
HETATM   17  O           1     -30.487  -7.765 -18.921  0.00  0.00    -0.646 OA
ENDBRANCH   5  15
ENDBRANCH   2   5
BRANCH   1  18
HETATM   18  C           1     -33.536  -4.176 -16.511  0.00  0.00     0.275 C 
BRANCH  18  19
HETATM   19  N           1     -33.634  -4.260 -15.017  0.00  0.00    -0.066 N 
HETATM   20  H           1     -34.487  -3.750 -14.694  0.00  0.00     0.275 HD
HETATM   21  H           1     -33.698  -5.263 -14.728  0.00  0.00     0.275 HD
HETATM   22  H           1     -32.786  -3.826 -14.587  0.00  0.00     0.275 HD
ENDBRANCH  18  19
BRANCH  18  23
HETATM   23  C           1     -33.925  -2.776 -16.966  0.00  0.00     0.053 C 
BRANCH  23  24
HETATM   24  C           1     -35.346  -2.469 -16.510  0.00  0.00     0.115 C 
BRANCH  24  25
HETATM   25  C           1     -35.511  -0.978 -16.344  0.00  0.00     0.172 C 
HETATM   26  O           1     -36.354  -0.363 -17.032  0.00  0.00    -0.648 OA
HETATM   27  O           1     -34.805  -0.359 -15.520  0.00  0.00    -0.648 OA
ENDBRANCH  24  25
ENDBRANCH  23  24
ENDBRANCH  18  23
ENDBRANCH   1  18
TORSDOF 10
ENDMDL
MODEL 9
REMARK VINA RESULT:      -5.9      2.321      7.999
REMARK  10 active torsions:
REMARK  status: ('A' for Active; 'I' for Inactive)
REMARK       I    between atoms: C_1  and  N_2 
REMARK    1  A    between atoms: C_1  and  C_21 
REMARK    2  A    between atoms: N_2  and  C_12 
REMARK    3  A    between atoms: N_7  and  C_21 
REMARK    4  A    between atoms: C_9  and  C_19 
REMARK    5  A    between atoms: C_12  and  C_13 
REMARK    6  A    between atoms: C_12  and  C_24 
REMARK    7  A    between atoms: C_13  and  C_18 
REMARK    8  A    between atoms: C_19  and  C_20 
REMARK    9  A    between atoms: C_20  and  C_21 
REMARK   10  A    between atoms: O_22  and  C_23 
ROOT
HETATM    1  C           1     -20.756  -7.856  -5.002  0.00  0.00     0.249 C 
HETATM    2  N           1     -21.009  -8.824  -4.068  0.00  0.00    -0.344 N 
HETATM    3  O           1     -19.758  -7.916  -5.680  0.00  0.00    -0.271 OA
HETATM    4  H           1     -21.845  -8.773  -3.500  0.00  0.00     0.163 HD
ENDROOT
BRANCH   2   5
HETATM    5  C           1     -20.078  -9.922  -3.892  0.00  0.00     0.189 C 
BRANCH   5   6
HETATM    6  C           1     -19.735 -10.063  -2.415  0.00  0.00     0.074 C 
BRANCH   6   7
HETATM    7  C           1     -20.823  -9.452  -1.588  0.00  0.00    -0.056 A 
HETATM    8  C           1     -21.898 -10.233  -1.164  0.00  0.00     0.010 A 
HETATM    9  C           1     -22.913  -9.663  -0.395  0.00  0.00     0.037 A 
HETATM   10  C           1     -22.852  -8.313  -0.049  0.00  0.00     0.065 A 
HETATM   11  C           1     -21.777  -7.532  -0.474  0.00  0.00     0.037 A 
HETATM   12  C           1     -20.763  -8.101  -1.244  0.00  0.00     0.010 A 
BRANCH  10  13
HETATM   13  O           1     -23.837  -7.760   0.698  0.00  0.00    -0.361 OA
HETATM   14  H           1     -23.468  -7.548   1.573  0.00  0.00     0.217 HD
ENDBRANCH  10  13
ENDBRANCH   6   7
ENDBRANCH   5   6
BRANCH   5  15
HETATM   15  C           1     -20.710 -11.200  -4.386  0.00  0.00     0.197 C 
HETATM   16  O           1     -20.729 -12.212  -3.652  0.00  0.00    -0.646 OA
HETATM   17  O           1     -21.214 -11.247  -5.529  0.00  0.00    -0.646 OA
ENDBRANCH   5  15
ENDBRANCH   2   5
BRANCH   1  18
HETATM   18  C           1     -21.725  -6.713  -5.187  0.00  0.00     0.275 C 
BRANCH  18  19
HETATM   19  N           1     -22.212  -6.251  -3.845  0.00  0.00    -0.066 N 
HETATM   20  H           1     -21.405  -6.186  -3.185  0.00  0.00     0.275 HD
HETATM   21  H           1     -22.660  -5.312  -3.941  0.00  0.00     0.275 HD
HETATM   22  H           1     -22.910  -6.936  -3.474  0.00  0.00     0.275 HD
ENDBRANCH  18  19
BRANCH  18  23
HETATM   23  C           1     -21.026  -5.562  -5.896  0.00  0.00     0.053 C 
BRANCH  23  24
HETATM   24  C           1     -21.463  -5.523  -7.354  0.00  0.00     0.115 C 
BRANCH  24  25
HETATM   25  C           1     -21.731  -4.094  -7.762  0.00  0.00     0.172 C 
HETATM   26  O           1     -22.364  -3.853  -8.813  0.00  0.00    -0.648 OA
HETATM   27  O           1     -21.321  -3.154  -7.049  0.00  0.00    -0.648 OA
ENDBRANCH  24  25
ENDBRANCH  23  24
ENDBRANCH  18  23
ENDBRANCH   1  18
TORSDOF 10
ENDMDL
