MODEL 1
REMARK VINA RESULT:      -7.2      0.000      0.000
REMARK  12 active torsions:
REMARK  status: ('A' for Active; 'I' for Inactive)
REMARK    1  A    between atoms: C_2  and  C_3 
REMARK    2  A    between atoms: C_2  and  S_11 
REMARK    3  A    between atoms: C_3  and  C_18 
REMARK    4  A    between atoms: C_5  and  C_26 
REMARK    5  A    between atoms: O_6  and  P_9 
REMARK    6  A    between atoms: P_9  and  O_22 
REMARK    7  A    between atoms: C_12  and  C_25 
REMARK    8  A    between atoms: C_18  and  C_27 
REMARK    9  A    between atoms: C_18  and  N_30 
REMARK   10  A    between atoms: O_22  and  C_29 
REMARK   11  A    between atoms: N_23  and  C_25 
REMARK       I    between atoms: N_23  and  C_27 
REMARK   12  A    between atoms: C_25  and  C_26 
ROOT
HETATM    1  C           1     -20.581  -7.532  -5.685  0.00  0.00     0.189 C 
ENDROOT
BRANCH   1   2
HETATM    2  C           1     -19.322  -8.328  -5.443  0.00  0.00     0.197 C 
HETATM    3  O           1     -19.065  -8.761  -4.298  0.00  0.00    -0.646 OA
HETATM    4  O           1     -18.534  -8.554  -6.386  0.00  0.00    -0.646 OA
ENDBRANCH   1   2
BRANCH   1   5
HETATM    5  N           1     -21.556  -7.848  -4.658  0.00  0.00    -0.344 N 
HETATM    6  H           1     -21.870  -8.802  -4.534  0.00  0.00     0.163 HD
HETATM    7  C           1     -22.051  -6.855  -3.856  0.00  0.00     0.249 C 
HETATM    8  O           1     -23.044  -6.252  -4.187  0.00  0.00    -0.271 OA
BRANCH   7   9
HETATM    9  C           1     -21.357  -6.514  -2.561  0.00  0.00     0.275 C 
BRANCH   9  10
HETATM   10  C           1     -21.046  -7.795  -1.798  0.00  0.00     0.053 C 
BRANCH  10  11
HETATM   11  C           1     -22.062  -7.980  -0.679  0.00  0.00     0.076 C 
BRANCH  11  12
HETATM   12  S           1     -21.803  -9.591   0.116  0.00  0.00    -0.173 SA
HETATM   13  C           1     -23.424 -10.286  -0.312  0.00  0.00     0.089 C 
ENDBRANCH  11  12
ENDBRANCH  10  11
ENDBRANCH   9  10
BRANCH   9  14
HETATM   14  N           1     -22.250  -5.642  -1.730  0.00  0.00    -0.066 N 
HETATM   15  H           1     -22.644  -4.879  -2.326  0.00  0.00     0.275 HD
HETATM   16  H           1     -23.030  -6.217  -1.338  0.00  0.00     0.275 HD
HETATM   17  H           1     -21.699  -5.223  -0.947  0.00  0.00     0.275 HD
ENDBRANCH   9  14
ENDBRANCH   7   9
ENDBRANCH   1   5
BRANCH   1  18
HETATM   18  C           1     -20.260  -6.045  -5.639  0.00  0.00     0.074 C 
BRANCH  18  19
HETATM   19  C           1     -20.821  -5.375  -6.854  0.00  0.00    -0.056 A 
HETATM   20  C           1     -20.124  -5.425  -8.062  0.00  0.00     0.010 A 
HETATM   21  C           1     -20.647  -4.800  -9.194  0.00  0.00     0.038 A 
HETATM   22  C           1     -21.864  -4.123  -9.119  0.00  0.00     0.081 A 
HETATM   23  C           1     -22.560  -4.074  -7.911  0.00  0.00     0.038 A 
HETATM   24  C           1     -22.038  -4.699  -6.779  0.00  0.00     0.010 A 
BRANCH  22  25
HETATM   25  O           1     -22.371  -3.517 -10.219  0.00  0.00    -0.247 OA
BRANCH  25  26
HETATM   26  P           1     -23.603  -4.233 -10.980  0.00  0.00     0.411 P 
HETATM   27  O           1     -24.770  -3.324 -10.995  0.00  0.00    -0.624 OA
HETATM   28  O           1     -23.960  -5.482 -10.272  0.00  0.00    -0.624 OA
BRANCH  26  29
HETATM   29  O           1     -23.170  -4.577 -12.497  0.00  0.00    -0.300 OA
HETATM   30  H           1     -22.971  -3.744 -12.888  0.00  0.00     0.223 HD
ENDBRANCH  26  29
ENDBRANCH  25  26
ENDBRANCH  22  25
ENDBRANCH  18  19
ENDBRANCH   1  18
TORSDOF 12
ENDMDL
MODEL 2
REMARK VINA RESULT:      -6.4      1.722      2.274
REMARK  12 active torsions:
REMARK  status: ('A' for Active; 'I' for Inactive)
REMARK    1  A    between atoms: C_2  and  C_3 
REMARK    2  A    between atoms: C_2  and  S_11 
REMARK    3  A    between atoms: C_3  and  C_18 
REMARK    4  A    between atoms: C_5  and  C_26 
REMARK    5  A    between atoms: O_6  and  P_9 
REMARK    6  A    between atoms: P_9  and  O_22 
REMARK    7  A    between atoms: C_12  and  C_25 
REMARK    8  A    between atoms: C_18  and  C_27 
REMARK    9  A    between atoms: C_18  and  N_30 
REMARK   10  A    between atoms: O_22  and  C_29 
REMARK   11  A    between atoms: N_23  and  C_25 
REMARK       I    between atoms: N_23  and  C_27 
REMARK   12  A    between atoms: C_25  and  C_26 
ROOT
HETATM    1  C           1     -21.278  -7.510  -5.128  0.00  0.00     0.189 C 
ENDROOT
BRANCH   1   2
HETATM    2  C           1     -20.348  -8.682  -5.326  0.00  0.00     0.197 C 
HETATM    3  O           1     -20.783  -9.752  -5.806  0.00  0.00    -0.646 OA
HETATM    4  O           1     -19.143  -8.585  -5.009  0.00  0.00    -0.646 OA
ENDBRANCH   1   2
BRANCH   1   5
HETATM    5  N           1     -21.984  -7.662  -3.871  0.00  0.00    -0.344 N 
HETATM    6  H           1     -22.985  -7.513  -3.831  0.00  0.00     0.163 HD
HETATM    7  C           1     -21.298  -8.007  -2.738  0.00  0.00     0.249 C 
HETATM    8  O           1     -20.836  -7.147  -2.026  0.00  0.00    -0.271 OA
BRANCH   7   9
HETATM    9  C           1     -21.118  -9.461  -2.378  0.00  0.00     0.275 C 
BRANCH   9  10
HETATM   10  C           1     -22.040  -9.816  -1.218  0.00  0.00     0.053 C 
BRANCH  10  11
HETATM   11  C           1     -21.215  -9.998   0.049  0.00  0.00     0.076 C 
BRANCH  11  12
HETATM   12  S           1     -21.408  -8.541   1.114  0.00  0.00    -0.173 SA
HETATM   13  C           1     -23.080  -8.107   0.555  0.00  0.00     0.089 C 
ENDBRANCH  11  12
ENDBRANCH  10  11
ENDBRANCH   9  10
BRANCH   9  14
HETATM   14  N           1     -19.694  -9.704  -1.976  0.00  0.00    -0.066 N 
HETATM   15  H           1     -19.659 -10.463  -1.259  0.00  0.00     0.275 HD
HETATM   16  H           1     -19.141  -9.991  -2.815  0.00  0.00     0.275 HD
HETATM   17  H           1     -19.290  -8.827  -1.576  0.00  0.00     0.275 HD
ENDBRANCH   9  14
ENDBRANCH   7   9
ENDBRANCH   1   5
BRANCH   1  18
HETATM   18  C           1     -20.471  -6.220  -5.105  0.00  0.00     0.074 C 
BRANCH  18  19
HETATM   19  C           1     -20.774  -5.418  -6.332  0.00  0.00    -0.056 A 
HETATM   20  C           1     -22.098  -5.177  -6.698  0.00  0.00     0.010 A 
HETATM   21  C           1     -22.380  -4.430  -7.842  0.00  0.00     0.038 A 
HETATM   22  C           1     -21.339  -3.926  -8.621  0.00  0.00     0.081 A 
HETATM   23  C           1     -20.015  -4.169  -8.255  0.00  0.00     0.038 A 
HETATM   24  C           1     -19.733  -4.915  -7.112  0.00  0.00     0.010 A 
BRANCH  22  25
HETATM   25  O           1     -21.613  -3.201  -9.732  0.00  0.00    -0.247 OA
BRANCH  25  26
HETATM   26  P           1     -21.623  -3.967 -11.154  0.00  0.00     0.411 P 
HETATM   27  O           1     -22.859  -4.772 -11.273  0.00  0.00    -0.624 OA
HETATM   28  O           1     -20.444  -4.857 -11.242  0.00  0.00    -0.624 OA
BRANCH  26  29
HETATM   29  O           1     -21.570  -2.883 -12.349  0.00  0.00    -0.300 OA
HETATM   30  H           1     -20.920  -3.209 -12.946  0.00  0.00     0.223 HD
ENDBRANCH  26  29
ENDBRANCH  25  26
ENDBRANCH  22  25
ENDBRANCH  18  19
ENDBRANCH   1  18
TORSDOF 12
ENDMDL
MODEL 3
REMARK VINA RESULT:      -6.3      2.793      4.490
REMARK  12 active torsions:
REMARK  status: ('A' for Active; 'I' for Inactive)
REMARK    1  A    between atoms: C_2  and  C_3 
REMARK    2  A    between atoms: C_2  and  S_11 
REMARK    3  A    between atoms: C_3  and  C_18 
REMARK    4  A    between atoms: C_5  and  C_26 
REMARK    5  A    between atoms: O_6  and  P_9 
REMARK    6  A    between atoms: P_9  and  O_22 
REMARK    7  A    between atoms: C_12  and  C_25 
REMARK    8  A    between atoms: C_18  and  C_27 
REMARK    9  A    between atoms: C_18  and  N_30 
REMARK   10  A    between atoms: O_22  and  C_29 
REMARK   11  A    between atoms: N_23  and  C_25 
REMARK       I    between atoms: N_23  and  C_27 
REMARK   12  A    between atoms: C_25  and  C_26 
ROOT
HETATM    1  C           1     -20.875  -7.433  -3.738  0.00  0.00     0.189 C 
ENDROOT
BRANCH   1   2
HETATM    2  C           1     -21.402  -6.839  -2.454  0.00  0.00     0.197 C 
HETATM    3  O           1     -21.073  -7.334  -1.354  0.00  0.00    -0.646 OA
HETATM    4  O           1     -22.169  -5.853  -2.490  0.00  0.00    -0.646 OA
ENDBRANCH   1   2
BRANCH   1   5
HETATM    5  N           1     -20.492  -8.813  -3.509  0.00  0.00    -0.344 N 
HETATM    6  H           1     -21.104  -9.429  -2.989  0.00  0.00     0.163 HD
HETATM    7  C           1     -19.303  -9.282  -3.998  0.00  0.00     0.249 C 
HETATM    8  O           1     -18.303  -9.210  -3.324  0.00  0.00    -0.271 OA
BRANCH   7   9
HETATM    9  C           1     -19.241  -9.889  -5.379  0.00  0.00     0.275 C 
BRANCH   9  10
HETATM   10  C           1     -18.910 -11.372  -5.268  0.00  0.00     0.053 C 
BRANCH  10  11
HETATM   11  C           1     -17.696 -11.687  -6.131  0.00  0.00     0.076 C 
BRANCH  11  12
HETATM   12  S           1     -16.474 -12.601  -5.148  0.00  0.00    -0.173 SA
HETATM   13  C           1     -15.552 -11.146  -4.575  0.00  0.00     0.089 C 
ENDBRANCH  11  12
ENDBRANCH  10  11
ENDBRANCH   9  10
BRANCH   9  14
HETATM   14  N           1     -18.178  -9.199  -6.180  0.00  0.00    -0.066 N 
HETATM   15  H           1     -17.511  -8.719  -5.534  0.00  0.00     0.275 HD
HETATM   16  H           1     -17.661  -9.903  -6.753  0.00  0.00     0.275 HD
HETATM   17  H           1     -18.620  -8.492  -6.811  0.00  0.00     0.275 HD
ENDBRANCH   9  14
ENDBRANCH   7   9
ENDBRANCH   1   5
BRANCH   1  18
HETATM   18  C           1     -21.959  -7.378  -4.806  0.00  0.00     0.074 C 
BRANCH  18  19
HETATM   19  C           1     -21.567  -6.396  -5.865  0.00  0.00    -0.056 A 
HETATM   20  C           1     -20.278  -6.423  -6.398  0.00  0.00     0.010 A 
HETATM   21  C           1     -19.912  -5.508  -7.386  0.00  0.00     0.038 A 
HETATM   22  C           1     -20.835  -4.566  -7.840  0.00  0.00     0.081 A 
HETATM   23  C           1     -22.123  -4.540  -7.307  0.00  0.00     0.038 A 
HETATM   24  C           1     -22.489  -5.454  -6.320  0.00  0.00     0.010 A 
BRANCH  22  25
HETATM   25  O           1     -20.480  -3.678  -8.799  0.00  0.00    -0.247 OA
BRANCH  25  26
HETATM   26  P           1     -20.680  -4.108 -10.343  0.00  0.00     0.411 P 
HETATM   27  O           1     -22.065  -4.588 -10.545  0.00  0.00    -0.624 OA
HETATM   28  O           1     -19.729  -5.190 -10.680  0.00  0.00    -0.624 OA
BRANCH  26  29
HETATM   29  O           1     -20.409  -2.834 -11.296  0.00  0.00    -0.300 OA
HETATM   30  H           1     -20.702  -2.091 -10.799  0.00  0.00     0.223 HD
ENDBRANCH  26  29
ENDBRANCH  25  26
ENDBRANCH  22  25
ENDBRANCH  18  19
ENDBRANCH   1  18
TORSDOF 12
ENDMDL
MODEL 4
REMARK VINA RESULT:      -6.2      4.286      7.564
REMARK  12 active torsions:
REMARK  status: ('A' for Active; 'I' for Inactive)
REMARK    1  A    between atoms: C_2  and  C_3 
REMARK    2  A    between atoms: C_2  and  S_11 
REMARK    3  A    between atoms: C_3  and  C_18 
REMARK    4  A    between atoms: C_5  and  C_26 
REMARK    5  A    between atoms: O_6  and  P_9 
REMARK    6  A    between atoms: P_9  and  O_22 
REMARK    7  A    between atoms: C_12  and  C_25 
REMARK    8  A    between atoms: C_18  and  C_27 
REMARK    9  A    between atoms: C_18  and  N_30 
REMARK   10  A    between atoms: O_22  and  C_29 
REMARK   11  A    between atoms: N_23  and  C_25 
REMARK       I    between atoms: N_23  and  C_27 
REMARK   12  A    between atoms: C_25  and  C_26 
ROOT
HETATM    1  C           1     -21.449  -7.733  -2.334  0.00  0.00     0.189 C 
ENDROOT
BRANCH   1   2
HETATM    2  C           1     -22.280  -7.750  -1.074  0.00  0.00     0.197 C 
HETATM    3  O           1     -22.581  -8.839  -0.538  0.00  0.00    -0.646 OA
HETATM    4  O           1     -22.669  -6.676  -0.568  0.00  0.00    -0.646 OA
ENDBRANCH   1   2
BRANCH   1   5
HETATM    5  N           1     -21.528  -6.422  -2.947  0.00  0.00    -0.344 N 
HETATM    6  H           1     -21.508  -5.590  -2.370  0.00  0.00     0.163 HD
HETATM    7  C           1     -21.629  -6.308  -4.307  0.00  0.00     0.249 C 
HETATM    8  O           1     -22.717  -6.285  -4.832  0.00  0.00    -0.271 OA
BRANCH   7   9
HETATM    9  C           1     -20.382  -6.211  -5.152  0.00  0.00     0.275 C 
BRANCH   9  10
HETATM   10  C           1     -20.411  -4.918  -5.956  0.00  0.00     0.053 C 
BRANCH  10  11
HETATM   11  C           1     -19.651  -5.113  -7.260  0.00  0.00     0.076 C 
BRANCH  11  12
HETATM   12  S           1     -20.699  -4.611  -8.655  0.00  0.00    -0.173 SA
HETATM   13  C           1     -22.132  -4.115  -7.657  0.00  0.00     0.089 C 
ENDBRANCH  11  12
ENDBRANCH  10  11
ENDBRANCH   9  10
BRANCH   9  14
HETATM   14  N           1     -20.321  -7.380  -6.088  0.00  0.00    -0.066 N 
HETATM   15  H           1     -19.500  -7.979  -5.846  0.00  0.00     0.275 HD
HETATM   16  H           1     -21.199  -7.941  -6.002  0.00  0.00     0.275 HD
HETATM   17  H           1     -20.223  -7.036  -7.071  0.00  0.00     0.275 HD
ENDBRANCH   9  14
ENDBRANCH   7   9
ENDBRANCH   1   5
BRANCH   1  18
HETATM   18  C           1     -19.999  -8.045  -1.989  0.00  0.00     0.074 C 
BRANCH  18  19
HETATM   19  C           1     -19.538  -9.224  -2.788  0.00  0.00    -0.056 A 
HETATM   20  C           1     -20.473 -10.092  -3.353  0.00  0.00     0.010 A 
HETATM   21  C           1     -20.043 -11.191  -4.098  0.00  0.00     0.038 A 
HETATM   22  C           1     -18.679 -11.423  -4.276  0.00  0.00     0.081 A 
HETATM   23  C           1     -17.745 -10.554  -3.711  0.00  0.00     0.038 A 
HETATM   24  C           1     -18.174  -9.456  -2.967  0.00  0.00     0.010 A 
BRANCH  22  25
HETATM   25  O           1     -18.262 -12.489  -4.999  0.00  0.00    -0.247 OA
BRANCH  25  26
HETATM   26  P           1     -17.824 -12.241  -6.534  0.00  0.00     0.411 P 
HETATM   27  O           1     -17.988 -13.495  -7.303  0.00  0.00    -0.624 OA
HETATM   28  O           1     -16.407 -11.817  -6.579  0.00  0.00    -0.624 OA
BRANCH  26  29
HETATM   29  O           1     -18.753 -11.090  -7.179  0.00  0.00    -0.300 OA
HETATM   30  H           1     -19.637 -11.377  -7.029  0.00  0.00     0.223 HD
ENDBRANCH  26  29
ENDBRANCH  25  26
ENDBRANCH  22  25
ENDBRANCH  18  19
ENDBRANCH   1  18
TORSDOF 12
ENDMDL
MODEL 5
REMARK VINA RESULT:      -6.2      4.168      7.504
REMARK  12 active torsions:
REMARK  status: ('A' for Active; 'I' for Inactive)
REMARK    1  A    between atoms: C_2  and  C_3 
REMARK    2  A    between atoms: C_2  and  S_11 
REMARK    3  A    between atoms: C_3  and  C_18 
REMARK    4  A    between atoms: C_5  and  C_26 
REMARK    5  A    between atoms: O_6  and  P_9 
REMARK    6  A    between atoms: P_9  and  O_22 
REMARK    7  A    between atoms: C_12  and  C_25 
REMARK    8  A    between atoms: C_18  and  C_27 
REMARK    9  A    between atoms: C_18  and  N_30 
REMARK   10  A    between atoms: O_22  and  C_29 
REMARK   11  A    between atoms: N_23  and  C_25 
REMARK       I    between atoms: N_23  and  C_27 
REMARK   12  A    between atoms: C_25  and  C_26 
ROOT
HETATM    1  C           1     -20.560  -7.340  -4.556  0.00  0.00     0.189 C 
ENDROOT
BRANCH   1   2
HETATM    2  C           1     -20.693  -6.297  -5.638  0.00  0.00     0.197 C 
HETATM    3  O           1     -20.634  -5.082  -5.347  0.00  0.00    -0.646 OA
HETATM    4  O           1     -20.862  -6.647  -6.826  0.00  0.00    -0.646 OA
ENDBRANCH   1   2
BRANCH   1   5
HETATM    5  N           1     -21.778  -7.377  -3.769  0.00  0.00    -0.344 N 
HETATM    6  H           1     -22.629  -7.752  -4.169  0.00  0.00     0.163 HD
HETATM    7  C           1     -21.777  -6.904  -2.484  0.00  0.00     0.249 C 
HETATM    8  O           1     -22.032  -5.743  -2.268  0.00  0.00    -0.271 OA
BRANCH   7   9
HETATM    9  C           1     -21.457  -7.833  -1.339  0.00  0.00     0.275 C 
BRANCH   9  10
HETATM   10  C           1     -21.916  -9.243  -1.684  0.00  0.00     0.053 C 
BRANCH  10  11
HETATM   11  C           1     -22.814  -9.772  -0.573  0.00  0.00     0.076 C 
BRANCH  11  12
HETATM   12  S           1     -22.146 -11.339   0.053  0.00  0.00    -0.173 SA
HETATM   13  C           1     -20.707 -10.620   0.894  0.00  0.00     0.089 C 
ENDBRANCH  11  12
ENDBRANCH  10  11
ENDBRANCH   9  10
BRANCH   9  14
HETATM   14  N           1     -22.167  -7.365  -0.104  0.00  0.00    -0.066 N 
HETATM   15  H           1     -23.109  -7.815  -0.051  0.00  0.00     0.275 HD
HETATM   16  H           1     -21.608  -7.627   0.739  0.00  0.00     0.275 HD
HETATM   17  H           1     -22.279  -6.326  -0.138  0.00  0.00     0.275 HD
ENDBRANCH   9  14
ENDBRANCH   7   9
ENDBRANCH   1   5
BRANCH   1  18
HETATM   18  C           1     -20.325  -8.704  -5.190  0.00  0.00     0.074 C 
BRANCH  18  19
HETATM   19  C           1     -18.980  -9.219  -4.784  0.00  0.00    -0.056 A 
HETATM   20  C           1     -18.649  -9.313  -3.432  0.00  0.00     0.010 A 
HETATM   21  C           1     -17.395  -9.794  -3.053  0.00  0.00     0.038 A 
HETATM   22  C           1     -16.472 -10.179  -4.025  0.00  0.00     0.081 A 
HETATM   23  C           1     -16.804 -10.085  -5.377  0.00  0.00     0.038 A 
HETATM   24  C           1     -18.057  -9.605  -5.756  0.00  0.00     0.010 A 
BRANCH  22  25
HETATM   25  O           1     -15.255 -10.645  -3.657  0.00  0.00    -0.247 OA
BRANCH  25  26
HETATM   26  P           1     -15.145 -12.184  -3.179  0.00  0.00     0.411 P 
HETATM   27  O           1     -15.386 -12.266  -1.721  0.00  0.00    -0.624 OA
HETATM   28  O           1     -13.792 -12.699  -3.484  0.00  0.00    -0.624 OA
BRANCH  26  29
HETATM   29  O           1     -16.249 -13.069  -3.957  0.00  0.00    -0.300 OA
HETATM   30  H           1     -17.021 -12.531  -3.980  0.00  0.00     0.223 HD
ENDBRANCH  26  29
ENDBRANCH  25  26
ENDBRANCH  22  25
ENDBRANCH  18  19
ENDBRANCH   1  18
TORSDOF 12
ENDMDL
MODEL 6
REMARK VINA RESULT:      -6.1      4.995      8.762
REMARK  12 active torsions:
REMARK  status: ('A' for Active; 'I' for Inactive)
REMARK    1  A    between atoms: C_2  and  C_3 
REMARK    2  A    between atoms: C_2  and  S_11 
REMARK    3  A    between atoms: C_3  and  C_18 
REMARK    4  A    between atoms: C_5  and  C_26 
REMARK    5  A    between atoms: O_6  and  P_9 
REMARK    6  A    between atoms: P_9  and  O_22 
REMARK    7  A    between atoms: C_12  and  C_25 
REMARK    8  A    between atoms: C_18  and  C_27 
REMARK    9  A    between atoms: C_18  and  N_30 
REMARK   10  A    between atoms: O_22  and  C_29 
REMARK   11  A    between atoms: N_23  and  C_25 
REMARK       I    between atoms: N_23  and  C_27 
REMARK   12  A    between atoms: C_25  and  C_26 
ROOT
HETATM    1  C           1     -21.143  -7.491  -5.247  0.00  0.00     0.189 C 
ENDROOT
BRANCH   1   2
HETATM    2  C           1     -21.945  -6.418  -4.553  0.00  0.00     0.197 C 
HETATM    3  O           1     -21.444  -5.778  -3.601  0.00  0.00    -0.646 OA
HETATM    4  O           1     -23.111  -6.168  -4.927  0.00  0.00    -0.646 OA
ENDBRANCH   1   2
BRANCH   1   5
HETATM    5  N           1     -20.286  -6.882  -6.246  0.00  0.00    -0.344 N 
HETATM    6  H           1     -19.543  -7.422  -6.672  0.00  0.00     0.163 HD
HETATM    7  C           1     -20.483  -5.579  -6.614  0.00  0.00     0.249 C 
HETATM    8  O           1     -19.912  -4.693  -6.023  0.00  0.00    -0.271 OA
BRANCH   7   9
HETATM    9  C           1     -21.412  -5.248  -7.755  0.00  0.00     0.275 C 
BRANCH   9  10
HETATM   10  C           1     -20.609  -4.674  -8.915  0.00  0.00     0.053 C 
BRANCH  10  11
HETATM   11  C           1     -21.475  -3.697  -9.700  0.00  0.00     0.076 C 
BRANCH  11  12
HETATM   12  S           1     -21.921  -4.432 -11.299  0.00  0.00    -0.173 SA
HETATM   13  C           1     -23.647  -4.799 -10.874  0.00  0.00     0.089 C 
ENDBRANCH  11  12
ENDBRANCH  10  11
ENDBRANCH   9  10
BRANCH   9  14
HETATM   14  N           1     -22.423  -4.239  -7.300  0.00  0.00    -0.066 N 
HETATM   15  H           1     -22.444  -4.213  -6.256  0.00  0.00     0.275 HD
HETATM   16  H           1     -22.163  -3.295  -7.667  0.00  0.00     0.275 HD
HETATM   17  H           1     -23.368  -4.504  -7.660  0.00  0.00     0.275 HD
ENDBRANCH   9  14
ENDBRANCH   7   9
ENDBRANCH   1   5
BRANCH   1  18
HETATM   18  C           1     -20.288  -8.227  -4.225  0.00  0.00     0.074 C 
BRANCH  18  19
HETATM   19  C           1     -21.170  -9.027  -3.319  0.00  0.00    -0.056 A 
HETATM   20  C           1     -21.953 -10.059  -3.839  0.00  0.00     0.010 A 
HETATM   21  C           1     -22.775 -10.805  -2.994  0.00  0.00     0.038 A 
HETATM   22  C           1     -22.816 -10.519  -1.630  0.00  0.00     0.081 A 
HETATM   23  C           1     -22.034  -9.488  -1.110  0.00  0.00     0.038 A 
HETATM   24  C           1     -21.212  -8.742  -1.954  0.00  0.00     0.010 A 
BRANCH  22  25
HETATM   25  O           1     -23.614 -11.243  -0.810  0.00  0.00    -0.247 OA
BRANCH  25  26
HETATM   26  P           1     -23.095 -12.697  -0.335  0.00  0.00     0.411 P 
HETATM   27  O           1     -23.417 -12.894   1.095  0.00  0.00    -0.624 OA
HETATM   28  O           1     -21.630 -12.782  -0.527  0.00  0.00    -0.624 OA
BRANCH  26  29
HETATM   29  O           1     -23.821 -13.841  -1.212  0.00  0.00    -0.300 OA
HETATM   30  H           1     -23.456 -14.652  -0.905  0.00  0.00     0.223 HD
ENDBRANCH  26  29
ENDBRANCH  25  26
ENDBRANCH  22  25
ENDBRANCH  18  19
ENDBRANCH   1  18
TORSDOF 12
ENDMDL
MODEL 7
REMARK VINA RESULT:      -6.1      5.265      7.400
REMARK  12 active torsions:
REMARK  status: ('A' for Active; 'I' for Inactive)
REMARK    1  A    between atoms: C_2  and  C_3 
REMARK    2  A    between atoms: C_2  and  S_11 
REMARK    3  A    between atoms: C_3  and  C_18 
REMARK    4  A    between atoms: C_5  and  C_26 
REMARK    5  A    between atoms: O_6  and  P_9 
REMARK    6  A    between atoms: P_9  and  O_22 
REMARK    7  A    between atoms: C_12  and  C_25 
REMARK    8  A    between atoms: C_18  and  C_27 
REMARK    9  A    between atoms: C_18  and  N_30 
REMARK   10  A    between atoms: O_22  and  C_29 
REMARK   11  A    between atoms: N_23  and  C_25 
REMARK       I    between atoms: N_23  and  C_27 
REMARK   12  A    between atoms: C_25  and  C_26 
ROOT
HETATM    1  C           1     -21.116  -7.851  -2.304  0.00  0.00     0.189 C 
ENDROOT
BRANCH   1   2
HETATM    2  C           1     -21.653  -6.496  -2.695  0.00  0.00     0.197 C 
HETATM    3  O           1     -21.121  -5.858  -3.629  0.00  0.00    -0.646 OA
HETATM    4  O           1     -22.629  -6.011  -2.084  0.00  0.00    -0.646 OA
ENDBRANCH   1   2
BRANCH   1   5
HETATM    5  N           1     -22.000  -8.457  -1.327  0.00  0.00    -0.344 N 
HETATM    6  H           1     -22.932  -8.744  -1.596  0.00  0.00     0.163 HD
HETATM    7  C           1     -21.572  -8.642  -0.040  0.00  0.00     0.249 C 
HETATM    8  O           1     -21.748  -7.777   0.785  0.00  0.00    -0.271 OA
BRANCH   7   9
HETATM    9  C           1     -20.880  -9.925   0.348  0.00  0.00     0.275 C 
BRANCH   9  10
HETATM   10  C           1     -21.855 -11.088   0.221  0.00  0.00     0.053 C 
BRANCH  10  11
HETATM   11  C           1     -21.433 -11.981  -0.939  0.00  0.00     0.076 C 
BRANCH  11  12
HETATM   12  S           1     -22.736 -11.991  -2.202  0.00  0.00    -0.173 SA
HETATM   13  C           1     -24.088 -11.494  -1.098  0.00  0.00     0.089 C 
ENDBRANCH  11  12
ENDBRANCH  10  11
ENDBRANCH   9  10
BRANCH   9  14
HETATM   14  N           1     -20.403  -9.826   1.767  0.00  0.00    -0.066 N 
HETATM   15  H           1     -20.141  -8.837   1.978  0.00  0.00     0.275 HD
HETATM   16  H           1     -21.167 -10.130   2.412  0.00  0.00     0.275 HD
HETATM   17  H           1     -19.569 -10.443   1.899  0.00  0.00     0.275 HD
ENDBRANCH   9  14
ENDBRANCH   7   9
ENDBRANCH   1   5
BRANCH   1  18
HETATM   18  C           1     -21.037  -8.741  -3.537  0.00  0.00     0.074 C 
BRANCH  18  19
HETATM   19  C           1     -19.611  -9.119  -3.790  0.00  0.00    -0.056 A 
HETATM   20  C           1     -19.166  -9.324  -5.096  0.00  0.00     0.010 A 
HETATM   21  C           1     -17.837  -9.677  -5.332  0.00  0.00     0.038 A 
HETATM   22  C           1     -16.954  -9.827  -4.263  0.00  0.00     0.081 A 
HETATM   23  C           1     -17.400  -9.622  -2.957  0.00  0.00     0.038 A 
HETATM   24  C           1     -18.728  -9.269  -2.721  0.00  0.00     0.010 A 
BRANCH  22  25
HETATM   25  O           1     -15.663 -10.169  -4.492  0.00  0.00    -0.247 OA
BRANCH  25  26
HETATM   26  P           1     -15.348 -11.694  -4.922  0.00  0.00     0.411 P 
HETATM   27  O           1     -16.395 -12.586  -4.377  0.00  0.00    -0.624 OA
HETATM   28  O           1     -14.030 -12.095  -4.383  0.00  0.00    -0.624 OA
BRANCH  26  29
HETATM   29  O           1     -15.331 -11.806  -6.532  0.00  0.00    -0.300 OA
HETATM   30  H           1     -16.189 -11.531  -6.805  0.00  0.00     0.223 HD
ENDBRANCH  26  29
ENDBRANCH  25  26
ENDBRANCH  22  25
ENDBRANCH  18  19
ENDBRANCH   1  18
TORSDOF 12
ENDMDL
MODEL 8
REMARK VINA RESULT:      -6.0      3.702      5.747
REMARK  12 active torsions:
REMARK  status: ('A' for Active; 'I' for Inactive)
REMARK    1  A    between atoms: C_2  and  C_3 
REMARK    2  A    between atoms: C_2  and  S_11 
REMARK    3  A    between atoms: C_3  and  C_18 
REMARK    4  A    between atoms: C_5  and  C_26 
REMARK    5  A    between atoms: O_6  and  P_9 
REMARK    6  A    between atoms: P_9  and  O_22 
REMARK    7  A    between atoms: C_12  and  C_25 
REMARK    8  A    between atoms: C_18  and  C_27 
REMARK    9  A    between atoms: C_18  and  N_30 
REMARK   10  A    between atoms: O_22  and  C_29 
REMARK   11  A    between atoms: N_23  and  C_25 
REMARK       I    between atoms: N_23  and  C_27 
REMARK   12  A    between atoms: C_25  and  C_26 
ROOT
HETATM    1  C           1     -20.513  -9.858  -1.670  0.00  0.00     0.189 C 
ENDROOT
BRANCH   1   2
HETATM    2  C           1     -20.937 -10.660  -0.464  0.00  0.00     0.197 C 
HETATM    3  O           1     -21.077 -10.097   0.644  0.00  0.00    -0.646 OA
HETATM    4  O           1     -21.148 -11.887  -0.572  0.00  0.00    -0.646 OA
ENDBRANCH   1   2
BRANCH   1   5
HETATM    5  N           1     -19.582 -10.636  -2.464  0.00  0.00    -0.344 N 
HETATM    6  H           1     -19.930 -11.280  -3.164  0.00  0.00     0.163 HD
HETATM    7  C           1     -18.235 -10.500  -2.269  0.00  0.00     0.249 C 
HETATM    8  O           1     -17.667 -11.203  -1.467  0.00  0.00    -0.271 OA
BRANCH   7   9
HETATM    9  C           1     -17.458  -9.472  -3.054  0.00  0.00     0.275 C 
BRANCH   9  10
HETATM   10  C           1     -17.726  -9.659  -4.542  0.00  0.00     0.053 C 
BRANCH  10  11
HETATM   11  C           1     -16.479 -10.211  -5.218  0.00  0.00     0.076 C 
BRANCH  11  12
HETATM   12  S           1     -16.907 -11.709  -6.150  0.00  0.00    -0.173 SA
HETATM   13  C           1     -18.707 -11.506  -6.035  0.00  0.00     0.089 C 
ENDBRANCH  11  12
ENDBRANCH  10  11
ENDBRANCH   9  10
BRANCH   9  14
HETATM   14  N           1     -15.993  -9.640  -2.786  0.00  0.00    -0.066 N 
HETATM   15  H           1     -15.450  -8.980  -3.388  0.00  0.00     0.275 HD
HETATM   16  H           1     -15.797  -9.436  -1.780  0.00  0.00     0.275 HD
HETATM   17  H           1     -15.709 -10.623  -3.004  0.00  0.00     0.275 HD
ENDBRANCH   9  14
ENDBRANCH   7   9
ENDBRANCH   1   5
BRANCH   1  18
HETATM   18  C           1     -21.735  -9.517  -2.510  0.00  0.00     0.074 C 
BRANCH  18  19
HETATM   19  C           1     -21.434  -8.332  -3.374  0.00  0.00    -0.056 A 
HETATM   20  C           1     -21.434  -7.050  -2.823  0.00  0.00     0.010 A 
HETATM   21  C           1     -21.153  -5.946  -3.628  0.00  0.00     0.038 A 
HETATM   22  C           1     -20.875  -6.122  -4.983  0.00  0.00     0.081 A 
HETATM   23  C           1     -20.876  -7.404  -5.533  0.00  0.00     0.038 A 
HETATM   24  C           1     -21.156  -8.509  -4.729  0.00  0.00     0.010 A 
BRANCH  22  25
HETATM   25  O           1     -20.603  -5.050  -5.765  0.00  0.00    -0.247 OA
BRANCH  25  26
HETATM   26  P           1     -21.665  -4.662  -6.917  0.00  0.00     0.411 P 
HETATM   27  O           1     -21.410  -5.484  -8.121  0.00  0.00    -0.624 OA
HETATM   28  O           1     -21.520  -3.230  -7.258  0.00  0.00    -0.624 OA
BRANCH  26  29
HETATM   29  O           1     -23.163  -4.941  -6.383  0.00  0.00    -0.300 OA
HETATM   30  H           1     -23.476  -4.104  -6.087  0.00  0.00     0.223 HD
ENDBRANCH  26  29
ENDBRANCH  25  26
ENDBRANCH  22  25
ENDBRANCH  18  19
ENDBRANCH   1  18
TORSDOF 12
ENDMDL
MODEL 9
REMARK VINA RESULT:      -5.7      2.545      3.369
REMARK  12 active torsions:
REMARK  status: ('A' for Active; 'I' for Inactive)
REMARK    1  A    between atoms: C_2  and  C_3 
REMARK    2  A    between atoms: C_2  and  S_11 
REMARK    3  A    between atoms: C_3  and  C_18 
REMARK    4  A    between atoms: C_5  and  C_26 
REMARK    5  A    between atoms: O_6  and  P_9 
REMARK    6  A    between atoms: P_9  and  O_22 
REMARK    7  A    between atoms: C_12  and  C_25 
REMARK    8  A    between atoms: C_18  and  C_27 
REMARK    9  A    between atoms: C_18  and  N_30 
REMARK   10  A    between atoms: O_22  and  C_29 
REMARK   11  A    between atoms: N_23  and  C_25 
REMARK       I    between atoms: N_23  and  C_27 
REMARK   12  A    between atoms: C_25  and  C_26 
ROOT
HETATM    1  C           1     -21.135  -9.845  -4.535  0.00  0.00     0.189 C 
ENDROOT
BRANCH   1   2
HETATM    2  C           1     -20.942 -10.811  -5.677  0.00  0.00     0.197 C 
HETATM    3  O           1     -21.824 -11.659  -5.936  0.00  0.00    -0.646 OA
HETATM    4  O           1     -19.899 -10.766  -6.365  0.00  0.00    -0.646 OA
ENDBRANCH   1   2
BRANCH   1   5
HETATM    5  N           1     -21.079 -10.566  -3.278  0.00  0.00    -0.344 N 
HETATM    6  H           1     -20.476 -11.373  -3.184  0.00  0.00     0.163 HD
HETATM    7  C           1     -21.841 -10.154  -2.218  0.00  0.00     0.249 C 
HETATM    8  O           1     -22.958 -10.593  -2.072  0.00  0.00    -0.271 OA
BRANCH   7   9
HETATM    9  C           1     -21.289  -9.153  -1.234  0.00  0.00     0.275 C 
BRANCH   9  10
HETATM   10  C           1     -21.574  -9.624   0.185  0.00  0.00     0.053 C 
BRANCH  10  11
HETATM   11  C           1     -20.590 -10.724   0.563  0.00  0.00     0.076 C 
BRANCH  11  12
HETATM   12  S           1     -21.484 -12.290   0.774  0.00  0.00    -0.173 SA
HETATM   13  C           1     -20.375 -13.292  -0.257  0.00  0.00     0.089 C 
ENDBRANCH  11  12
ENDBRANCH  10  11
ENDBRANCH   9  10
BRANCH   9  14
HETATM   14  N           1     -21.940  -7.821  -1.459  0.00  0.00    -0.066 N 
HETATM   15  H           1     -22.610  -7.625  -0.681  0.00  0.00     0.275 HD
HETATM   16  H           1     -21.208  -7.075  -1.484  0.00  0.00     0.275 HD
HETATM   17  H           1     -22.456  -7.833  -2.368  0.00  0.00     0.275 HD
ENDBRANCH   9  14
ENDBRANCH   7   9
ENDBRANCH   1   5
BRANCH   1  18
HETATM   18  C           1     -20.035  -8.794  -4.566  0.00  0.00     0.074 C 
BRANCH  18  19
HETATM   19  C           1     -20.554  -7.544  -5.207  0.00  0.00    -0.056 A 
HETATM   20  C           1     -21.872  -7.144  -4.985  0.00  0.00     0.010 A 
HETATM   21  C           1     -22.356  -5.980  -5.581  0.00  0.00     0.038 A 
HETATM   22  C           1     -21.524  -5.217  -6.400  0.00  0.00     0.081 A 
HETATM   23  C           1     -20.207  -5.618  -6.622  0.00  0.00     0.038 A 
HETATM   24  C           1     -19.722  -6.782  -6.026  0.00  0.00     0.010 A 
BRANCH  22  25
HETATM   25  O           1     -21.995  -4.086  -6.979  0.00  0.00    -0.247 OA
BRANCH  25  26
HETATM   26  P           1     -22.306  -4.119  -8.564  0.00  0.00     0.411 P 
HETATM   27  O           1     -22.563  -5.513  -8.988  0.00  0.00    -0.624 OA
HETATM   28  O           1     -21.141  -3.585  -9.305  0.00  0.00    -0.624 OA
BRANCH  26  29
HETATM   29  O           1     -23.605  -3.213  -8.876  0.00  0.00    -0.300 OA
HETATM   30  H           1     -23.269  -2.343  -9.009  0.00  0.00     0.223 HD
ENDBRANCH  26  29
ENDBRANCH  25  26
ENDBRANCH  22  25
ENDBRANCH  18  19
ENDBRANCH   1  18
TORSDOF 12
ENDMDL
