MODEL 1
REMARK VINA RESULT:      -6.0      0.000      0.000
REMARK  7 active torsions:
REMARK  status: ('A' for Active; 'I' for Inactive)
REMARK    1  A    between atoms: C_2  and  C_11 
REMARK    2  A    between atoms: C_3  and  C_10 
REMARK       I    between atoms: C_5  and  N_7 
REMARK    3  A    between atoms: C_5  and  C_6 
REMARK    4  A    between atoms: C_6  and  C_10 
REMARK    5  A    between atoms: C_6  and  N_9 
REMARK    6  A    between atoms: N_7  and  C_11 
REMARK    7  A    between atoms: C_11  and  C_15 
ROOT
HETATM    1  C           1     -22.063  -4.264  -7.271  0.00  0.00     0.249 C 
HETATM    2  N           1     -22.516  -4.644  -8.505  0.00  0.00    -0.344 N 
HETATM    3  O           1     -21.581  -3.168  -7.115  0.00  0.00    -0.271 OA
HETATM    4  H           1     -22.920  -5.563  -8.635  0.00  0.00     0.163 HD
ENDROOT
BRANCH   1   5
HETATM    5  C           1     -22.165  -5.217  -6.104  0.00  0.00     0.275 C 
BRANCH   5   6
HETATM    6  C           1     -21.311  -6.448  -6.376  0.00  0.00     0.046 C 
BRANCH   6   7
HETATM    7  C           1     -21.188  -7.274  -5.102  0.00  0.00    -0.020 C 
HETATM    8  C           1     -19.911  -8.101  -5.153  0.00  0.00     0.009 C 
HETATM    9  C           1     -21.141  -6.342  -3.898  0.00  0.00     0.009 C 
ENDBRANCH   6   7
ENDBRANCH   5   6
BRANCH   5  10
HETATM   10  N           1     -23.594  -5.630  -5.919  0.00  0.00    -0.066 N 
HETATM   11  H           1     -24.223  -4.864  -6.250  0.00  0.00     0.275 HD
HETATM   12  H           1     -23.775  -5.817  -4.907  0.00  0.00     0.275 HD
HETATM   13  H           1     -23.779  -6.498  -6.472  0.00  0.00     0.275 HD
ENDBRANCH   5  10
ENDBRANCH   1   5
BRANCH   2  14
HETATM   14  C           1     -22.419  -3.730  -9.627  0.00  0.00     0.189 C 
BRANCH  14  15
HETATM   15  C           1     -23.756  -3.640 -10.319  0.00  0.00     0.197 C 
HETATM   16  O           1     -24.664  -2.928  -9.837  0.00  0.00    -0.646 OA
HETATM   17  O           1     -23.958  -4.279 -11.375  0.00  0.00    -0.646 OA
ENDBRANCH  14  15
BRANCH  14  18
HETATM   18  C           1     -21.371  -4.240 -10.607  0.00  0.00     0.010 C 
HETATM   19  C           1     -20.188  -4.808  -9.836  0.00  0.00     0.012 C 
HETATM   20  C           1     -20.899  -3.091 -11.488  0.00  0.00     0.012 C 
ENDBRANCH  14  18
ENDBRANCH   2  14
TORSDOF 7
ENDMDL
MODEL 2
REMARK VINA RESULT:      -5.9      2.658      6.346
REMARK  7 active torsions:
REMARK  status: ('A' for Active; 'I' for Inactive)
REMARK    1  A    between atoms: C_2  and  C_11 
REMARK    2  A    between atoms: C_3  and  C_10 
REMARK       I    between atoms: C_5  and  N_7 
REMARK    3  A    between atoms: C_5  and  C_6 
REMARK    4  A    between atoms: C_6  and  C_10 
REMARK    5  A    between atoms: C_6  and  N_9 
REMARK    6  A    between atoms: N_7  and  C_11 
REMARK    7  A    between atoms: C_11  and  C_15 
ROOT
HETATM    1  C           1     -21.080  -5.350  -6.216  0.00  0.00     0.249 C 
HETATM    2  N           1     -21.576  -6.372  -5.454  0.00  0.00    -0.344 N 
HETATM    3  O           1     -19.902  -5.087  -6.182  0.00  0.00    -0.271 OA
HETATM    4  H           1     -22.564  -6.591  -5.483  0.00  0.00     0.163 HD
ENDROOT
BRANCH   1   5
HETATM    5  C           1     -22.006  -4.549  -7.100  0.00  0.00     0.275 C 
BRANCH   5   6
HETATM    6  C           1     -21.954  -5.098  -8.519  0.00  0.00     0.046 C 
BRANCH   6   7
HETATM    7  C           1     -21.640  -3.968  -9.491  0.00  0.00    -0.020 C 
HETATM    8  C           1     -20.428  -4.342 -10.333  0.00  0.00     0.009 C 
HETATM    9  C           1     -22.838  -3.735 -10.403  0.00  0.00     0.009 C 
ENDBRANCH   6   7
ENDBRANCH   5   6
BRANCH   5  10
HETATM   10  N           1     -21.575  -3.113  -7.104  0.00  0.00    -0.066 N 
HETATM   11  H           1     -21.020  -2.919  -7.968  0.00  0.00     0.275 HD
HETATM   12  H           1     -20.986  -2.923  -6.262  0.00  0.00     0.275 HD
HETATM   13  H           1     -22.418  -2.496  -7.086  0.00  0.00     0.275 HD
ENDBRANCH   5  10
ENDBRANCH   1   5
BRANCH   2  14
HETATM   14  C           1     -20.687  -7.141  -4.605  0.00  0.00     0.189 C 
BRANCH  14  15
HETATM   15  C           1     -20.286  -8.410  -5.316  0.00  0.00     0.197 C 
HETATM   16  O           1     -19.087  -8.616  -5.601  0.00  0.00    -0.646 OA
HETATM   17  O           1     -21.155  -9.256  -5.621  0.00  0.00    -0.646 OA
ENDBRANCH  14  15
BRANCH  14  18
HETATM   18  C           1     -21.402  -7.489  -3.306  0.00  0.00     0.010 C 
HETATM   19  C           1     -21.907  -6.213  -2.647  0.00  0.00     0.012 C 
HETATM   20  C           1     -20.434  -8.197  -2.367  0.00  0.00     0.012 C 
ENDBRANCH  14  18
ENDBRANCH   2  14
TORSDOF 7
ENDMDL
MODEL 3
REMARK VINA RESULT:      -5.8      2.959      6.541
REMARK  7 active torsions:
REMARK  status: ('A' for Active; 'I' for Inactive)
REMARK    1  A    between atoms: C_2  and  C_11 
REMARK    2  A    between atoms: C_3  and  C_10 
REMARK       I    between atoms: C_5  and  N_7 
REMARK    3  A    between atoms: C_5  and  C_6 
REMARK    4  A    between atoms: C_6  and  C_10 
REMARK    5  A    between atoms: C_6  and  N_9 
REMARK    6  A    between atoms: N_7  and  C_11 
REMARK    7  A    between atoms: C_11  and  C_15 
ROOT
HETATM    1  C           1     -21.707  -5.769  -5.538  0.00  0.00     0.249 C 
HETATM    2  N           1     -20.936  -6.533  -4.705  0.00  0.00    -0.344 N 
HETATM    3  O           1     -22.908  -5.889  -5.531  0.00  0.00    -0.271 OA
HETATM    4  H           1     -19.929  -6.432  -4.713  0.00  0.00     0.163 HD
ENDROOT
BRANCH   1   5
HETATM    5  C           1     -21.054  -4.775  -6.469  0.00  0.00     0.275 C 
BRANCH   5   6
HETATM    6  C           1     -21.208  -5.248  -7.908  0.00  0.00     0.046 C 
BRANCH   6   7
HETATM    7  C           1     -21.527  -4.058  -8.804  0.00  0.00    -0.020 C 
HETATM    8  C           1     -20.896  -4.268 -10.173  0.00  0.00     0.009 C 
HETATM    9  C           1     -23.038  -3.930  -8.956  0.00  0.00     0.009 C 
ENDBRANCH   6   7
ENDBRANCH   5   6
BRANCH   5  10
HETATM   10  N           1     -19.597  -4.659  -6.134  0.00  0.00    -0.066 N 
HETATM   11  H           1     -19.490  -4.431  -5.120  0.00  0.00     0.275 HD
HETATM   12  H           1     -19.167  -3.899  -6.708  0.00  0.00     0.275 HD
HETATM   13  H           1     -19.119  -5.565  -6.341  0.00  0.00     0.275 HD
ENDBRANCH   5  10
ENDBRANCH   1   5
BRANCH   2  14
HETATM   14  C           1     -21.562  -7.489  -3.811  0.00  0.00     0.189 C 
BRANCH  14  15
HETATM   15  C           1     -21.624  -6.909  -2.420  0.00  0.00     0.197 C 
HETATM   16  O           1     -22.339  -5.910  -2.189  0.00  0.00    -0.646 OA
HETATM   17  O           1     -20.958  -7.427  -1.497  0.00  0.00    -0.646 OA
ENDBRANCH  14  15
BRANCH  14  18
HETATM   18  C           1     -20.747  -8.775  -3.792  0.00  0.00     0.010 C 
HETATM   19  C           1     -19.597  -8.662  -4.783  0.00  0.00     0.012 C 
HETATM   20  C           1     -21.639  -9.947  -4.179  0.00  0.00     0.012 C 
ENDBRANCH  14  18
ENDBRANCH   2  14
TORSDOF 7
ENDMDL
MODEL 4
REMARK VINA RESULT:      -5.8      5.201      8.318
REMARK  7 active torsions:
REMARK  status: ('A' for Active; 'I' for Inactive)
REMARK    1  A    between atoms: C_2  and  C_11 
REMARK    2  A    between atoms: C_3  and  C_10 
REMARK       I    between atoms: C_5  and  N_7 
REMARK    3  A    between atoms: C_5  and  C_6 
REMARK    4  A    between atoms: C_6  and  C_10 
REMARK    5  A    between atoms: C_6  and  N_9 
REMARK    6  A    between atoms: N_7  and  C_11 
REMARK    7  A    between atoms: C_11  and  C_15 
ROOT
HETATM    1  C           1     -20.222  -8.617  -3.436  0.00  0.00     0.249 C 
HETATM    2  N           1     -21.402  -8.577  -2.745  0.00  0.00    -0.344 N 
HETATM    3  O           1     -19.208  -8.967  -2.881  0.00  0.00    -0.271 OA
HETATM    4  H           1     -22.252  -8.284  -3.211  0.00  0.00     0.163 HD
ENDROOT
BRANCH   1   5
HETATM    5  C           1     -20.186  -8.224  -4.894  0.00  0.00     0.275 C 
BRANCH   5   6
HETATM    6  C           1     -21.008  -6.958  -5.098  0.00  0.00     0.046 C 
BRANCH   6   7
HETATM    7  C           1     -20.282  -6.031  -6.064  0.00  0.00    -0.020 C 
HETATM    8  C           1     -21.085  -5.907  -7.352  0.00  0.00     0.009 C 
HETATM    9  C           1     -20.130  -4.656  -5.428  0.00  0.00     0.009 C 
ENDBRANCH   6   7
ENDBRANCH   5   6
BRANCH   5  10
HETATM   10  N           1     -20.760  -9.332  -5.724  0.00  0.00    -0.066 N 
HETATM   11  H           1     -21.799  -9.350  -5.611  0.00  0.00     0.275 HD
HETATM   12  H           1     -20.360 -10.245  -5.412  0.00  0.00     0.275 HD
HETATM   13  H           1     -20.522  -9.173  -6.730  0.00  0.00     0.275 HD
ENDBRANCH   5  10
ENDBRANCH   1   5
BRANCH   2  14
HETATM   14  C           1     -21.437  -8.955  -1.345  0.00  0.00     0.189 C 
BRANCH  14  15
HETATM   15  C           1     -21.929 -10.376  -1.221  0.00  0.00     0.197 C 
HETATM   16  O           1     -23.133 -10.641  -1.425  0.00  0.00    -0.646 OA
HETATM   17  O           1     -21.131 -11.289  -0.913  0.00  0.00    -0.646 OA
ENDBRANCH  14  15
BRANCH  14  18
HETATM   18  C           1     -22.376  -8.023  -0.592  0.00  0.00     0.010 C 
HETATM   19  C           1     -22.268  -6.618  -1.169  0.00  0.00     0.012 C 
HETATM   20  C           1     -21.990  -7.997   0.882  0.00  0.00     0.012 C 
ENDBRANCH  14  18
ENDBRANCH   2  14
TORSDOF 7
ENDMDL
MODEL 5
REMARK VINA RESULT:      -5.5      7.759      9.807
REMARK  7 active torsions:
REMARK  status: ('A' for Active; 'I' for Inactive)
REMARK    1  A    between atoms: C_2  and  C_11 
REMARK    2  A    between atoms: C_3  and  C_10 
REMARK       I    between atoms: C_5  and  N_7 
REMARK    3  A    between atoms: C_5  and  C_6 
REMARK    4  A    between atoms: C_6  and  C_10 
REMARK    5  A    between atoms: C_6  and  N_9 
REMARK    6  A    between atoms: N_7  and  C_11 
REMARK    7  A    between atoms: C_11  and  C_15 
ROOT
HETATM    1  C           1     -23.126 -10.972  -1.753  0.00  0.00     0.249 C 
HETATM    2  N           1     -22.522 -10.019  -0.978  0.00  0.00    -0.344 N 
HETATM    3  O           1     -23.019 -10.931  -2.955  0.00  0.00    -0.271 OA
HETATM    4  H           1     -22.612 -10.054   0.029  0.00  0.00     0.163 HD
ENDROOT
BRANCH   1   5
HETATM    5  C           1     -23.927 -12.075  -1.104  0.00  0.00     0.275 C 
BRANCH   5   6
HETATM    6  C           1     -23.711 -12.041   0.403  0.00  0.00     0.046 C 
BRANCH   6   7
HETATM    7  C           1     -22.862 -13.235   0.822  0.00  0.00    -0.020 C 
HETATM    8  C           1     -21.441 -12.772   1.112  0.00  0.00     0.009 C 
HETATM    9  C           1     -23.456 -13.863   2.076  0.00  0.00     0.009 C 
ENDBRANCH   6   7
ENDBRANCH   5   6
BRANCH   5  10
HETATM   10  N           1     -23.480 -13.401  -1.643  0.00  0.00    -0.066 N 
HETATM   11  H           1     -24.022 -13.626  -2.507  0.00  0.00     0.275 HD
HETATM   12  H           1     -23.646 -14.143  -0.926  0.00  0.00     0.275 HD
HETATM   13  H           1     -22.461 -13.358  -1.871  0.00  0.00     0.275 HD
ENDBRANCH   5  10
ENDBRANCH   1   5
BRANCH   2  14
HETATM   14  C           1     -21.753  -8.959  -1.601  0.00  0.00     0.189 C 
BRANCH  14  15
HETATM   15  C           1     -20.311  -9.386  -1.716  0.00  0.00     0.197 C 
HETATM   16  O           1     -19.894 -10.366  -1.061  0.00  0.00    -0.646 OA
HETATM   17  O           1     -19.531  -8.760  -2.466  0.00  0.00    -0.646 OA
ENDBRANCH  14  15
BRANCH  14  18
HETATM   18  C           1     -21.845  -7.699  -0.751  0.00  0.00     0.010 C 
HETATM   19  C           1     -22.887  -7.898   0.340  0.00  0.00     0.012 C 
HETATM   20  C           1     -22.248  -6.522  -1.630  0.00  0.00     0.012 C 
ENDBRANCH  14  18
ENDBRANCH   2  14
TORSDOF 7
ENDMDL
MODEL 6
REMARK VINA RESULT:      -5.4      6.034      9.278
REMARK  7 active torsions:
REMARK  status: ('A' for Active; 'I' for Inactive)
REMARK    1  A    between atoms: C_2  and  C_11 
REMARK    2  A    between atoms: C_3  and  C_10 
REMARK       I    between atoms: C_5  and  N_7 
REMARK    3  A    between atoms: C_5  and  C_6 
REMARK    4  A    between atoms: C_6  and  C_10 
REMARK    5  A    between atoms: C_6  and  N_9 
REMARK    6  A    between atoms: N_7  and  C_11 
REMARK    7  A    between atoms: C_11  and  C_15 
ROOT
HETATM    1  C           1     -22.290  -7.684  -1.093  0.00  0.00     0.249 C 
HETATM    2  N           1     -22.007  -8.997  -1.356  0.00  0.00    -0.344 N 
HETATM    3  O           1     -22.573  -7.339   0.029  0.00  0.00    -0.271 OA
HETATM    4  H           1     -21.769  -9.285  -2.297  0.00  0.00     0.163 HD
ENDROOT
BRANCH   1   5
HETATM    5  C           1     -22.248  -6.665  -2.207  0.00  0.00     0.275 C 
BRANCH   5   6
HETATM    6  C           1     -21.107  -6.999  -3.158  0.00  0.00     0.046 C 
BRANCH   6   7
HETATM    7  C           1     -21.557  -6.762  -4.595  0.00  0.00    -0.020 C 
HETATM    8  C           1     -20.771  -5.603  -5.190  0.00  0.00     0.009 C 
HETATM    9  C           1     -21.306  -8.019  -5.417  0.00  0.00     0.009 C 
ENDBRANCH   6   7
ENDBRANCH   5   6
BRANCH   5  10
HETATM   10  N           1     -22.032  -5.300  -1.627  0.00  0.00    -0.066 N 
HETATM   11  H           1     -22.342  -5.292  -0.629  0.00  0.00     0.275 HD
HETATM   12  H           1     -22.587  -4.599  -2.169  0.00  0.00     0.275 HD
HETATM   13  H           1     -21.017  -5.056  -1.679  0.00  0.00     0.275 HD
ENDBRANCH   5  10
ENDBRANCH   1   5
BRANCH   2  14
HETATM   14  C           1     -22.046  -9.976  -0.286  0.00  0.00     0.189 C 
BRANCH  14  15
HETATM   15  C           1     -20.643 -10.430   0.031  0.00  0.00     0.197 C 
HETATM   16  O           1     -19.860 -10.735  -0.894  0.00  0.00    -0.646 OA
HETATM   17  O           1     -20.264 -10.502   1.220  0.00  0.00    -0.646 OA
ENDBRANCH  14  15
BRANCH  14  18
HETATM   18  C           1     -22.882 -11.171  -0.724  0.00  0.00     0.010 C 
HETATM   19  C           1     -23.101 -11.114  -2.230  0.00  0.00     0.012 C 
HETATM   20  C           1     -24.229 -11.136  -0.014  0.00  0.00     0.012 C 
ENDBRANCH  14  18
ENDBRANCH   2  14
TORSDOF 7
ENDMDL
MODEL 7
REMARK VINA RESULT:      -5.4      5.729      7.775
REMARK  7 active torsions:
REMARK  status: ('A' for Active; 'I' for Inactive)
REMARK    1  A    between atoms: C_2  and  C_11 
REMARK    2  A    between atoms: C_3  and  C_10 
REMARK       I    between atoms: C_5  and  N_7 
REMARK    3  A    between atoms: C_5  and  C_6 
REMARK    4  A    between atoms: C_6  and  C_10 
REMARK    5  A    between atoms: C_6  and  N_9 
REMARK    6  A    between atoms: N_7  and  C_11 
REMARK    7  A    between atoms: C_11  and  C_15 
ROOT
HETATM    1  C           1     -20.907  -9.376  -1.308  0.00  0.00     0.249 C 
HETATM    2  N           1     -21.682  -8.590  -2.116  0.00  0.00    -0.344 N 
HETATM    3  O           1     -19.705  -9.366  -1.427  0.00  0.00    -0.271 OA
HETATM    4  H           1     -22.689  -8.599  -2.016  0.00  0.00     0.163 HD
ENDROOT
BRANCH   1   5
HETATM    5  C           1     -21.554 -10.259  -0.268  0.00  0.00     0.275 C 
BRANCH   5   6
HETATM    6  C           1     -23.009  -9.847  -0.086  0.00  0.00     0.046 C 
BRANCH   6   7
HETATM    7  C           1     -23.911 -11.052  -0.320  0.00  0.00    -0.020 C 
HETATM    8  C           1     -23.822 -11.480  -1.778  0.00  0.00     0.009 C 
HETATM    9  C           1     -23.464 -12.201   0.573  0.00  0.00     0.009 C 
ENDBRANCH   6   7
ENDBRANCH   5   6
BRANCH   5  10
HETATM   10  N           1     -20.827 -10.112   1.035  0.00  0.00    -0.066 N 
HETATM   11  H           1     -20.583  -9.106   1.186  0.00  0.00     0.275 HD
HETATM   12  H           1     -19.952 -10.682   1.012  0.00  0.00     0.275 HD
HETATM   13  H           1     -21.439 -10.443   1.815  0.00  0.00     0.275 HD
ENDBRANCH   5  10
ENDBRANCH   1   5
BRANCH   2  14
HETATM   14  C           1     -21.061  -7.742  -3.115  0.00  0.00     0.189 C 
BRANCH  14  15
HETATM   15  C           1     -21.831  -6.450  -3.227  0.00  0.00     0.197 C 
HETATM   16  O           1     -22.304  -5.913  -2.202  0.00  0.00    -0.646 OA
HETATM   17  O           1     -21.997  -5.916  -4.345  0.00  0.00    -0.646 OA
ENDBRANCH  14  15
BRANCH  14  18
HETATM   18  C           1     -21.067  -8.456  -4.461  0.00  0.00     0.010 C 
HETATM   19  C           1     -21.782  -9.793  -4.322  0.00  0.00     0.012 C 
HETATM   20  C           1     -19.632  -8.692  -4.915  0.00  0.00     0.012 C 
ENDBRANCH  14  18
ENDBRANCH   2  14
TORSDOF 7
ENDMDL
MODEL 8
REMARK VINA RESULT:      -5.3      5.662      8.011
REMARK  7 active torsions:
REMARK  status: ('A' for Active; 'I' for Inactive)
REMARK    1  A    between atoms: C_2  and  C_11 
REMARK    2  A    between atoms: C_3  and  C_10 
REMARK       I    between atoms: C_5  and  N_7 
REMARK    3  A    between atoms: C_5  and  C_6 
REMARK    4  A    between atoms: C_6  and  C_10 
REMARK    5  A    between atoms: C_6  and  N_9 
REMARK    6  A    between atoms: N_7  and  C_11 
REMARK    7  A    between atoms: C_11  and  C_15 
ROOT
HETATM    1  C           1     -22.034  -9.849  -2.009  0.00  0.00     0.249 C 
HETATM    2  N           1     -21.361  -8.707  -2.348  0.00  0.00    -0.344 N 
HETATM    3  O           1     -22.504 -10.552  -2.871  0.00  0.00    -0.271 OA
HETATM    4  H           1     -20.967  -8.118  -1.625  0.00  0.00     0.163 HD
ENDROOT
BRANCH   1   5
HETATM    5  C           1     -22.189 -10.230  -0.556  0.00  0.00     0.275 C 
BRANCH   5   6
HETATM    6  C           1     -23.627 -10.658  -0.294  0.00  0.00     0.046 C 
BRANCH   6   7
HETATM    7  C           1     -23.646 -12.099   0.199  0.00  0.00    -0.020 C 
HETATM    8  C           1     -23.992 -13.028  -0.956  0.00  0.00     0.009 C 
HETATM    9  C           1     -22.274 -12.464   0.750  0.00  0.00     0.009 C 
ENDBRANCH   6   7
ENDBRANCH   5   6
BRANCH   5  10
HETATM   10  N           1     -21.854  -9.051   0.308  0.00  0.00    -0.066 N 
HETATM   11  H           1     -22.155  -9.243   1.290  0.00  0.00     0.275 HD
HETATM   12  H           1     -22.352  -8.204  -0.049  0.00  0.00     0.275 HD
HETATM   13  H           1     -20.823  -8.884   0.285  0.00  0.00     0.275 HD
ENDBRANCH   5  10
ENDBRANCH   1   5
BRANCH   2  14
HETATM   14  C           1     -21.211  -8.340  -3.744  0.00  0.00     0.189 C 
BRANCH  14  15
HETATM   15  C           1     -19.857  -8.786  -4.238  0.00  0.00     0.197 C 
HETATM   16  O           1     -19.674  -8.999  -5.455  0.00  0.00    -0.646 OA
HETATM   17  O           1     -18.918  -8.944  -3.428  0.00  0.00    -0.646 OA
ENDBRANCH  14  15
BRANCH  14  18
HETATM   18  C           1     -21.333  -6.829  -3.887  0.00  0.00     0.010 C 
HETATM   19  C           1     -21.775  -6.227  -2.560  0.00  0.00     0.012 C 
HETATM   20  C           1     -22.362  -6.502  -4.961  0.00  0.00     0.012 C 
ENDBRANCH  14  18
ENDBRANCH   2  14
TORSDOF 7
ENDMDL
MODEL 9
REMARK VINA RESULT:      -5.3      8.076      9.380
REMARK  7 active torsions:
REMARK  status: ('A' for Active; 'I' for Inactive)
REMARK    1  A    between atoms: C_2  and  C_11 
REMARK    2  A    between atoms: C_3  and  C_10 
REMARK       I    between atoms: C_5  and  N_7 
REMARK    3  A    between atoms: C_5  and  C_6 
REMARK    4  A    between atoms: C_6  and  C_10 
REMARK    5  A    between atoms: C_6  and  N_9 
REMARK    6  A    between atoms: N_7  and  C_11 
REMARK    7  A    between atoms: C_11  and  C_15 
ROOT
HETATM    1  C           1     -20.004 -10.171  -1.962  0.00  0.00     0.249 C 
HETATM    2  N           1     -21.241  -9.619  -1.769  0.00  0.00    -0.344 N 
HETATM    3  O           1     -19.529 -10.900  -1.125  0.00  0.00    -0.271 OA
HETATM    4  H           1     -21.638  -9.008  -2.471  0.00  0.00     0.163 HD
ENDROOT
BRANCH   1   5
HETATM    5  C           1     -19.232  -9.868  -3.224  0.00  0.00     0.275 C 
BRANCH   5   6
HETATM    6  C           1     -17.835  -9.384  -2.861  0.00  0.00     0.046 C 
BRANCH   6   7
HETATM    7  C           1     -16.806 -10.412  -3.315  0.00  0.00    -0.020 C 
HETATM    8  C           1     -15.965  -9.826  -4.441  0.00  0.00     0.009 C 
HETATM    9  C           1     -15.903 -10.776  -2.144  0.00  0.00     0.009 C 
ENDBRANCH   6   7
ENDBRANCH   5   6
BRANCH   5  10
HETATM   10  N           1     -19.943  -8.803  -4.002  0.00  0.00    -0.066 N 
HETATM   11  H           1     -20.288  -8.065  -3.346  0.00  0.00     0.275 HD
HETATM   12  H           1     -20.754  -9.223  -4.509  0.00  0.00     0.275 HD
HETATM   13  H           1     -19.284  -8.376  -4.692  0.00  0.00     0.275 HD
ENDBRANCH   5  10
ENDBRANCH   1   5
BRANCH   2  14
HETATM   14  C           1     -21.984  -9.909  -0.557  0.00  0.00     0.189 C 
BRANCH  14  15
HETATM   15  C           1     -23.258 -10.635  -0.910  0.00  0.00     0.197 C 
HETATM   16  O           1     -24.164 -10.759  -0.059  0.00  0.00    -0.646 OA
HETATM   17  O           1     -23.407 -11.113  -2.056  0.00  0.00    -0.646 OA
ENDBRANCH  14  15
BRANCH  14  18
HETATM   18  C           1     -22.320  -8.605   0.156  0.00  0.00     0.010 C 
HETATM   19  C           1     -22.238  -7.451  -0.833  0.00  0.00     0.012 C 
HETATM   20  C           1     -21.328  -8.376   1.289  0.00  0.00     0.012 C 
ENDBRANCH  14  18
ENDBRANCH   2  14
TORSDOF 7
ENDMDL
