MODEL 1
REMARK VINA RESULT:      -6.3      0.000      0.000
REMARK  10 active torsions:
REMARK  status: ('A' for Active; 'I' for Inactive)
REMARK    1  A    between atoms: N_1  and  C_7 
REMARK    2  A    between atoms: C_4  and  C_5 
REMARK    3  A    between atoms: C_4  and  C_14 
REMARK    4  A    between atoms: C_5  and  C_6 
REMARK    5  A    between atoms: C_6  and  N_20 
REMARK    6  A    between atoms: C_7  and  C_19 
REMARK    7  A    between atoms: C_7  and  C_8 
REMARK    8  A    between atoms: C_14  and  C_17 
REMARK    9  A    between atoms: C_16  and  C_17 
REMARK   10  A    between atoms: C_17  and  N_24 
REMARK       I    between atoms: C_19  and  N_24 
ROOT
HETATM    1  C           1     -35.699  -0.416 -11.992  0.00  0.00     0.185 C 
ENDROOT
BRANCH   1   2
HETATM    2  C           1     -36.163   0.393 -13.196  0.00  0.00     0.036 C 
BRANCH   2   3
HETATM    3  C           1     -34.951   0.876 -13.981  0.00  0.00     0.004 C 
BRANCH   3   4
HETATM    4  C           1     -35.283   0.892 -15.468  0.00  0.00     0.027 C 
BRANCH   4   5
HETATM    5  C           1     -36.472  -0.021 -15.734  0.00  0.00     0.229 C 
BRANCH   5   6
HETATM    6  N           1     -36.326  -0.653 -17.086  0.00  0.00    -0.079 N 
HETATM    7  H           1     -35.475  -1.257 -17.098  0.00  0.00     0.274 HD
HETATM    8  H           1     -36.236   0.094 -17.812  0.00  0.00     0.274 HD
HETATM    9  H           1     -37.169  -1.236 -17.291  0.00  0.00     0.274 HD
ENDBRANCH   5   6
ENDBRANCH   4   5
ENDBRANCH   3   4
ENDBRANCH   2   3
ENDBRANCH   1   2
BRANCH   1  10
HETATM   10  C           1     -36.732  -0.325 -10.895  0.00  0.00     0.196 C 
HETATM   11  O           1     -37.751  -1.048 -10.936  0.00  0.00    -0.646 OA
HETATM   12  O           1     -36.568   0.472  -9.946  0.00  0.00    -0.646 OA
ENDBRANCH   1  10
BRANCH   1  13
HETATM   13  N           1     -35.527  -1.803 -12.379  0.00  0.00    -0.345 N 
HETATM   14  C           1     -34.479  -2.528 -11.880  0.00  0.00     0.249 C 
HETATM   15  O           1     -33.697  -2.013 -11.117  0.00  0.00    -0.271 OA
HETATM   16  H           1     -36.183  -2.235 -13.018  0.00  0.00     0.163 HD
BRANCH  14  17
HETATM   17  C           1     -34.301  -3.972 -12.283  0.00  0.00     0.278 C 
BRANCH  17  18
HETATM   18  N           1     -33.836  -4.038 -13.708  0.00  0.00    -0.066 N 
HETATM   19  H           1     -34.579  -4.479 -14.296  0.00  0.00     0.275 HD
HETATM   20  H           1     -33.646  -3.071 -14.056  0.00  0.00     0.275 HD
HETATM   21  H           1     -32.963  -4.609 -13.763  0.00  0.00     0.275 HD
ENDBRANCH  17  18
BRANCH  17  22
HETATM   22  C           1     -33.262  -4.626 -11.381  0.00  0.00     0.017 C 
HETATM   23  C           1     -31.962  -4.811 -12.154  0.00  0.00     0.012 C 
HETATM   24  C           1     -33.774  -5.984 -10.918  0.00  0.00     0.012 C 
ENDBRANCH  17  22
ENDBRANCH  14  17
ENDBRANCH   1  13
TORSDOF 10
ENDMDL
MODEL 2
REMARK VINA RESULT:      -6.2      1.551      5.193
REMARK  10 active torsions:
REMARK  status: ('A' for Active; 'I' for Inactive)
REMARK    1  A    between atoms: N_1  and  C_7 
REMARK    2  A    between atoms: C_4  and  C_5 
REMARK    3  A    between atoms: C_4  and  C_14 
REMARK    4  A    between atoms: C_5  and  C_6 
REMARK    5  A    between atoms: C_6  and  N_20 
REMARK    6  A    between atoms: C_7  and  C_19 
REMARK    7  A    between atoms: C_7  and  C_8 
REMARK    8  A    between atoms: C_14  and  C_17 
REMARK    9  A    between atoms: C_16  and  C_17 
REMARK   10  A    between atoms: C_17  and  N_24 
REMARK       I    between atoms: C_19  and  N_24 
ROOT
HETATM    1  C           1     -35.291  -1.794 -11.576  0.00  0.00     0.185 C 
ENDROOT
BRANCH   1   2
HETATM    2  C           1     -33.903  -1.832 -10.951  0.00  0.00     0.036 C 
BRANCH   2   3
HETATM    3  C           1     -33.252  -3.178 -11.241  0.00  0.00     0.004 C 
BRANCH   3   4
HETATM    4  C           1     -34.007  -4.278 -10.504  0.00  0.00     0.027 C 
BRANCH   4   5
HETATM    5  C           1     -34.044  -5.533 -11.365  0.00  0.00     0.229 C 
BRANCH   5   6
HETATM    6  N           1     -34.655  -5.210 -12.697  0.00  0.00    -0.079 N 
HETATM    7  H           1     -34.777  -4.176 -12.782  0.00  0.00     0.274 HD
HETATM    8  H           1     -35.585  -5.680 -12.776  0.00  0.00     0.274 HD
HETATM    9  H           1     -34.028  -5.550 -13.460  0.00  0.00     0.274 HD
ENDBRANCH   5   6
ENDBRANCH   4   5
ENDBRANCH   3   4
ENDBRANCH   2   3
ENDBRANCH   1   2
BRANCH   1  10
HETATM   10  C           1     -36.292  -1.317 -10.553  0.00  0.00     0.196 C 
HETATM   11  O           1     -37.516  -1.438 -10.773  0.00  0.00    -0.646 OA
HETATM   12  O           1     -35.896  -0.801  -9.485  0.00  0.00    -0.646 OA
ENDBRANCH   1  10
BRANCH   1  13
HETATM   13  N           1     -35.287  -0.885 -12.706  0.00  0.00    -0.345 N 
HETATM   14  C           1     -35.069  -1.365 -13.970  0.00  0.00     0.249 C 
HETATM   15  O           1     -34.881  -2.546 -14.143  0.00  0.00    -0.271 OA
HETATM   16  H           1     -35.444   0.104 -12.561  0.00  0.00     0.163 HD
BRANCH  14  17
HETATM   17  C           1     -35.064  -0.419 -15.146  0.00  0.00     0.278 C 
BRANCH  17  18
HETATM   18  N           1     -35.151  -1.207 -16.419  0.00  0.00    -0.066 N 
HETATM   19  H           1     -34.195  -1.523 -16.699  0.00  0.00     0.275 HD
HETATM   20  H           1     -35.764  -2.040 -16.271  0.00  0.00     0.275 HD
HETATM   21  H           1     -35.554  -0.606 -17.173  0.00  0.00     0.275 HD
ENDBRANCH  17  18
BRANCH  17  22
HETATM   22  C           1     -36.260   0.520 -15.048  0.00  0.00     0.017 C 
HETATM   23  C           1     -37.470  -0.129 -15.707  0.00  0.00     0.012 C 
HETATM   24  C           1     -35.938   1.829 -15.756  0.00  0.00     0.012 C 
ENDBRANCH  17  22
ENDBRANCH  14  17
ENDBRANCH   1  13
TORSDOF 10
ENDMDL
MODEL 3
REMARK VINA RESULT:      -6.0      1.940      6.191
REMARK  10 active torsions:
REMARK  status: ('A' for Active; 'I' for Inactive)
REMARK    1  A    between atoms: N_1  and  C_7 
REMARK    2  A    between atoms: C_4  and  C_5 
REMARK    3  A    between atoms: C_4  and  C_14 
REMARK    4  A    between atoms: C_5  and  C_6 
REMARK    5  A    between atoms: C_6  and  N_20 
REMARK    6  A    between atoms: C_7  and  C_19 
REMARK    7  A    between atoms: C_7  and  C_8 
REMARK    8  A    between atoms: C_14  and  C_17 
REMARK    9  A    between atoms: C_16  and  C_17 
REMARK   10  A    between atoms: C_17  and  N_24 
REMARK       I    between atoms: C_19  and  N_24 
ROOT
HETATM    1  C           1     -35.003  -2.660 -11.862  0.00  0.00     0.185 C 
ENDROOT
BRANCH   1   2
HETATM    2  C           1     -34.321  -4.021 -11.907  0.00  0.00     0.036 C 
BRANCH   2   3
HETATM    3  C           1     -34.962  -4.946 -10.882  0.00  0.00     0.004 C 
BRANCH   3   4
HETATM    4  C           1     -34.014  -6.098 -10.573  0.00  0.00     0.027 C 
BRANCH   4   5
HETATM    5  C           1     -34.803  -7.263  -9.991  0.00  0.00     0.229 C 
BRANCH   5   6
HETATM    6  N           1     -34.076  -8.547 -10.264  0.00  0.00    -0.079 N 
HETATM    7  H           1     -33.418  -8.749  -9.479  0.00  0.00     0.274 HD
HETATM    8  H           1     -33.539  -8.459 -11.157  0.00  0.00     0.274 HD
HETATM    9  H           1     -34.766  -9.327 -10.349  0.00  0.00     0.274 HD
ENDBRANCH   5   6
ENDBRANCH   4   5
ENDBRANCH   3   4
ENDBRANCH   2   3
ENDBRANCH   1   2
BRANCH   1  10
HETATM   10  C           1     -34.480  -1.873 -10.686  0.00  0.00     0.196 C 
HETATM   11  O           1     -33.250  -1.816 -10.471  0.00  0.00    -0.646 OA
HETATM   12  O           1     -35.275  -1.277  -9.928  0.00  0.00    -0.646 OA
ENDBRANCH   1  10
BRANCH   1  13
HETATM   13  N           1     -34.725  -1.939 -13.088  0.00  0.00    -0.345 N 
HETATM   14  C           1     -35.679  -1.126 -13.637  0.00  0.00     0.249 C 
HETATM   15  O           1     -36.755  -1.009 -13.099  0.00  0.00    -0.271 OA
HETATM   16  H           1     -33.823  -2.037 -13.539  0.00  0.00     0.163 HD
BRANCH  14  17
HETATM   17  C           1     -35.389  -0.375 -14.913  0.00  0.00     0.278 C 
BRANCH  17  18
HETATM   18  N           1     -35.112  -1.354 -16.016  0.00  0.00    -0.066 N 
HETATM   19  H           1     -34.185  -1.807 -15.854  0.00  0.00     0.275 HD
HETATM   20  H           1     -35.859  -2.085 -16.027  0.00  0.00     0.275 HD
HETATM   21  H           1     -35.101  -0.852 -16.932  0.00  0.00     0.275 HD
ENDBRANCH  17  18
BRANCH  17  22
HETATM   22  C           1     -36.594   0.479 -15.285  0.00  0.00     0.017 C 
HETATM   23  C           1     -37.472  -0.282 -16.270  0.00  0.00     0.012 C 
HETATM   24  C           1     -36.120   1.776 -15.927  0.00  0.00     0.012 C 
ENDBRANCH  17  22
ENDBRANCH  14  17
ENDBRANCH   1  13
TORSDOF 10
ENDMDL
MODEL 4
REMARK VINA RESULT:      -5.8      2.369      6.662
REMARK  10 active torsions:
REMARK  status: ('A' for Active; 'I' for Inactive)
REMARK    1  A    between atoms: N_1  and  C_7 
REMARK    2  A    between atoms: C_4  and  C_5 
REMARK    3  A    between atoms: C_4  and  C_14 
REMARK    4  A    between atoms: C_5  and  C_6 
REMARK    5  A    between atoms: C_6  and  N_20 
REMARK    6  A    between atoms: C_7  and  C_19 
REMARK    7  A    between atoms: C_7  and  C_8 
REMARK    8  A    between atoms: C_14  and  C_17 
REMARK    9  A    between atoms: C_16  and  C_17 
REMARK   10  A    between atoms: C_17  and  N_24 
REMARK       I    between atoms: C_19  and  N_24 
ROOT
HETATM    1  C           1     -34.432  -3.950 -11.236  0.00  0.00     0.185 C 
ENDROOT
BRANCH   1   2
HETATM    2  C           1     -35.101  -5.317 -11.187  0.00  0.00     0.036 C 
BRANCH   2   3
HETATM    3  C           1     -34.140  -6.333 -10.583  0.00  0.00     0.004 C 
BRANCH   3   4
HETATM    4  C           1     -34.896  -7.611 -10.245  0.00  0.00     0.027 C 
BRANCH   4   5
HETATM    5  C           1     -33.966  -8.576  -9.523  0.00  0.00     0.229 C 
BRANCH   5   6
HETATM    6  N           1     -33.428  -9.579 -10.500  0.00  0.00    -0.079 N 
HETATM    7  H           1     -32.670 -10.135 -10.046  0.00  0.00     0.274 HD
HETATM    8  H           1     -33.043  -9.080 -11.335  0.00  0.00     0.274 HD
HETATM    9  H           1     -34.196 -10.220 -10.802  0.00  0.00     0.274 HD
ENDBRANCH   5   6
ENDBRANCH   4   5
ENDBRANCH   3   4
ENDBRANCH   2   3
ENDBRANCH   1   2
BRANCH   1  10
HETATM   10  C           1     -33.311  -3.972 -12.244  0.00  0.00     0.196 C 
HETATM   11  O           1     -33.569  -3.915 -13.466  0.00  0.00    -0.646 OA
HETATM   12  O           1     -32.124  -4.048 -11.859  0.00  0.00    -0.646 OA
ENDBRANCH   1  10
BRANCH   1  13
HETATM   13  N           1     -35.408  -2.949 -11.621  0.00  0.00    -0.345 N 
HETATM   14  C           1     -35.420  -1.730 -10.999  0.00  0.00     0.249 C 
HETATM   15  O           1     -34.618  -1.487 -10.129  0.00  0.00    -0.271 OA
HETATM   16  H           1     -36.081  -3.152 -12.350  0.00  0.00     0.163 HD
BRANCH  14  17
HETATM   17  C           1     -36.436  -0.688 -11.400  0.00  0.00     0.278 C 
BRANCH  17  18
HETATM   18  N           1     -36.096   0.618 -10.745  0.00  0.00    -0.066 N 
HETATM   19  H           1     -35.165   0.540 -10.277  0.00  0.00     0.275 HD
HETATM   20  H           1     -36.059   1.370 -11.469  0.00  0.00     0.275 HD
HETATM   21  H           1     -36.825   0.852 -10.035  0.00  0.00     0.275 HD
ENDBRANCH  17  18
BRANCH  17  22
HETATM   22  C           1     -36.418  -0.516 -12.913  0.00  0.00     0.017 C 
HETATM   23  C           1     -35.381   0.534 -13.292  0.00  0.00     0.012 C 
HETATM   24  C           1     -37.792  -0.068 -13.391  0.00  0.00     0.012 C 
ENDBRANCH  17  22
ENDBRANCH  14  17
ENDBRANCH   1  13
TORSDOF 10
ENDMDL
MODEL 5
REMARK VINA RESULT:      -5.8     13.510     16.130
REMARK  10 active torsions:
REMARK  status: ('A' for Active; 'I' for Inactive)
REMARK    1  A    between atoms: N_1  and  C_7 
REMARK    2  A    between atoms: C_4  and  C_5 
REMARK    3  A    between atoms: C_4  and  C_14 
REMARK    4  A    between atoms: C_5  and  C_6 
REMARK    5  A    between atoms: C_6  and  N_20 
REMARK    6  A    between atoms: C_7  and  C_19 
REMARK    7  A    between atoms: C_7  and  C_8 
REMARK    8  A    between atoms: C_14  and  C_17 
REMARK    9  A    between atoms: C_16  and  C_17 
REMARK   10  A    between atoms: C_17  and  N_24 
REMARK       I    between atoms: C_19  and  N_24 
ROOT
HETATM    1  C           1     -21.253  -5.478  -6.437  0.00  0.00     0.185 C 
ENDROOT
BRANCH   1   2
HETATM    2  C           1     -21.741  -4.099  -6.861  0.00  0.00     0.036 C 
BRANCH   2   3
HETATM    3  C           1     -22.911  -4.248  -7.825  0.00  0.00     0.004 C 
BRANCH   3   4
HETATM    4  C           1     -22.491  -3.776  -9.212  0.00  0.00     0.027 C 
BRANCH   4   5
HETATM    5  C           1     -23.727  -3.581 -10.078  0.00  0.00     0.229 C 
BRANCH   5   6
HETATM    6  N           1     -24.886  -3.177  -9.214  0.00  0.00    -0.079 N 
HETATM    7  H           1     -25.764  -3.196  -9.779  0.00  0.00     0.274 HD
HETATM    8  H           1     -24.727  -2.210  -8.849  0.00  0.00     0.274 HD
HETATM    9  H           1     -24.972  -3.841  -8.413  0.00  0.00     0.274 HD
ENDBRANCH   5   6
ENDBRANCH   4   5
ENDBRANCH   3   4
ENDBRANCH   2   3
ENDBRANCH   1   2
BRANCH   1  10
HETATM   10  C           1     -19.948  -5.786  -7.128  0.00  0.00     0.196 C 
HETATM   11  O           1     -19.397  -4.917  -7.838  0.00  0.00    -0.646 OA
HETATM   12  O           1     -19.418  -6.910  -6.992  0.00  0.00    -0.646 OA
ENDBRANCH   1  10
BRANCH   1  13
HETATM   13  N           1     -21.054  -5.499  -5.001  0.00  0.00    -0.345 N 
HETATM   14  C           1     -21.521  -6.551  -4.260  0.00  0.00     0.249 C 
HETATM   15  O           1     -22.099  -7.463  -4.803  0.00  0.00    -0.271 OA
HETATM   16  H           1     -20.570  -4.735  -4.546  0.00  0.00     0.163 HD
BRANCH  14  17
HETATM   17  C           1     -21.314  -6.572  -2.765  0.00  0.00     0.278 C 
BRANCH  17  18
HETATM   18  N           1     -22.396  -5.774  -2.100  0.00  0.00    -0.066 N 
HETATM   19  H           1     -23.305  -5.946  -2.587  0.00  0.00     0.275 HD
HETATM   20  H           1     -22.477  -6.065  -1.100  0.00  0.00     0.275 HD
HETATM   21  H           1     -22.160  -4.758  -2.151  0.00  0.00     0.275 HD
ENDBRANCH  17  18
BRANCH  17  22
HETATM   22  C           1     -21.366  -8.011  -2.266  0.00  0.00     0.017 C 
HETATM   23  C           1     -22.016  -8.047  -0.888  0.00  0.00     0.012 C 
HETATM   24  C           1     -19.952  -8.568  -2.174  0.00  0.00     0.012 C 
ENDBRANCH  17  22
ENDBRANCH  14  17
ENDBRANCH   1  13
TORSDOF 10
ENDMDL
MODEL 6
REMARK VINA RESULT:      -5.6     13.962     17.080
REMARK  10 active torsions:
REMARK  status: ('A' for Active; 'I' for Inactive)
REMARK    1  A    between atoms: N_1  and  C_7 
REMARK    2  A    between atoms: C_4  and  C_5 
REMARK    3  A    between atoms: C_4  and  C_14 
REMARK    4  A    between atoms: C_5  and  C_6 
REMARK    5  A    between atoms: C_6  and  N_20 
REMARK    6  A    between atoms: C_7  and  C_19 
REMARK    7  A    between atoms: C_7  and  C_8 
REMARK    8  A    between atoms: C_14  and  C_17 
REMARK    9  A    between atoms: C_16  and  C_17 
REMARK   10  A    between atoms: C_17  and  N_24 
REMARK       I    between atoms: C_19  and  N_24 
ROOT
HETATM    1  C           1     -20.983  -6.549  -5.169  0.00  0.00     0.185 C 
ENDROOT
BRANCH   1   2
HETATM    2  C           1     -22.026  -6.548  -4.059  0.00  0.00     0.036 C 
BRANCH   2   3
HETATM    3  C           1     -21.400  -6.023  -2.774  0.00  0.00     0.004 C 
BRANCH   3   4
HETATM    4  C           1     -22.231  -6.476  -1.580  0.00  0.00     0.027 C 
BRANCH   4   5
HETATM    5  C           1     -21.816  -7.885  -1.178  0.00  0.00     0.229 C 
BRANCH   5   6
HETATM    6  N           1     -20.362  -8.087  -1.487  0.00  0.00    -0.079 N 
HETATM    7  H           1     -20.230  -8.136  -2.522  0.00  0.00     0.274 HD
HETATM    8  H           1     -20.034  -8.977  -1.049  0.00  0.00     0.274 HD
HETATM    9  H           1     -19.810  -7.287  -1.103  0.00  0.00     0.274 HD
ENDBRANCH   5   6
ENDBRANCH   4   5
ENDBRANCH   3   4
ENDBRANCH   2   3
ENDBRANCH   1   2
BRANCH   1  10
HETATM   10  C           1     -20.296  -7.891  -5.214  0.00  0.00     0.196 C 
HETATM   11  O           1     -19.314  -8.065  -5.967  0.00  0.00    -0.646 OA
HETATM   12  O           1     -20.709  -8.829  -4.498  0.00  0.00    -0.646 OA
ENDBRANCH   1  10
BRANCH   1  13
HETATM   13  N           1     -21.632  -6.296  -6.441  0.00  0.00    -0.345 N 
HETATM   14  C           1     -21.588  -5.046  -6.996  0.00  0.00     0.249 C 
HETATM   15  O           1     -21.007  -4.152  -6.426  0.00  0.00    -0.271 OA
HETATM   16  H           1     -22.118  -7.045  -6.918  0.00  0.00     0.163 HD
BRANCH  14  17
HETATM   17  C           1     -22.263  -4.783  -8.320  0.00  0.00     0.278 C 
BRANCH  17  18
HETATM   18  N           1     -23.549  -4.047  -8.086  0.00  0.00    -0.066 N 
HETATM   19  H           1     -23.551  -3.648  -7.120  0.00  0.00     0.275 HD
HETATM   20  H           1     -23.637  -3.273  -8.782  0.00  0.00     0.275 HD
HETATM   21  H           1     -24.352  -4.706  -8.193  0.00  0.00     0.275 HD
ENDBRANCH  17  18
BRANCH  17  22
HETATM   22  C           1     -21.348  -3.940  -9.198  0.00  0.00     0.017 C 
HETATM   23  C           1     -22.106  -3.499 -10.444  0.00  0.00     0.012 C 
HETATM   24  C           1     -20.135  -4.764  -9.608  0.00  0.00     0.012 C 
ENDBRANCH  17  22
ENDBRANCH  14  17
ENDBRANCH   1  13
TORSDOF 10
ENDMDL
MODEL 7
REMARK VINA RESULT:      -5.5     15.637     18.069
REMARK  10 active torsions:
REMARK  status: ('A' for Active; 'I' for Inactive)
REMARK    1  A    between atoms: N_1  and  C_7 
REMARK    2  A    between atoms: C_4  and  C_5 
REMARK    3  A    between atoms: C_4  and  C_14 
REMARK    4  A    between atoms: C_5  and  C_6 
REMARK    5  A    between atoms: C_6  and  N_20 
REMARK    6  A    between atoms: C_7  and  C_19 
REMARK    7  A    between atoms: C_7  and  C_8 
REMARK    8  A    between atoms: C_14  and  C_17 
REMARK    9  A    between atoms: C_16  and  C_17 
REMARK   10  A    between atoms: C_17  and  N_24 
REMARK       I    between atoms: C_19  and  N_24 
ROOT
HETATM    1  C           1     -20.185  -8.126  -4.737  0.00  0.00     0.185 C 
ENDROOT
BRANCH   1   2
HETATM    2  C           1     -21.392  -8.924  -4.264  0.00  0.00     0.036 C 
BRANCH   2   3
HETATM    3  C           1     -21.347  -9.064  -2.748  0.00  0.00     0.004 C 
BRANCH   3   4
HETATM    4  C           1     -20.855  -7.761  -2.131  0.00  0.00     0.027 C 
BRANCH   4   5
HETATM    5  C           1     -22.014  -7.055  -1.441  0.00  0.00     0.229 C 
BRANCH   5   6
HETATM    6  N           1     -22.367  -5.811  -2.200  0.00  0.00    -0.079 N 
HETATM    7  H           1     -22.461  -6.037  -3.215  0.00  0.00     0.274 HD
HETATM    8  H           1     -21.615  -5.097  -2.069  0.00  0.00     0.274 HD
HETATM    9  H           1     -23.273  -5.430  -1.844  0.00  0.00     0.274 HD
ENDBRANCH   5   6
ENDBRANCH   4   5
ENDBRANCH   3   4
ENDBRANCH   2   3
ENDBRANCH   1   2
BRANCH   1  10
HETATM   10  C           1     -19.020  -9.057  -4.959  0.00  0.00     0.196 C 
HETATM   11  O           1     -18.907  -9.669  -6.043  0.00  0.00    -0.646 OA
HETATM   12  O           1     -18.167  -9.217  -4.059  0.00  0.00    -0.646 OA
ENDBRANCH   1  10
BRANCH   1  13
HETATM   13  N           1     -20.509  -7.453  -5.980  0.00  0.00    -0.345 N 
HETATM   14  C           1     -20.934  -6.152  -5.965  0.00  0.00     0.249 C 
HETATM   15  O           1     -21.041  -5.564  -4.914  0.00  0.00    -0.271 OA
HETATM   16  H           1     -20.420  -7.946  -6.860  0.00  0.00     0.163 HD
BRANCH  14  17
HETATM   17  C           1     -21.271  -5.452  -7.258  0.00  0.00     0.278 C 
BRANCH  17  18
HETATM   18  N           1     -21.830  -4.093  -6.959  0.00  0.00    -0.066 N 
HETATM   19  H           1     -22.722  -3.960  -7.487  0.00  0.00     0.275 HD
HETATM   20  H           1     -22.017  -4.012  -5.935  0.00  0.00     0.275 HD
HETATM   21  H           1     -21.142  -3.362  -7.248  0.00  0.00     0.275 HD
ENDBRANCH  17  18
BRANCH  17  22
HETATM   22  C           1     -20.011  -5.308  -8.101  0.00  0.00     0.017 C 
HETATM   23  C           1     -19.002  -4.439  -7.360  0.00  0.00     0.012 C 
HETATM   24  C           1     -20.360  -4.656  -9.432  0.00  0.00     0.012 C 
ENDBRANCH  17  22
ENDBRANCH  14  17
ENDBRANCH   1  13
TORSDOF 10
ENDMDL
MODEL 8
REMARK VINA RESULT:      -5.4     24.932     26.358
REMARK  10 active torsions:
REMARK  status: ('A' for Active; 'I' for Inactive)
REMARK    1  A    between atoms: N_1  and  C_7 
REMARK    2  A    between atoms: C_4  and  C_5 
REMARK    3  A    between atoms: C_4  and  C_14 
REMARK    4  A    between atoms: C_5  and  C_6 
REMARK    5  A    between atoms: C_6  and  N_20 
REMARK    6  A    between atoms: C_7  and  C_19 
REMARK    7  A    between atoms: C_7  and  C_8 
REMARK    8  A    between atoms: C_14  and  C_17 
REMARK    9  A    between atoms: C_16  and  C_17 
REMARK   10  A    between atoms: C_17  and  N_24 
REMARK       I    between atoms: C_19  and  N_24 
ROOT
HETATM    1  C           1     -10.144   5.379 -20.637  0.00  0.00     0.185 C 
ENDROOT
BRANCH   1   2
HETATM    2  C           1      -9.255   6.563 -20.994  0.00  0.00     0.036 C 
BRANCH   2   3
HETATM    3  C           1     -10.123   7.760 -21.358  0.00  0.00     0.004 C 
BRANCH   3   4
HETATM    4  C           1      -9.670   8.977 -20.561  0.00  0.00     0.027 C 
BRANCH   4   5
HETATM    5  C           1     -10.660   9.246 -19.436  0.00  0.00     0.229 C 
BRANCH   5   6
HETATM    6  N           1     -10.005   8.970 -18.115  0.00  0.00    -0.079 N 
HETATM    7  H           1      -9.477   9.816 -17.805  0.00  0.00     0.274 HD
HETATM    8  H           1      -9.347   8.164 -18.215  0.00  0.00     0.274 HD
HETATM    9  H           1     -10.736   8.737 -17.405  0.00  0.00     0.274 HD
ENDBRANCH   5   6
ENDBRANCH   4   5
ENDBRANCH   3   4
ENDBRANCH   2   3
ENDBRANCH   1   2
BRANCH   1  10
HETATM   10  C           1     -10.489   5.433 -19.169  0.00  0.00     0.196 C 
HETATM   11  O           1      -9.635   5.817 -18.341  0.00  0.00    -0.646 OA
HETATM   12  O           1     -11.629   5.095 -18.782  0.00  0.00    -0.646 OA
ENDBRANCH   1  10
BRANCH   1  13
HETATM   13  N           1     -11.363   5.437 -21.421  0.00  0.00    -0.345 N 
HETATM   14  C           1     -11.960   4.280 -21.844  0.00  0.00     0.249 C 
HETATM   15  O           1     -11.472   3.210 -21.563  0.00  0.00    -0.271 OA
HETATM   16  H           1     -11.771   6.333 -21.656  0.00  0.00     0.163 HD
BRANCH  14  17
HETATM   17  C           1     -13.228   4.340 -22.660  0.00  0.00     0.278 C 
BRANCH  17  18
HETATM   18  N           1     -13.863   2.981 -22.696  0.00  0.00    -0.066 N 
HETATM   19  H           1     -14.226   2.741 -21.746  0.00  0.00     0.275 HD
HETATM   20  H           1     -14.653   2.985 -23.379  0.00  0.00     0.275 HD
HETATM   21  H           1     -13.152   2.272 -22.986  0.00  0.00     0.275 HD
ENDBRANCH  17  18
BRANCH  17  22
HETATM   22  C           1     -14.193   5.333 -22.027  0.00  0.00     0.017 C 
HETATM   23  C           1     -14.560   4.863 -20.625  0.00  0.00     0.012 C 
HETATM   24  C           1     -15.454   5.428 -22.876  0.00  0.00     0.012 C 
ENDBRANCH  17  22
ENDBRANCH  14  17
ENDBRANCH   1  13
TORSDOF 10
ENDMDL
MODEL 9
REMARK VINA RESULT:      -5.2     14.188     16.804
REMARK  10 active torsions:
REMARK  status: ('A' for Active; 'I' for Inactive)
REMARK    1  A    between atoms: N_1  and  C_7 
REMARK    2  A    between atoms: C_4  and  C_5 
REMARK    3  A    between atoms: C_4  and  C_14 
REMARK    4  A    between atoms: C_5  and  C_6 
REMARK    5  A    between atoms: C_6  and  N_20 
REMARK    6  A    between atoms: C_7  and  C_19 
REMARK    7  A    between atoms: C_7  and  C_8 
REMARK    8  A    between atoms: C_14  and  C_17 
REMARK    9  A    between atoms: C_16  and  C_17 
REMARK   10  A    between atoms: C_17  and  N_24 
REMARK       I    between atoms: C_19  and  N_24 
ROOT
HETATM    1  C           1     -20.739  -6.744  -5.468  0.00  0.00     0.185 C 
ENDROOT
BRANCH   1   2
HETATM    2  C           1     -20.768  -6.038  -6.817  0.00  0.00     0.036 C 
BRANCH   2   3
HETATM    3  C           1     -20.248  -4.616  -6.658  0.00  0.00     0.004 C 
BRANCH   3   4
HETATM    4  C           1     -21.286  -3.632  -7.183  0.00  0.00     0.027 C 
BRANCH   4   5
HETATM    5  C           1     -22.256  -4.361  -8.104  0.00  0.00     0.229 C 
BRANCH   5   6
HETATM    6  N           1     -23.655  -4.194  -7.591  0.00  0.00    -0.079 N 
HETATM    7  H           1     -23.627  -3.797  -6.626  0.00  0.00     0.274 HD
HETATM    8  H           1     -24.133  -5.124  -7.573  0.00  0.00     0.274 HD
HETATM    9  H           1     -24.182  -3.545  -8.219  0.00  0.00     0.274 HD
ENDBRANCH   5   6
ENDBRANCH   4   5
ENDBRANCH   3   4
ENDBRANCH   2   3
ENDBRANCH   1   2
BRANCH   1  10
HETATM   10  C           1     -21.914  -6.291  -4.637  0.00  0.00     0.196 C 
HETATM   11  O           1     -21.764  -6.061  -3.417  0.00  0.00    -0.646 OA
HETATM   12  O           1     -23.037  -6.146  -5.167  0.00  0.00    -0.646 OA
ENDBRANCH   1  10
BRANCH   1  13
HETATM   13  N           1     -20.817  -8.178  -5.672  0.00  0.00    -0.345 N 
HETATM   14  C           1     -19.979  -9.014  -4.986  0.00  0.00     0.249 C 
HETATM   15  O           1     -19.173  -8.557  -4.209  0.00  0.00    -0.271 OA
HETATM   16  H           1     -21.492  -8.561  -6.323  0.00  0.00     0.163 HD
BRANCH  14  17
HETATM   17  C           1     -20.060 -10.506  -5.198  0.00  0.00     0.278 C 
BRANCH  17  18
HETATM   18  N           1     -19.628 -11.212  -3.947  0.00  0.00    -0.066 N 
HETATM   19  H           1     -19.373 -10.506  -3.220  0.00  0.00     0.275 HD
HETATM   20  H           1     -20.412 -11.806  -3.595  0.00  0.00     0.275 HD
HETATM   21  H           1     -18.799 -11.814  -4.156  0.00  0.00     0.275 HD
ENDBRANCH  17  18
BRANCH  17  22
HETATM   22  C           1     -21.495 -10.895  -5.530  0.00  0.00     0.017 C 
HETATM   23  C           1     -22.144 -11.530  -4.307  0.00  0.00     0.012 C 
HETATM   24  C           1     -21.498 -11.891  -6.681  0.00  0.00     0.012 C 
ENDBRANCH  17  22
ENDBRANCH  14  17
ENDBRANCH   1  13
TORSDOF 10
ENDMDL
