MODEL 1
REMARK VINA RESULT:      -6.4      0.000      0.000
REMARK  9 active torsions:
REMARK  status: ('A' for Active; 'I' for Inactive)
REMARK    1  A    between atoms: N_2  and  C_19 
REMARK       I    between atoms: N_2  and  C_3 
REMARK    2  A    between atoms: C_3  and  C_24 
REMARK    3  A    between atoms: C_8  and  C_10 
REMARK    4  A    between atoms: C_10  and  C_11 
REMARK    5  A    between atoms: C_11  and  C_19 
REMARK    6  A    between atoms: N_14  and  C_24 
REMARK    7  A    between atoms: C_16  and  C_23 
REMARK    8  A    between atoms: C_19  and  C_20 
REMARK    9  A    between atoms: C_23  and  C_24 
ROOT
HETATM    1  N           1     -21.232  -6.094  -5.792  0.00  0.00    -0.345 N 
HETATM    2  C           1     -20.671  -4.879  -6.082  0.00  0.00     0.249 C 
HETATM    3  O           1     -19.911  -4.362  -5.298  0.00  0.00    -0.271 OA
HETATM    4  H           1     -21.869  -6.527  -6.449  0.00  0.00     0.163 HD
ENDROOT
BRANCH   2   5
HETATM    5  C           1     -21.002  -4.185  -7.381  0.00  0.00     0.280 C 
BRANCH   5   6
HETATM    6  N           1     -19.732  -3.791  -8.074  0.00  0.00    -0.066 N 
HETATM    7  H           1     -19.699  -4.234  -9.020  0.00  0.00     0.275 HD
HETATM    8  H           1     -19.700  -2.751  -8.175  0.00  0.00     0.275 HD
HETATM    9  H           1     -18.913  -4.113  -7.510  0.00  0.00     0.275 HD
ENDBRANCH   5   6
BRANCH   5  10
HETATM   10  C           1     -21.794  -5.131  -8.274  0.00  0.00     0.101 C 
BRANCH  10  11
HETATM   11  C           1     -22.845  -4.360  -9.009  0.00  0.00     0.028 A 
HETATM   12  C           1     -22.749  -3.965 -10.323  0.00  0.00     0.114 A 
HETATM   13  N           1     -23.915  -3.298 -10.578  0.00  0.00    -0.360 N 
HETATM   14  C           1     -24.658  -3.316  -9.433  0.00  0.00     0.180 A 
HETATM   15  H           1     -24.190  -2.855 -11.490  0.00  0.00     0.166 HD
HETATM   16  N           1     -24.036  -3.951  -8.466  0.00  0.00    -0.355 N 
ATOM     17  HN          1     -24.369  -4.107  -7.515  1.00  0.00     0.166 HD
ENDBRANCH  10  11
ENDBRANCH   5  10
ENDBRANCH   2   5
BRANCH   1  18
HETATM   18  C           1     -20.913  -6.760  -4.545  0.00  0.00     0.186 C 
BRANCH  18  19
HETATM   19  C           1     -22.161  -6.835  -3.675  0.00  0.00     0.046 C 
BRANCH  19  20
HETATM   20  C           1     -21.906  -6.117  -2.356  0.00  0.00     0.116 C 
BRANCH  20  21
HETATM   21  C           1     -21.973  -7.108  -1.221  0.00  0.00     0.172 C 
HETATM   22  O           1     -21.040  -7.919  -1.043  0.00  0.00    -0.648 OA
HETATM   23  O           1     -22.963  -7.118  -0.457  0.00  0.00    -0.648 OA
ENDBRANCH  20  21
ENDBRANCH  19  20
ENDBRANCH  18  19
BRANCH  18  24
HETATM   24  C           1     -20.418  -8.157  -4.833  0.00  0.00     0.196 C 
HETATM   25  O           1     -20.932  -8.823  -5.757  0.00  0.00    -0.646 OA
HETATM   26  O           1     -19.493  -8.645  -4.149  0.00  0.00    -0.646 OA
ENDBRANCH  18  24
ENDBRANCH   1  18
TORSDOF 9
ENDMDL
MODEL 2
REMARK VINA RESULT:      -6.2      1.467      1.734
REMARK  9 active torsions:
REMARK  status: ('A' for Active; 'I' for Inactive)
REMARK    1  A    between atoms: N_2  and  C_19 
REMARK       I    between atoms: N_2  and  C_3 
REMARK    2  A    between atoms: C_3  and  C_24 
REMARK    3  A    between atoms: C_8  and  C_10 
REMARK    4  A    between atoms: C_10  and  C_11 
REMARK    5  A    between atoms: C_11  and  C_19 
REMARK    6  A    between atoms: N_14  and  C_24 
REMARK    7  A    between atoms: C_16  and  C_23 
REMARK    8  A    between atoms: C_19  and  C_20 
REMARK    9  A    between atoms: C_23  and  C_24 
ROOT
HETATM    1  N           1     -21.263  -6.630  -5.996  0.00  0.00    -0.345 N 
HETATM    2  C           1     -21.134  -5.336  -6.427  0.00  0.00     0.249 C 
HETATM    3  O           1     -20.532  -4.533  -5.756  0.00  0.00    -0.271 OA
HETATM    4  H           1     -21.767  -7.303  -6.558  0.00  0.00     0.163 HD
ENDROOT
BRANCH   2   5
HETATM    5  C           1     -21.746  -4.916  -7.741  0.00  0.00     0.280 C 
BRANCH   5   6
HETATM    6  N           1     -22.934  -4.037  -7.480  0.00  0.00    -0.066 N 
HETATM    7  H           1     -22.953  -3.261  -8.179  0.00  0.00     0.275 HD
HETATM    8  H           1     -23.809  -4.602  -7.563  0.00  0.00     0.275 HD
HETATM    9  H           1     -22.866  -3.636  -6.517  0.00  0.00     0.275 HD
ENDBRANCH   5   6
BRANCH   5  10
HETATM   10  C           1     -20.716  -4.146  -8.557  0.00  0.00     0.101 C 
BRANCH  10  11
HETATM   11  C           1     -21.144  -4.106  -9.991  0.00  0.00     0.028 A 
HETATM   12  C           1     -20.441  -3.492 -11.000  0.00  0.00     0.114 A 
HETATM   13  N           1     -21.186  -3.699 -12.128  0.00  0.00    -0.360 N 
HETATM   14  C           1     -22.289  -4.418 -11.766  0.00  0.00     0.180 A 
HETATM   15  H           1     -20.951  -3.367 -13.096  0.00  0.00     0.166 HD
HETATM   16  N           1     -22.291  -4.679 -10.479  0.00  0.00    -0.355 N 
ATOM     17  HN          1     -22.996  -5.197  -9.954  1.00  0.00     0.166 HD
ENDBRANCH  10  11
ENDBRANCH   5  10
ENDBRANCH   2   5
BRANCH   1  18
HETATM   18  C           1     -20.675  -7.034  -4.734  0.00  0.00     0.186 C 
BRANCH  18  19
HETATM   19  C           1     -21.780  -7.401  -3.752  0.00  0.00     0.046 C 
BRANCH  19  20
HETATM   20  C           1     -21.789  -6.402  -2.601  0.00  0.00     0.116 C 
BRANCH  20  21
HETATM   21  C           1     -21.875  -7.145  -1.291  0.00  0.00     0.172 C 
HETATM   22  O           1     -20.950  -7.911  -0.945  0.00  0.00    -0.648 OA
HETATM   23  O           1     -22.872  -6.995  -0.551  0.00  0.00    -0.648 OA
ENDBRANCH  20  21
ENDBRANCH  19  20
ENDBRANCH  18  19
BRANCH  18  24
HETATM   24  C           1     -19.783  -8.232  -4.955  0.00  0.00     0.196 C 
HETATM   25  O           1     -19.215  -8.392  -6.057  0.00  0.00    -0.646 OA
HETATM   26  O           1     -19.613  -9.063  -4.037  0.00  0.00    -0.646 OA
ENDBRANCH  18  24
ENDBRANCH   1  18
TORSDOF 9
ENDMDL
MODEL 3
REMARK VINA RESULT:      -6.1      3.240      7.391
REMARK  9 active torsions:
REMARK  status: ('A' for Active; 'I' for Inactive)
REMARK    1  A    between atoms: N_2  and  C_19 
REMARK       I    between atoms: N_2  and  C_3 
REMARK    2  A    between atoms: C_3  and  C_24 
REMARK    3  A    between atoms: C_8  and  C_10 
REMARK    4  A    between atoms: C_10  and  C_11 
REMARK    5  A    between atoms: C_11  and  C_19 
REMARK    6  A    between atoms: N_14  and  C_24 
REMARK    7  A    between atoms: C_16  and  C_23 
REMARK    8  A    between atoms: C_19  and  C_20 
REMARK    9  A    between atoms: C_23  and  C_24 
ROOT
HETATM    1  N           1     -21.311  -5.047  -6.565  0.00  0.00    -0.345 N 
HETATM    2  C           1     -21.188  -6.310  -6.049  0.00  0.00     0.249 C 
HETATM    3  O           1     -21.218  -7.268  -6.782  0.00  0.00    -0.271 OA
HETATM    4  H           1     -21.285  -4.244  -5.950  0.00  0.00     0.163 HD
ENDROOT
BRANCH   2   5
HETATM    5  C           1     -21.014  -6.502  -4.562  0.00  0.00     0.280 C 
BRANCH   5   6
HETATM    6  N           1     -22.326  -6.269  -3.871  0.00  0.00    -0.066 N 
HETATM    7  H           1     -22.684  -7.174  -3.490  0.00  0.00     0.275 HD
HETATM    8  H           1     -22.190  -5.591  -3.088  0.00  0.00     0.275 HD
HETATM    9  H           1     -23.015  -5.882  -4.555  0.00  0.00     0.275 HD
ENDBRANCH   5   6
BRANCH   5  10
HETATM   10  C           1     -20.542  -7.923  -4.285  0.00  0.00     0.101 C 
BRANCH  10  11
HETATM   11  C           1     -20.907  -8.307  -2.885  0.00  0.00     0.028 A 
HETATM   12  C           1     -21.716  -9.367  -2.552  0.00  0.00     0.114 A 
HETATM   13  N           1     -21.779  -9.349  -1.186  0.00  0.00    -0.360 N 
HETATM   14  C           1     -21.019  -8.300  -0.754  0.00  0.00     0.180 A 
HETATM   15  H           1     -22.313 -10.020  -0.580  0.00  0.00     0.166 HD
HETATM   16  N           1     -20.479  -7.651  -1.760  0.00  0.00    -0.355 N 
ATOM     17  HN          1     -19.871  -6.833  -1.714  1.00  0.00     0.166 HD
ENDBRANCH  10  11
ENDBRANCH   5  10
ENDBRANCH   2   5
BRANCH   1  18
HETATM   18  C           1     -21.477  -4.862  -7.993  0.00  0.00     0.186 C 
BRANCH  18  19
HETATM   19  C           1     -22.401  -3.679  -8.249  0.00  0.00     0.046 C 
BRANCH  19  20
HETATM   20  C           1     -23.686  -4.168  -8.904  0.00  0.00     0.116 C 
BRANCH  20  21
HETATM   21  C           1     -23.846  -3.511 -10.253  0.00  0.00     0.172 C 
HETATM   22  O           1     -22.838  -3.251 -10.944  0.00  0.00    -0.648 OA
HETATM   23  O           1     -24.987  -3.227 -10.678  0.00  0.00    -0.648 OA
ENDBRANCH  20  21
ENDBRANCH  19  20
ENDBRANCH  18  19
BRANCH  18  24
HETATM   24  C           1     -20.133  -4.596  -8.626  0.00  0.00     0.196 C 
HETATM   25  O           1     -19.178  -4.203  -7.920  0.00  0.00    -0.646 OA
HETATM   26  O           1     -19.974  -4.768  -9.853  0.00  0.00    -0.646 OA
ENDBRANCH  18  24
ENDBRANCH   1  18
TORSDOF 9
ENDMDL
MODEL 4
REMARK VINA RESULT:      -5.9      1.574      3.241
REMARK  9 active torsions:
REMARK  status: ('A' for Active; 'I' for Inactive)
REMARK    1  A    between atoms: N_2  and  C_19 
REMARK       I    between atoms: N_2  and  C_3 
REMARK    2  A    between atoms: C_3  and  C_24 
REMARK    3  A    between atoms: C_8  and  C_10 
REMARK    4  A    between atoms: C_10  and  C_11 
REMARK    5  A    between atoms: C_11  and  C_19 
REMARK    6  A    between atoms: N_14  and  C_24 
REMARK    7  A    between atoms: C_16  and  C_23 
REMARK    8  A    between atoms: C_19  and  C_20 
REMARK    9  A    between atoms: C_23  and  C_24 
ROOT
HETATM    1  N           1     -21.036  -6.526  -4.841  0.00  0.00    -0.345 N 
HETATM    2  C           1     -21.850  -5.753  -5.626  0.00  0.00     0.249 C 
HETATM    3  O           1     -23.049  -5.868  -5.550  0.00  0.00    -0.271 OA
HETATM    4  H           1     -20.031  -6.430  -4.904  0.00  0.00     0.163 HD
ENDROOT
BRANCH   2   5
HETATM    5  C           1     -21.246  -4.758  -6.586  0.00  0.00     0.280 C 
BRANCH   5   6
HETATM    6  N           1     -19.800  -4.550  -6.246  0.00  0.00    -0.066 N 
HETATM    7  H           1     -19.710  -4.325  -5.230  0.00  0.00     0.275 HD
HETATM    8  H           1     -19.264  -5.421  -6.459  0.00  0.00     0.275 HD
HETATM    9  H           1     -19.419  -3.759  -6.812  0.00  0.00     0.275 HD
ENDBRANCH   5   6
BRANCH   5  10
HETATM   10  C           1     -21.361  -5.289  -8.008  0.00  0.00     0.101 C 
BRANCH  10  11
HETATM   11  C           1     -22.416  -4.523  -8.744  0.00  0.00     0.028 A 
HETATM   12  C           1     -22.329  -4.141 -10.062  0.00  0.00     0.114 A 
HETATM   13  N           1     -23.495  -3.475 -10.316  0.00  0.00    -0.360 N 
HETATM   14  C           1     -24.230  -3.479  -9.164  0.00  0.00     0.180 A 
HETATM   15  H           1     -23.776  -3.040 -11.229  0.00  0.00     0.166 HD
HETATM   16  N           1     -23.602  -4.106  -8.196  0.00  0.00    -0.355 N 
ATOM     17  HN          1     -23.927  -4.251  -7.241  1.00  0.00     0.166 HD
ENDBRANCH  10  11
ENDBRANCH   5  10
ENDBRANCH   2   5
BRANCH   1  18
HETATM   18  C           1     -21.616  -7.482  -3.918  0.00  0.00     0.186 C 
BRANCH  18  19
HETATM   19  C           1     -20.809  -8.773  -3.949  0.00  0.00     0.046 C 
BRANCH  19  20
HETATM   20  C           1     -19.540  -8.560  -4.765  0.00  0.00     0.116 C 
BRANCH  20  21
HETATM   21  C           1     -19.025  -9.892  -5.252  0.00  0.00     0.172 C 
HETATM   22  O           1     -18.383  -9.960  -6.322  0.00  0.00    -0.648 OA
HETATM   23  O           1     -19.241 -10.928  -4.585  0.00  0.00    -0.648 OA
ENDBRANCH  20  21
ENDBRANCH  19  20
ENDBRANCH  18  19
BRANCH  18  24
HETATM   24  C           1     -21.594  -6.910  -2.522  0.00  0.00     0.196 C 
HETATM   25  O           1     -20.848  -7.412  -1.653  0.00  0.00    -0.646 OA
HETATM   26  O           1     -22.321  -5.934  -2.234  0.00  0.00    -0.646 OA
ENDBRANCH  18  24
ENDBRANCH   1  18
TORSDOF 9
ENDMDL
MODEL 5
REMARK VINA RESULT:      -5.8      1.689      2.177
REMARK  9 active torsions:
REMARK  status: ('A' for Active; 'I' for Inactive)
REMARK    1  A    between atoms: N_2  and  C_19 
REMARK       I    between atoms: N_2  and  C_3 
REMARK    2  A    between atoms: C_3  and  C_24 
REMARK    3  A    between atoms: C_8  and  C_10 
REMARK    4  A    between atoms: C_10  and  C_11 
REMARK    5  A    between atoms: C_11  and  C_19 
REMARK    6  A    between atoms: N_14  and  C_24 
REMARK    7  A    between atoms: C_16  and  C_23 
REMARK    8  A    between atoms: C_19  and  C_20 
REMARK    9  A    between atoms: C_23  and  C_24 
ROOT
HETATM    1  N           1     -20.783  -7.505  -4.622  0.00  0.00    -0.345 N 
HETATM    2  C           1     -20.319  -6.895  -5.757  0.00  0.00     0.249 C 
HETATM    3  O           1     -19.470  -7.432  -6.427  0.00  0.00    -0.271 OA
HETATM    4  H           1     -21.494  -7.055  -4.060  0.00  0.00     0.163 HD
ENDROOT
BRANCH   2   5
HETATM    5  C           1     -20.869  -5.552  -6.170  0.00  0.00     0.280 C 
BRANCH   5   6
HETATM    6  N           1     -20.121  -4.465  -5.457  0.00  0.00    -0.066 N 
HETATM    7  H           1     -20.276  -4.553  -4.427  0.00  0.00     0.275 HD
HETATM    8  H           1     -19.100  -4.552  -5.664  0.00  0.00     0.275 HD
HETATM    9  H           1     -20.465  -3.534  -5.783  0.00  0.00     0.275 HD
ENDBRANCH   5   6
BRANCH   5  10
HETATM   10  C           1     -20.707  -5.377  -7.674  0.00  0.00     0.101 C 
BRANCH  10  11
HETATM   11  C           1     -21.936  -4.734  -8.237  0.00  0.00     0.028 A 
HETATM   12  C           1     -23.039  -4.378  -7.500  0.00  0.00     0.114 A 
HETATM   13  N           1     -23.909  -3.834  -8.403  0.00  0.00    -0.360 N 
HETATM   14  C           1     -23.309  -3.879  -9.629  0.00  0.00     0.180 A 
HETATM   15  H           1     -24.863  -3.449  -8.193  0.00  0.00     0.166 HD
HETATM   16  N           1     -22.114  -4.419  -9.560  0.00  0.00    -0.355 N 
ATOM     17  HN          1     -21.459  -4.571 -10.327  1.00  0.00     0.166 HD
ENDBRANCH  10  11
ENDBRANCH   5  10
ENDBRANCH   2   5
BRANCH   1  18
HETATM   18  C           1     -20.254  -8.795  -4.225  0.00  0.00     0.186 C 
BRANCH  18  19
HETATM   19  C           1     -20.191  -8.875  -2.706  0.00  0.00     0.046 C 
BRANCH  19  20
HETATM   20  C           1     -20.773  -7.601  -2.106  0.00  0.00     0.116 C 
BRANCH  20  21
HETATM   21  C           1     -21.888  -7.956  -1.154  0.00  0.00     0.172 C 
HETATM   22  O           1     -22.508  -7.053  -0.553  0.00  0.00    -0.648 OA
HETATM   23  O           1     -22.193  -9.155  -0.967  0.00  0.00    -0.648 OA
ENDBRANCH  20  21
ENDBRANCH  19  20
ENDBRANCH  18  19
BRANCH  18  24
HETATM   24  C           1     -21.153  -9.889  -4.748  0.00  0.00     0.196 C 
HETATM   25  O           1     -20.969 -10.355  -5.894  0.00  0.00    -0.646 OA
HETATM   26  O           1     -22.081 -10.329  -4.036  0.00  0.00    -0.646 OA
ENDBRANCH  18  24
ENDBRANCH   1  18
TORSDOF 9
ENDMDL
MODEL 6
REMARK VINA RESULT:      -5.5     20.485     22.604
REMARK  9 active torsions:
REMARK  status: ('A' for Active; 'I' for Inactive)
REMARK    1  A    between atoms: N_2  and  C_19 
REMARK       I    between atoms: N_2  and  C_3 
REMARK    2  A    between atoms: C_3  and  C_24 
REMARK    3  A    between atoms: C_8  and  C_10 
REMARK    4  A    between atoms: C_10  and  C_11 
REMARK    5  A    between atoms: C_11  and  C_19 
REMARK    6  A    between atoms: N_14  and  C_24 
REMARK    7  A    between atoms: C_16  and  C_23 
REMARK    8  A    between atoms: C_19  and  C_20 
REMARK    9  A    between atoms: C_23  and  C_24 
ROOT
HETATM    1  N           1     -10.449   7.517 -20.821  0.00  0.00    -0.345 N 
HETATM    2  C           1     -10.484   6.192 -21.168  0.00  0.00     0.249 C 
HETATM    3  O           1     -10.727   5.871 -22.306  0.00  0.00    -0.271 OA
HETATM    4  H           1     -10.245   7.786 -19.868  0.00  0.00     0.163 HD
ENDROOT
BRANCH   2   5
HETATM    5  C           1     -10.216   5.134 -20.125  0.00  0.00     0.280 C 
BRANCH   5   6
HETATM    6  N           1      -9.222   5.654 -19.129  0.00  0.00    -0.066 N 
HETATM    7  H           1      -8.370   5.991 -19.631  0.00  0.00     0.275 HD
HETATM    8  H           1      -9.647   6.445 -18.595  0.00  0.00     0.275 HD
HETATM    9  H           1      -8.957   4.889 -18.469  0.00  0.00     0.275 HD
ENDBRANCH   5   6
BRANCH   5  10
HETATM   10  C           1     -11.514   4.785 -19.410  0.00  0.00     0.101 C 
BRANCH  10  11
HETATM   11  C           1     -12.523   4.312 -20.410  0.00  0.00     0.028 A 
HETATM   12  C           1     -12.523   3.067 -20.992  0.00  0.00     0.114 A 
HETATM   13  N           1     -13.605   3.066 -21.827  0.00  0.00    -0.360 N 
HETATM   14  C           1     -14.208   4.286 -21.721  0.00  0.00     0.180 A 
HETATM   15  H           1     -13.916   2.270 -22.439  0.00  0.00     0.166 HD
HETATM   16  N           1     -13.576   5.062 -20.870  0.00  0.00    -0.355 N 
ATOM     17  HN          1     -13.816   6.018 -20.608  1.00  0.00     0.166 HD
ENDBRANCH  10  11
ENDBRANCH   5  10
ENDBRANCH   2   5
BRANCH   1  18
HETATM   18  C           1     -10.705   8.534 -21.823  0.00  0.00     0.186 C 
BRANCH  18  19
HETATM   19  C           1     -11.922   9.354 -21.415  0.00  0.00     0.046 C 
BRANCH  19  20
HETATM   20  C           1     -11.835   9.690 -19.932  0.00  0.00     0.116 C 
BRANCH  20  21
HETATM   21  C           1     -12.983   9.039 -19.200  0.00  0.00     0.172 C 
HETATM   22  O           1     -13.754   9.733 -18.504  0.00  0.00    -0.648 OA
HETATM   23  O           1     -13.163   7.805 -19.290  0.00  0.00    -0.648 OA
ENDBRANCH  20  21
ENDBRANCH  19  20
ENDBRANCH  18  19
BRANCH  18  24
HETATM   24  C           1      -9.504   9.440 -21.938  0.00  0.00     0.196 C 
HETATM   25  O           1      -9.410  10.234 -22.899  0.00  0.00    -0.646 OA
HETATM   26  O           1      -8.604   9.398 -21.071  0.00  0.00    -0.646 OA
ENDBRANCH  18  24
ENDBRANCH   1  18
TORSDOF 9
ENDMDL
MODEL 7
REMARK VINA RESULT:      -5.4      3.218      5.368
REMARK  9 active torsions:
REMARK  status: ('A' for Active; 'I' for Inactive)
REMARK    1  A    between atoms: N_2  and  C_19 
REMARK       I    between atoms: N_2  and  C_3 
REMARK    2  A    between atoms: C_3  and  C_24 
REMARK    3  A    between atoms: C_8  and  C_10 
REMARK    4  A    between atoms: C_10  and  C_11 
REMARK    5  A    between atoms: C_11  and  C_19 
REMARK    6  A    between atoms: N_14  and  C_24 
REMARK    7  A    between atoms: C_16  and  C_23 
REMARK    8  A    between atoms: C_19  and  C_20 
REMARK    9  A    between atoms: C_23  and  C_24 
ROOT
HETATM    1  N           1     -20.907  -8.441  -1.724  0.00  0.00    -0.345 N 
HETATM    2  C           1     -21.024  -8.785  -3.045  0.00  0.00     0.249 C 
HETATM    3  O           1     -21.910  -9.525  -3.401  0.00  0.00    -0.271 OA
HETATM    4  H           1     -20.165  -7.822  -1.426  0.00  0.00     0.163 HD
ENDROOT
BRANCH   2   5
HETATM    5  C           1     -20.045  -8.239  -4.055  0.00  0.00     0.280 C 
BRANCH   5   6
HETATM    6  N           1     -18.918  -9.213  -4.235  0.00  0.00    -0.066 N 
HETATM    7  H           1     -19.203 -10.148  -3.867  0.00  0.00     0.275 HD
HETATM    8  H           1     -18.688  -9.294  -5.251  0.00  0.00     0.275 HD
HETATM    9  H           1     -18.079  -8.874  -3.713  0.00  0.00     0.275 HD
ENDBRANCH   5   6
BRANCH   5  10
HETATM   10  C           1     -20.753  -8.031  -5.387  0.00  0.00     0.101 C 
BRANCH  10  11
HETATM   11  C           1     -20.468  -6.652  -5.894  0.00  0.00     0.028 A 
HETATM   12  C           1     -20.754  -5.494  -5.211  0.00  0.00     0.114 A 
HETATM   13  N           1     -20.332  -4.485  -6.031  0.00  0.00    -0.360 N 
HETATM   14  C           1     -19.816  -5.059  -7.157  0.00  0.00     0.180 A 
HETATM   15  H           1     -20.393  -3.456  -5.832  0.00  0.00     0.166 HD
HETATM   16  N           1     -19.885  -6.370  -7.103  0.00  0.00    -0.355 N 
ATOM     17  HN          1     -19.571  -7.035  -7.809  1.00  0.00     0.166 HD
ENDBRANCH  10  11
ENDBRANCH   5  10
ENDBRANCH   2   5
BRANCH   1  18
HETATM   18  C           1     -21.848  -8.966  -0.754  0.00  0.00     0.186 C 
BRANCH  18  19
HETATM   19  C           1     -21.086  -9.630   0.386  0.00  0.00     0.046 C 
BRANCH  19  20
HETATM   20  C           1     -20.896 -11.109   0.076  0.00  0.00     0.116 C 
BRANCH  20  21
HETATM   21  C           1     -19.474 -11.352  -0.367  0.00  0.00     0.172 C 
HETATM   22  O           1     -19.110 -11.011  -1.513  0.00  0.00    -0.648 OA
HETATM   23  O           1     -18.661 -11.895   0.412  0.00  0.00    -0.648 OA
ENDBRANCH  20  21
ENDBRANCH  19  20
ENDBRANCH  18  19
BRANCH  18  24
HETATM   24  C           1     -22.687  -7.837  -0.206  0.00  0.00     0.196 C 
HETATM   25  O           1     -23.390  -8.017   0.812  0.00  0.00    -0.646 OA
HETATM   26  O           1     -22.677  -6.721  -0.769  0.00  0.00    -0.646 OA
ENDBRANCH  18  24
ENDBRANCH   1  18
TORSDOF 9
ENDMDL
MODEL 8
REMARK VINA RESULT:      -5.3      2.364      4.502
REMARK  9 active torsions:
REMARK  status: ('A' for Active; 'I' for Inactive)
REMARK    1  A    between atoms: N_2  and  C_19 
REMARK       I    between atoms: N_2  and  C_3 
REMARK    2  A    between atoms: C_3  and  C_24 
REMARK    3  A    between atoms: C_8  and  C_10 
REMARK    4  A    between atoms: C_10  and  C_11 
REMARK    5  A    between atoms: C_11  and  C_19 
REMARK    6  A    between atoms: N_14  and  C_24 
REMARK    7  A    between atoms: C_16  and  C_23 
REMARK    8  A    between atoms: C_19  and  C_20 
REMARK    9  A    between atoms: C_23  and  C_24 
ROOT
HETATM    1  N           1     -20.492  -8.244  -3.815  0.00  0.00    -0.345 N 
HETATM    2  C           1     -21.176  -7.816  -4.922  0.00  0.00     0.249 C 
HETATM    3  O           1     -21.228  -8.512  -5.907  0.00  0.00    -0.271 OA
HETATM    4  H           1     -20.449  -7.661  -2.990  0.00  0.00     0.163 HD
ENDROOT
BRANCH   2   5
HETATM    5  C           1     -21.867  -6.474  -4.909  0.00  0.00     0.280 C 
BRANCH   5   6
HETATM    6  N           1     -22.204  -6.100  -3.496  0.00  0.00    -0.066 N 
HETATM    7  H           1     -23.214  -5.837  -3.437  0.00  0.00     0.275 HD
HETATM    8  H           1     -22.018  -6.913  -2.867  0.00  0.00     0.275 HD
HETATM    9  H           1     -21.615  -5.288  -3.201  0.00  0.00     0.275 HD
ENDBRANCH   5   6
BRANCH   5  10
HETATM   10  C           1     -20.942  -5.421  -5.505  0.00  0.00     0.101 C 
BRANCH  10  11
HETATM   11  C           1     -21.464  -4.998  -6.843  0.00  0.00     0.028 A 
HETATM   12  C           1     -20.844  -5.259  -8.042  0.00  0.00     0.114 A 
HETATM   13  N           1     -21.655  -4.700  -8.989  0.00  0.00    -0.360 N 
HETATM   14  C           1     -22.715  -4.133  -8.341  0.00  0.00     0.180 A 
HETATM   15  H           1     -21.494  -4.706 -10.027  0.00  0.00     0.166 HD
HETATM   16  N           1     -22.626  -4.298  -7.041  0.00  0.00    -0.355 N 
ATOM     17  HN          1     -23.282  -3.973  -6.330  1.00  0.00     0.166 HD
ENDBRANCH  10  11
ENDBRANCH   5  10
ENDBRANCH   2   5
BRANCH   1  18
HETATM   18  C           1     -19.830  -9.533  -3.828  0.00  0.00     0.186 C 
BRANCH  18  19
HETATM   19  C           1     -18.323  -9.332  -3.736  0.00  0.00     0.046 C 
BRANCH  19  20
HETATM   20  C           1     -17.620 -10.328  -4.649  0.00  0.00     0.116 C 
BRANCH  20  21
HETATM   21  C           1     -18.059 -10.101  -6.075  0.00  0.00     0.172 C 
HETATM   22  O           1     -17.920  -8.976  -6.600  0.00  0.00    -0.648 OA
HETATM   23  O           1     -18.561 -11.039  -6.731  0.00  0.00    -0.648 OA
ENDBRANCH  20  21
ENDBRANCH  19  20
ENDBRANCH  18  19
BRANCH  18  24
HETATM   24  C           1     -20.300 -10.351  -2.649  0.00  0.00     0.196 C 
HETATM   25  O           1     -20.010  -9.994  -1.486  0.00  0.00    -0.646 OA
HETATM   26  O           1     -20.978 -11.384  -2.836  0.00  0.00    -0.646 OA
ENDBRANCH  18  24
ENDBRANCH   1  18
TORSDOF 9
ENDMDL
MODEL 9
REMARK VINA RESULT:      -5.3      3.295      5.487
REMARK  9 active torsions:
REMARK  status: ('A' for Active; 'I' for Inactive)
REMARK    1  A    between atoms: N_2  and  C_19 
REMARK       I    between atoms: N_2  and  C_3 
REMARK    2  A    between atoms: C_3  and  C_24 
REMARK    3  A    between atoms: C_8  and  C_10 
REMARK    4  A    between atoms: C_10  and  C_11 
REMARK    5  A    between atoms: C_11  and  C_19 
REMARK    6  A    between atoms: N_14  and  C_24 
REMARK    7  A    between atoms: C_16  and  C_23 
REMARK    8  A    between atoms: C_19  and  C_20 
REMARK    9  A    between atoms: C_23  and  C_24 
ROOT
HETATM    1  N           1     -21.942  -9.116  -1.609  0.00  0.00    -0.345 N 
HETATM    2  C           1     -21.639  -7.975  -2.303  0.00  0.00     0.249 C 
HETATM    3  O           1     -21.706  -6.900  -1.757  0.00  0.00    -0.271 OA
HETATM    4  H           1     -21.885 -10.017  -2.067  0.00  0.00     0.163 HD
ENDROOT
BRANCH   2   5
HETATM    5  C           1     -21.220  -8.062  -3.751  0.00  0.00     0.280 C 
BRANCH   5   6
HETATM    6  N           1     -21.442  -9.459  -4.252  0.00  0.00    -0.066 N 
HETATM    7  H           1     -21.114  -9.530  -5.241  0.00  0.00     0.275 HD
HETATM    8  H           1     -20.905 -10.130  -3.658  0.00  0.00     0.275 HD
HETATM    9  H           1     -22.460  -9.688  -4.205  0.00  0.00     0.275 HD
ENDBRANCH   5   6
BRANCH   5  10
HETATM   10  C           1     -22.049  -7.089  -4.579  0.00  0.00     0.101 C 
BRANCH  10  11
HETATM   11  C           1     -21.150  -6.328  -5.503  0.00  0.00     0.028 A 
HETATM   12  C           1     -20.522  -5.147  -5.185  0.00  0.00     0.114 A 
HETATM   13  N           1     -19.813  -4.811  -6.305  0.00  0.00    -0.360 N 
HETATM   14  C           1     -20.034  -5.782  -7.238  0.00  0.00     0.180 A 
HETATM   15  H           1     -19.208  -3.961  -6.424  0.00  0.00     0.166 HD
HETATM   16  N           1     -20.839  -6.714  -6.782  0.00  0.00    -0.355 N 
ATOM     17  HN          1     -21.164  -7.546  -7.273  1.00  0.00     0.166 HD
ENDBRANCH  10  11
ENDBRANCH   5  10
ENDBRANCH   2   5
BRANCH   1  18
HETATM   18  C           1     -22.343  -9.033  -0.219  0.00  0.00     0.186 C 
BRANCH  18  19
HETATM   19  C           1     -23.555  -9.924   0.015  0.00  0.00     0.046 C 
BRANCH  19  20
HETATM   20  C           1     -23.664 -10.942  -1.113  0.00  0.00     0.116 C 
BRANCH  20  21
HETATM   21  C           1     -23.676 -12.335  -0.535  0.00  0.00     0.172 C 
HETATM   22  O           1     -23.829 -13.322  -1.287  0.00  0.00    -0.648 OA
HETATM   23  O           1     -23.533 -12.503   0.695  0.00  0.00    -0.648 OA
ENDBRANCH  20  21
ENDBRANCH  19  20
ENDBRANCH  18  19
BRANCH  18  24
HETATM   24  C           1     -21.206  -9.491   0.661  0.00  0.00     0.196 C 
HETATM   25  O           1     -20.897  -8.832   1.677  0.00  0.00    -0.646 OA
HETATM   26  O           1     -20.574 -10.531   0.374  0.00  0.00    -0.646 OA
ENDBRANCH  18  24
ENDBRANCH   1  18
TORSDOF 9
ENDMDL
