MODEL 1
REMARK VINA RESULT:      -7.6      0.000      0.000
REMARK  10 active torsions:
REMARK  status: ('A' for Active; 'I' for Inactive)
REMARK    1  A    between atoms: N_7  and  C_20 
REMARK    2  A    between atoms: O_12  and  P_13 
REMARK    3  A    between atoms: P_13  and  O_14 
REMARK    4  A    between atoms: O_14  and  C_15 
REMARK    5  A    between atoms: C_18  and  C_19 
REMARK    6  A    between atoms: C_19  and  C_20 
REMARK    7  A    between atoms: C_20  and  C_21 
REMARK       I    between atoms: C_21  and  N_22 
REMARK    8  A    between atoms: N_22  and  C_26 
REMARK    9  A    between atoms: C_25  and  C_26 
REMARK   10  A    between atoms: C_26  and  C_28 
ROOT
HETATM    1  C           1     -20.352  -7.497  -5.308  0.00  0.00     0.278 C 
ENDROOT
BRANCH   1   2
HETATM    2  N           1     -21.409  -8.169  -6.132  0.00  0.00    -0.066 N 
HETATM    3  H           1     -21.864  -8.922  -5.568  0.00  0.00     0.275 HD
HETATM    4  H           1     -20.971  -8.587  -6.984  0.00  0.00     0.275 HD
HETATM    5  H           1     -22.127  -7.467  -6.419  0.00  0.00     0.275 HD
ENDBRANCH   1   2
BRANCH   1   6
HETATM    6  C           1     -20.728  -6.036  -5.096  0.00  0.00     0.081 C 
BRANCH   6   7
HETATM    7  C           1     -21.026  -5.399  -6.418  0.00  0.00    -0.056 A 
HETATM    8  C           1     -20.075  -5.434  -7.438  0.00  0.00     0.010 A 
HETATM    9  C           1     -20.353  -4.841  -8.670  0.00  0.00     0.038 A 
HETATM   10  C           1     -21.581  -4.215  -8.882  0.00  0.00     0.081 A 
HETATM   11  C           1     -22.532  -4.181  -7.862  0.00  0.00     0.038 A 
HETATM   12  C           1     -22.254  -4.774  -6.630  0.00  0.00     0.010 A 
BRANCH  10  13
HETATM   13  O           1     -21.851  -3.639 -10.078  0.00  0.00    -0.247 OA
BRANCH  13  14
HETATM   14  P           1     -23.162  -4.137 -10.880  0.00  0.00     0.411 P 
HETATM   15  O           1     -24.203  -3.087 -10.825  0.00  0.00    -0.624 OA
HETATM   16  O           1     -23.678  -5.377 -10.261  0.00  0.00    -0.624 OA
BRANCH  14  17
HETATM   17  O           1     -22.773  -4.428 -12.421  0.00  0.00    -0.300 OA
HETATM   18  H           1     -22.866  -5.360 -12.525  0.00  0.00     0.223 HD
ENDBRANCH  14  17
ENDBRANCH  13  14
ENDBRANCH  10  13
ENDBRANCH   6   7
ENDBRANCH   1   6
BRANCH   1  19
HETATM   19  C           1     -20.242  -8.188  -3.970  0.00  0.00     0.249 C 
HETATM   20  O           1     -19.201  -8.701  -3.640  0.00  0.00    -0.271 OA
HETATM   21  N           1     -21.324  -8.231  -3.133  0.00  0.00    -0.344 N 
HETATM   22  H           1     -22.197  -7.801  -3.410  0.00  0.00     0.163 HD
BRANCH  21  23
HETATM   23  C           1     -21.220  -8.895  -1.848  0.00  0.00     0.189 C 
BRANCH  23  24
HETATM   24  C           1     -21.622 -10.342  -1.995  0.00  0.00     0.197 C 
HETATM   25  O           1     -20.752 -11.238  -1.962  0.00  0.00    -0.646 OA
HETATM   26  O           1     -22.825 -10.643  -2.153  0.00  0.00    -0.646 OA
ENDBRANCH  23  24
BRANCH  23  27
HETATM   27  C           1     -22.142  -8.211  -0.847  0.00  0.00     0.010 C 
HETATM   28  C           1     -21.580  -8.381   0.558  0.00  0.00     0.012 C 
HETATM   29  C           1     -22.240  -6.728  -1.177  0.00  0.00     0.012 C 
ENDBRANCH  23  27
ENDBRANCH  21  23
ENDBRANCH   1  19
TORSDOF 10
ENDMDL
MODEL 2
REMARK VINA RESULT:      -7.6      3.311      8.950
REMARK  10 active torsions:
REMARK  status: ('A' for Active; 'I' for Inactive)
REMARK    1  A    between atoms: N_7  and  C_20 
REMARK    2  A    between atoms: O_12  and  P_13 
REMARK    3  A    between atoms: P_13  and  O_14 
REMARK    4  A    between atoms: O_14  and  C_15 
REMARK    5  A    between atoms: C_18  and  C_19 
REMARK    6  A    between atoms: C_19  and  C_20 
REMARK    7  A    between atoms: C_20  and  C_21 
REMARK       I    between atoms: C_21  and  N_22 
REMARK    8  A    between atoms: N_22  and  C_26 
REMARK    9  A    between atoms: C_25  and  C_26 
REMARK   10  A    between atoms: C_26  and  C_28 
ROOT
HETATM    1  C           1     -20.976  -5.449  -6.187  0.00  0.00     0.278 C 
ENDROOT
BRANCH   1   2
HETATM    2  N           1     -20.087  -4.742  -5.206  0.00  0.00    -0.066 N 
HETATM    3  H           1     -19.565  -5.447  -4.638  0.00  0.00     0.275 HD
HETATM    4  H           1     -20.671  -4.148  -4.574  0.00  0.00     0.275 HD
HETATM    5  H           1     -19.408  -4.139  -5.722  0.00  0.00     0.275 HD
ENDBRANCH   1   2
BRANCH   1   6
HETATM    6  C           1     -22.201  -5.990  -5.462  0.00  0.00     0.081 C 
BRANCH   6   7
HETATM    7  C           1     -21.766  -6.794  -4.276  0.00  0.00    -0.056 A 
HETATM    8  C           1     -21.903  -6.271  -2.990  0.00  0.00     0.010 A 
HETATM    9  C           1     -21.497  -7.021  -1.886  0.00  0.00     0.038 A 
HETATM   10  C           1     -20.956  -8.293  -2.068  0.00  0.00     0.081 A 
HETATM   11  C           1     -20.820  -8.817  -3.354  0.00  0.00     0.038 A 
HETATM   12  C           1     -21.225  -8.066  -4.458  0.00  0.00     0.010 A 
BRANCH  10  13
HETATM   13  O           1     -20.562  -9.021  -0.995  0.00  0.00    -0.247 OA
BRANCH  13  14
HETATM   14  P           1     -21.685  -9.453   0.082  0.00  0.00     0.411 P 
HETATM   15  O           1     -21.265 -10.698   0.762  0.00  0.00    -0.624 OA
HETATM   16  O           1     -22.973  -9.679  -0.612  0.00  0.00    -0.624 OA
BRANCH  14  17
HETATM   17  O           1     -21.863  -8.277   1.175  0.00  0.00    -0.300 OA
HETATM   18  H           1     -22.156  -7.528   0.684  0.00  0.00     0.223 HD
ENDBRANCH  14  17
ENDBRANCH  13  14
ENDBRANCH  10  13
ENDBRANCH   6   7
ENDBRANCH   1   6
BRANCH   1  19
HETATM   19  C           1     -21.412  -4.479  -7.258  0.00  0.00     0.249 C 
HETATM   20  O           1     -21.446  -3.295  -7.022  0.00  0.00    -0.271 OA
HETATM   21  N           1     -21.768  -4.942  -8.496  0.00  0.00    -0.344 N 
HETATM   22  H           1     -21.739  -5.934  -8.692  0.00  0.00     0.163 HD
BRANCH  21  23
HETATM   23  C           1     -22.187  -4.011  -9.525  0.00  0.00     0.189 C 
BRANCH  23  24
HETATM   24  C           1     -23.658  -4.200  -9.805  0.00  0.00     0.197 C 
HETATM   25  O           1     -24.486  -3.363  -9.385  0.00  0.00    -0.646 OA
HETATM   26  O           1     -24.048  -5.194 -10.455  0.00  0.00    -0.646 OA
ENDBRANCH  23  24
BRANCH  23  27
HETATM   27  C           1     -21.391  -4.268 -10.797  0.00  0.00     0.010 C 
HETATM   28  C           1     -21.260  -2.972 -11.585  0.00  0.00     0.012 C 
HETATM   29  C           1     -20.004  -4.782 -10.434  0.00  0.00     0.012 C 
ENDBRANCH  23  27
ENDBRANCH  21  23
ENDBRANCH   1  19
TORSDOF 10
ENDMDL
MODEL 3
REMARK VINA RESULT:      -7.5     12.410     14.632
REMARK  10 active torsions:
REMARK  status: ('A' for Active; 'I' for Inactive)
REMARK    1  A    between atoms: N_7  and  C_20 
REMARK    2  A    between atoms: O_12  and  P_13 
REMARK    3  A    between atoms: P_13  and  O_14 
REMARK    4  A    between atoms: O_14  and  C_15 
REMARK    5  A    between atoms: C_18  and  C_19 
REMARK    6  A    between atoms: C_19  and  C_20 
REMARK    7  A    between atoms: C_20  and  C_21 
REMARK       I    between atoms: C_21  and  N_22 
REMARK    8  A    between atoms: N_22  and  C_26 
REMARK    9  A    between atoms: C_25  and  C_26 
REMARK   10  A    between atoms: C_26  and  C_28 
ROOT
HETATM    1  C           1     -32.819  -4.674 -16.842  0.00  0.00     0.278 C 
ENDROOT
BRANCH   1   2
HETATM    2  N           1     -31.788  -3.585 -16.807  0.00  0.00    -0.066 N 
HETATM    3  H           1     -32.260  -2.655 -16.874  0.00  0.00     0.275 HD
HETATM    4  H           1     -31.131  -3.703 -17.612  0.00  0.00     0.275 HD
HETATM    5  H           1     -31.253  -3.640 -15.911  0.00  0.00     0.275 HD
ENDBRANCH   1   2
BRANCH   1   6
HETATM    6  C           1     -32.124  -6.029 -16.848  0.00  0.00     0.081 C 
BRANCH   6   7
HETATM    7  C           1     -30.641  -5.831 -16.786  0.00  0.00    -0.056 A 
HETATM    8  C           1     -29.876  -5.918 -17.949  0.00  0.00     0.010 A 
HETATM    9  C           1     -28.495  -5.732 -17.890  0.00  0.00     0.038 A 
HETATM   10  C           1     -27.879  -5.460 -16.669  0.00  0.00     0.081 A 
HETATM   11  C           1     -28.644  -5.374 -15.505  0.00  0.00     0.038 A 
HETATM   12  C           1     -30.026  -5.559 -15.565  0.00  0.00     0.010 A 
BRANCH  10  13
HETATM   13  O           1     -26.537  -5.281 -16.612  0.00  0.00    -0.247 OA
BRANCH  13  14
HETATM   14  P           1     -25.637  -6.479 -16.010  0.00  0.00     0.411 P 
HETATM   15  O           1     -24.703  -6.965 -17.050  0.00  0.00    -0.624 OA
HETATM   16  O           1     -26.517  -7.588 -15.579  0.00  0.00    -0.624 OA
BRANCH  14  17
HETATM   17  O           1     -24.795  -5.937 -14.743  0.00  0.00    -0.300 OA
HETATM   18  H           1     -25.321  -5.245 -14.378  0.00  0.00     0.223 HD
ENDBRANCH  14  17
ENDBRANCH  13  14
ENDBRANCH  10  13
ENDBRANCH   6   7
ENDBRANCH   1   6
BRANCH   1  19
HETATM   19  C           1     -33.704  -4.567 -15.624  0.00  0.00     0.249 C 
HETATM   20  O           1     -34.869  -4.877 -15.696  0.00  0.00    -0.271 OA
HETATM   21  N           1     -33.185  -4.120 -14.439  0.00  0.00    -0.344 N 
HETATM   22  H           1     -32.209  -3.860 -14.380  0.00  0.00     0.163 HD
BRANCH  21  23
HETATM   23  C           1     -34.034  -4.017 -13.268  0.00  0.00     0.189 C 
BRANCH  23  24
HETATM   24  C           1     -34.529  -2.598 -13.129  0.00  0.00     0.197 C 
HETATM   25  O           1     -35.064  -2.025 -14.103  0.00  0.00    -0.646 OA
HETATM   26  O           1     -34.402  -1.996 -12.041  0.00  0.00    -0.646 OA
ENDBRANCH  23  24
BRANCH  23  27
HETATM   27  C           1     -33.238  -4.401 -12.028  0.00  0.00     0.010 C 
HETATM   28  C           1     -33.920  -5.569 -11.330  0.00  0.00     0.012 C 
HETATM   29  C           1     -31.828  -4.808 -12.435  0.00  0.00     0.012 C 
ENDBRANCH  23  27
ENDBRANCH  21  23
ENDBRANCH   1  19
TORSDOF 10
ENDMDL
MODEL 4
REMARK VINA RESULT:      -7.3      1.627      2.258
REMARK  10 active torsions:
REMARK  status: ('A' for Active; 'I' for Inactive)
REMARK    1  A    between atoms: N_7  and  C_20 
REMARK    2  A    between atoms: O_12  and  P_13 
REMARK    3  A    between atoms: P_13  and  O_14 
REMARK    4  A    between atoms: O_14  and  C_15 
REMARK    5  A    between atoms: C_18  and  C_19 
REMARK    6  A    between atoms: C_19  and  C_20 
REMARK    7  A    between atoms: C_20  and  C_21 
REMARK       I    between atoms: C_21  and  N_22 
REMARK    8  A    between atoms: N_22  and  C_26 
REMARK    9  A    between atoms: C_25  and  C_26 
REMARK   10  A    between atoms: C_26  and  C_28 
ROOT
HETATM    1  C           1     -21.745  -6.641  -3.344  0.00  0.00     0.278 C 
ENDROOT
BRANCH   1   2
HETATM    2  N           1     -22.484  -5.864  -2.294  0.00  0.00    -0.066 N 
HETATM    3  H           1     -22.231  -4.853  -2.367  0.00  0.00     0.275 HD
HETATM    4  H           1     -22.222  -6.224  -1.348  0.00  0.00     0.275 HD
HETATM    5  H           1     -23.512  -5.977  -2.437  0.00  0.00     0.275 HD
ENDBRANCH   1   2
BRANCH   1   6
HETATM    6  C           1     -20.553  -5.827  -3.831  0.00  0.00     0.081 C 
BRANCH   6   7
HETATM    7  C           1     -20.714  -5.530  -5.290  0.00  0.00    -0.056 A 
HETATM    8  C           1     -21.582  -6.298  -6.066  0.00  0.00     0.010 A 
HETATM    9  C           1     -21.732  -6.020  -7.425  0.00  0.00     0.038 A 
HETATM   10  C           1     -21.015  -4.975  -8.007  0.00  0.00     0.081 A 
HETATM   11  C           1     -20.147  -4.207  -7.231  0.00  0.00     0.038 A 
HETATM   12  C           1     -19.997  -4.485  -5.872  0.00  0.00     0.010 A 
BRANCH  10  13
HETATM   13  O           1     -21.161  -4.706  -9.327  0.00  0.00    -0.247 OA
BRANCH  13  14
HETATM   14  P           1     -22.558  -4.064  -9.820  0.00  0.00     0.411 P 
HETATM   15  O           1     -23.456  -5.140 -10.295  0.00  0.00    -0.624 OA
HETATM   16  O           1     -22.302  -3.111 -10.923  0.00  0.00    -0.624 OA
BRANCH  14  17
HETATM   17  O           1     -23.257  -3.285  -8.589  0.00  0.00    -0.300 OA
HETATM   18  H           1     -23.839  -2.663  -8.992  0.00  0.00     0.223 HD
ENDBRANCH  14  17
ENDBRANCH  13  14
ENDBRANCH  10  13
ENDBRANCH   6   7
ENDBRANCH   1   6
BRANCH   1  19
HETATM   19  C           1     -21.258  -7.943  -2.755  0.00  0.00     0.249 C 
HETATM   20  O           1     -20.287  -8.490  -3.221  0.00  0.00    -0.271 OA
HETATM   21  N           1     -21.916  -8.502  -1.694  0.00  0.00    -0.344 N 
HETATM   22  H           1     -22.729  -8.044  -1.304  0.00  0.00     0.163 HD
BRANCH  21  23
HETATM   23  C           1     -21.449  -9.753  -1.128  0.00  0.00     0.189 C 
BRANCH  23  24
HETATM   24  C           1     -22.213 -10.900  -1.744  0.00  0.00     0.197 C 
HETATM   25  O           1     -23.459 -10.940  -1.654  0.00  0.00    -0.646 OA
HETATM   26  O           1     -21.599 -11.810  -2.343  0.00  0.00    -0.646 OA
ENDBRANCH  23  24
BRANCH  23  27
HETATM   27  C           1     -21.674  -9.745   0.378  0.00  0.00     0.010 C 
HETATM   28  C           1     -20.550 -10.510   1.063  0.00  0.00     0.012 C 
HETATM   29  C           1     -21.688  -8.308   0.882  0.00  0.00     0.012 C 
ENDBRANCH  23  27
ENDBRANCH  21  23
ENDBRANCH   1  19
TORSDOF 10
ENDMDL
MODEL 5
REMARK VINA RESULT:      -7.3     13.626     15.390
REMARK  10 active torsions:
REMARK  status: ('A' for Active; 'I' for Inactive)
REMARK    1  A    between atoms: N_7  and  C_20 
REMARK    2  A    between atoms: O_12  and  P_13 
REMARK    3  A    between atoms: P_13  and  O_14 
REMARK    4  A    between atoms: O_14  and  C_15 
REMARK    5  A    between atoms: C_18  and  C_19 
REMARK    6  A    between atoms: C_19  and  C_20 
REMARK    7  A    between atoms: C_20  and  C_21 
REMARK       I    between atoms: C_21  and  N_22 
REMARK    8  A    between atoms: N_22  and  C_26 
REMARK    9  A    between atoms: C_25  and  C_26 
REMARK   10  A    between atoms: C_26  and  C_28 
ROOT
HETATM    1  C           1     -32.810  -4.546 -16.614  0.00  0.00     0.278 C 
ENDROOT
BRANCH   1   2
HETATM    2  N           1     -32.952  -3.327 -17.477  0.00  0.00    -0.066 N 
HETATM    3  H           1     -33.809  -2.800 -17.196  0.00  0.00     0.275 HD
HETATM    4  H           1     -33.034  -3.618 -18.478  0.00  0.00     0.275 HD
HETATM    5  H           1     -32.113  -2.717 -17.360  0.00  0.00     0.275 HD
ENDBRANCH   1   2
BRANCH   1   6
HETATM    6  C           1     -31.381  -4.634 -16.094  0.00  0.00     0.081 C 
BRANCH   6   7
HETATM    7  C           1     -30.530  -5.357 -17.092  0.00  0.00    -0.056 A 
HETATM    8  C           1     -30.653  -6.738 -17.243  0.00  0.00     0.010 A 
HETATM    9  C           1     -29.860  -7.411 -18.173  0.00  0.00     0.038 A 
HETATM   10  C           1     -28.945  -6.703 -18.951  0.00  0.00     0.081 A 
HETATM   11  C           1     -28.822  -5.321 -18.800  0.00  0.00     0.038 A 
HETATM   12  C           1     -29.615  -4.649 -17.870  0.00  0.00     0.010 A 
BRANCH  10  13
HETATM   13  O           1     -28.175  -7.356 -19.854  0.00  0.00    -0.247 OA
BRANCH  13  14
HETATM   14  P           1     -26.636  -6.894 -20.014  0.00  0.00     0.411 P 
HETATM   15  O           1     -26.576  -5.636 -20.791  0.00  0.00    -0.624 OA
HETATM   16  O           1     -25.875  -7.948 -20.720  0.00  0.00    -0.624 OA
BRANCH  14  17
HETATM   17  O           1     -25.991  -6.654 -18.552  0.00  0.00    -0.300 OA
HETATM   18  H           1     -26.350  -7.338 -18.012  0.00  0.00     0.223 HD
ENDBRANCH  14  17
ENDBRANCH  13  14
ENDBRANCH  10  13
ENDBRANCH   6   7
ENDBRANCH   1   6
BRANCH   1  19
HETATM   19  C           1     -33.765  -4.450 -15.449  0.00  0.00     0.249 C 
HETATM   20  O           1     -34.925  -4.751 -15.593  0.00  0.00    -0.271 OA
HETATM   21  N           1     -33.314  -4.023 -14.229  0.00  0.00    -0.344 N 
HETATM   22  H           1     -32.342  -3.771 -14.109  0.00  0.00     0.163 HD
BRANCH  21  23
HETATM   23  C           1     -34.231  -3.931 -13.109  0.00  0.00     0.189 C 
BRANCH  23  24
HETATM   24  C           1     -34.662  -2.496 -12.930  0.00  0.00     0.197 C 
HETATM   25  O           1     -35.097  -1.848 -13.907  0.00  0.00    -0.646 OA
HETATM   26  O           1     -34.583  -1.955 -11.806  0.00  0.00    -0.646 OA
ENDBRANCH  23  24
BRANCH  23  27
HETATM   27  C           1     -33.536  -4.414 -11.843  0.00  0.00     0.010 C 
HETATM   28  C           1     -34.216  -5.681 -11.344  0.00  0.00     0.012 C 
HETATM   29  C           1     -32.073  -4.710 -12.147  0.00  0.00     0.012 C 
ENDBRANCH  23  27
ENDBRANCH  21  23
ENDBRANCH   1  19
TORSDOF 10
ENDMDL
MODEL 6
REMARK VINA RESULT:      -6.8      1.589      2.170
REMARK  10 active torsions:
REMARK  status: ('A' for Active; 'I' for Inactive)
REMARK    1  A    between atoms: N_7  and  C_20 
REMARK    2  A    between atoms: O_12  and  P_13 
REMARK    3  A    between atoms: P_13  and  O_14 
REMARK    4  A    between atoms: O_14  and  C_15 
REMARK    5  A    between atoms: C_18  and  C_19 
REMARK    6  A    between atoms: C_19  and  C_20 
REMARK    7  A    between atoms: C_20  and  C_21 
REMARK       I    between atoms: C_21  and  N_22 
REMARK    8  A    between atoms: N_22  and  C_26 
REMARK    9  A    between atoms: C_25  and  C_26 
REMARK   10  A    between atoms: C_26  and  C_28 
ROOT
HETATM    1  C           1     -21.678  -6.481  -4.645  0.00  0.00     0.278 C 
ENDROOT
BRANCH   1   2
HETATM    2  N           1     -22.148  -6.137  -3.263  0.00  0.00    -0.066 N 
HETATM    3  H           1     -21.440  -6.457  -2.564  0.00  0.00     0.275 HD
HETATM    4  H           1     -23.061  -6.613  -3.079  0.00  0.00     0.275 HD
HETATM    5  H           1     -22.272  -5.103  -3.184  0.00  0.00     0.275 HD
ENDBRANCH   1   2
BRANCH   1   6
HETATM    6  C           1     -20.600  -5.493  -5.074  0.00  0.00     0.081 C 
BRANCH   6   7
HETATM    7  C           1     -20.974  -4.888  -6.392  0.00  0.00    -0.056 A 
HETATM    8  C           1     -19.992  -4.314  -7.199  0.00  0.00     0.010 A 
HETATM    9  C           1     -20.341  -3.750  -8.427  0.00  0.00     0.038 A 
HETATM   10  C           1     -21.671  -3.761  -8.846  0.00  0.00     0.081 A 
HETATM   11  C           1     -22.653  -4.335  -8.039  0.00  0.00     0.038 A 
HETATM   12  C           1     -22.304  -4.898  -6.811  0.00  0.00     0.010 A 
BRANCH  10  13
HETATM   13  O           1     -22.010  -3.213 -10.039  0.00  0.00    -0.247 OA
BRANCH  13  14
HETATM   14  P           1     -21.776  -4.094 -11.371  0.00  0.00     0.411 P 
HETATM   15  O           1     -22.948  -4.969 -11.597  0.00  0.00    -0.624 OA
HETATM   16  O           1     -20.563  -4.926 -11.206  0.00  0.00    -0.624 OA
BRANCH  14  17
HETATM   17  O           1     -21.585  -3.113 -12.640  0.00  0.00    -0.300 OA
HETATM   18  H           1     -21.297  -2.293 -12.274  0.00  0.00     0.223 HD
ENDBRANCH  14  17
ENDBRANCH  13  14
ENDBRANCH  10  13
ENDBRANCH   6   7
ENDBRANCH   1   6
BRANCH   1  19
HETATM   19  C           1     -21.108  -7.879  -4.649  0.00  0.00     0.249 C 
HETATM   20  O           1     -20.392  -8.237  -5.553  0.00  0.00    -0.271 OA
HETATM   21  N           1     -21.404  -8.740  -3.627  0.00  0.00    -0.344 N 
HETATM   22  H           1     -22.005  -8.441  -2.870  0.00  0.00     0.163 HD
BRANCH  21  23
HETATM   23  C           1     -20.858 -10.084  -3.629  0.00  0.00     0.189 C 
BRANCH  23  24
HETATM   24  C           1     -21.859 -11.032  -4.243  0.00  0.00     0.197 C 
HETATM   25  O           1     -21.635 -11.535  -5.366  0.00  0.00    -0.646 OA
HETATM   26  O           1     -22.911 -11.313  -3.630  0.00  0.00    -0.646 OA
ENDBRANCH  23  24
BRANCH  23  27
HETATM   27  C           1     -20.561 -10.514  -2.199  0.00  0.00     0.010 C 
HETATM   28  C           1     -19.133 -11.036  -2.113  0.00  0.00     0.012 C 
HETATM   29  C           1     -20.722  -9.322  -1.266  0.00  0.00     0.012 C 
ENDBRANCH  23  27
ENDBRANCH  21  23
ENDBRANCH   1  19
TORSDOF 10
ENDMDL
MODEL 7
REMARK VINA RESULT:      -6.5      3.779      5.600
REMARK  10 active torsions:
REMARK  status: ('A' for Active; 'I' for Inactive)
REMARK    1  A    between atoms: N_7  and  C_20 
REMARK    2  A    between atoms: O_12  and  P_13 
REMARK    3  A    between atoms: P_13  and  O_14 
REMARK    4  A    between atoms: O_14  and  C_15 
REMARK    5  A    between atoms: C_18  and  C_19 
REMARK    6  A    between atoms: C_19  and  C_20 
REMARK    7  A    between atoms: C_20  and  C_21 
REMARK       I    between atoms: C_21  and  N_22 
REMARK    8  A    between atoms: N_22  and  C_26 
REMARK    9  A    between atoms: C_25  and  C_26 
REMARK   10  A    between atoms: C_26  and  C_28 
ROOT
HETATM    1  C           1     -20.752 -10.746  -1.610  0.00  0.00     0.278 C 
ENDROOT
BRANCH   1   2
HETATM    2  N           1     -21.656 -11.352  -0.579  0.00  0.00    -0.066 N 
HETATM    3  H           1     -21.956 -10.615   0.098  0.00  0.00     0.275 HD
HETATM    4  H           1     -21.144 -12.108  -0.069  0.00  0.00     0.275 HD
HETATM    5  H           1     -22.497 -11.758  -1.048  0.00  0.00     0.275 HD
ENDBRANCH   1   2
BRANCH   1   6
HETATM    6  C           1     -20.450  -9.301  -1.234  0.00  0.00     0.081 C 
BRANCH   6   7
HETATM    7  C           1     -20.950  -8.389  -2.312  0.00  0.00    -0.056 A 
HETATM    8  C           1     -20.966  -8.821  -3.638  0.00  0.00     0.010 A 
HETATM    9  C           1     -21.432  -7.971  -4.641  0.00  0.00     0.038 A 
HETATM   10  C           1     -21.883  -6.692  -4.318  0.00  0.00     0.081 A 
HETATM   11  C           1     -21.867  -6.260  -2.992  0.00  0.00     0.038 A 
HETATM   12  C           1     -21.401  -7.110  -1.988  0.00  0.00     0.010 A 
BRANCH  10  13
HETATM   13  O           1     -22.335  -5.867  -5.293  0.00  0.00    -0.247 OA
BRANCH  13  14
HETATM   14  P           1     -21.253  -5.224  -6.305  0.00  0.00     0.411 P 
HETATM   15  O           1     -20.080  -4.749  -5.538  0.00  0.00    -0.624 OA
HETATM   16  O           1     -21.866  -4.086  -7.026  0.00  0.00    -0.624 OA
BRANCH  14  17
HETATM   17  O           1     -20.781  -6.343  -7.371  0.00  0.00    -0.300 OA
HETATM   18  H           1     -20.353  -7.006  -6.856  0.00  0.00     0.223 HD
ENDBRANCH  14  17
ENDBRANCH  13  14
ENDBRANCH  10  13
ENDBRANCH   6   7
ENDBRANCH   1   6
BRANCH   1  19
HETATM   19  C           1     -19.463 -11.529  -1.670  0.00  0.00     0.249 C 
HETATM   20  O           1     -19.483 -12.703  -1.953  0.00  0.00    -0.271 OA
HETATM   21  N           1     -18.272 -10.908  -1.405  0.00  0.00    -0.344 N 
HETATM   22  H           1     -18.256  -9.925  -1.168  0.00  0.00     0.163 HD
BRANCH  21  23
HETATM   23  C           1     -17.033 -11.660  -1.462  0.00  0.00     0.189 C 
BRANCH  23  24
HETATM   24  C           1     -16.605 -12.030  -0.064  0.00  0.00     0.197 C 
HETATM   25  O           1     -17.277 -12.849   0.600  0.00  0.00    -0.646 OA
HETATM   26  O           1     -15.578 -11.516   0.432  0.00  0.00    -0.646 OA
ENDBRANCH  23  24
BRANCH  23  27
HETATM   27  C           1     -15.953 -10.810  -2.116  0.00  0.00     0.010 C 
HETATM   28  C           1     -15.190 -11.651  -3.130  0.00  0.00     0.012 C 
HETATM   29  C           1     -16.597  -9.625  -2.825  0.00  0.00     0.012 C 
ENDBRANCH  23  27
ENDBRANCH  21  23
ENDBRANCH   1  19
TORSDOF 10
ENDMDL
MODEL 8
REMARK VINA RESULT:      -6.5      3.397      4.981
REMARK  10 active torsions:
REMARK  status: ('A' for Active; 'I' for Inactive)
REMARK    1  A    between atoms: N_7  and  C_20 
REMARK    2  A    between atoms: O_12  and  P_13 
REMARK    3  A    between atoms: P_13  and  O_14 
REMARK    4  A    between atoms: O_14  and  C_15 
REMARK    5  A    between atoms: C_18  and  C_19 
REMARK    6  A    between atoms: C_19  and  C_20 
REMARK    7  A    between atoms: C_20  and  C_21 
REMARK       I    between atoms: C_21  and  N_22 
REMARK    8  A    between atoms: N_22  and  C_26 
REMARK    9  A    between atoms: C_25  and  C_26 
REMARK   10  A    between atoms: C_26  and  C_28 
ROOT
HETATM    1  C           1     -22.129  -8.748  -0.623  0.00  0.00     0.278 C 
ENDROOT
BRANCH   1   2
HETATM    2  N           1     -23.017  -7.923   0.263  0.00  0.00    -0.066 N 
HETATM    3  H           1     -22.996  -8.310   1.233  0.00  0.00     0.275 HD
HETATM    4  H           1     -23.995  -7.951  -0.104  0.00  0.00     0.275 HD
HETATM    5  H           1     -22.677  -6.935   0.274  0.00  0.00     0.275 HD
ENDBRANCH   1   2
BRANCH   1   6
HETATM    6  C           1     -20.912  -7.925  -1.026  0.00  0.00     0.081 C 
BRANCH   6   7
HETATM    7  C           1     -20.963  -7.646  -2.497  0.00  0.00    -0.056 A 
HETATM    8  C           1     -21.841  -6.683  -2.993  0.00  0.00     0.010 A 
HETATM    9  C           1     -21.888  -6.424  -4.363  0.00  0.00     0.038 A 
HETATM   10  C           1     -21.056  -7.126  -5.235  0.00  0.00     0.081 A 
HETATM   11  C           1     -20.178  -8.089  -4.738  0.00  0.00     0.038 A 
HETATM   12  C           1     -20.131  -8.349  -3.368  0.00  0.00     0.010 A 
BRANCH  10  13
HETATM   13  O           1     -21.102  -6.874  -6.566  0.00  0.00    -0.247 OA
BRANCH  13  14
HETATM   14  P           1     -20.719  -5.388  -7.069  0.00  0.00     0.411 P 
HETATM   15  O           1     -21.945  -4.562  -7.150  0.00  0.00    -0.624 OA
HETATM   16  O           1     -20.088  -5.467  -8.405  0.00  0.00    -0.624 OA
BRANCH  14  17
HETATM   17  O           1     -19.686  -4.715  -6.025  0.00  0.00    -0.300 OA
HETATM   18  H           1     -20.225  -4.212  -5.438  0.00  0.00     0.223 HD
ENDBRANCH  14  17
ENDBRANCH  13  14
ENDBRANCH  10  13
ENDBRANCH   6   7
ENDBRANCH   1   6
BRANCH   1  19
HETATM   19  C           1     -21.679  -9.979   0.125  0.00  0.00     0.249 C 
HETATM   20  O           1     -20.996  -9.869   1.114  0.00  0.00    -0.271 OA
HETATM   21  N           1     -22.045 -11.221  -0.320  0.00  0.00    -0.344 N 
HETATM   22  H           1     -22.617 -11.313  -1.150  0.00  0.00     0.163 HD
BRANCH  21  23
HETATM   23  C           1     -21.613 -12.405   0.397  0.00  0.00     0.189 C 
BRANCH  23  24
HETATM   24  C           1     -20.388 -12.978  -0.272  0.00  0.00     0.197 C 
HETATM   25  O           1     -19.252 -12.740   0.194  0.00  0.00    -0.646 OA
HETATM   26  O           1     -20.508 -13.690  -1.293  0.00  0.00    -0.646 OA
ENDBRANCH  23  24
BRANCH  23  27
HETATM   27  C           1     -22.729 -13.441   0.386  0.00  0.00     0.010 C 
HETATM   28  C           1     -23.277 -13.609   1.796  0.00  0.00     0.012 C 
HETATM   29  C           1     -23.846 -12.976  -0.539  0.00  0.00     0.012 C 
ENDBRANCH  23  27
ENDBRANCH  21  23
ENDBRANCH   1  19
TORSDOF 10
ENDMDL
MODEL 9
REMARK VINA RESULT:      -6.4      3.665      5.488
REMARK  10 active torsions:
REMARK  status: ('A' for Active; 'I' for Inactive)
REMARK    1  A    between atoms: N_7  and  C_20 
REMARK    2  A    between atoms: O_12  and  P_13 
REMARK    3  A    between atoms: P_13  and  O_14 
REMARK    4  A    between atoms: O_14  and  C_15 
REMARK    5  A    between atoms: C_18  and  C_19 
REMARK    6  A    between atoms: C_19  and  C_20 
REMARK    7  A    between atoms: C_20  and  C_21 
REMARK       I    between atoms: C_21  and  N_22 
REMARK    8  A    between atoms: N_22  and  C_26 
REMARK    9  A    between atoms: C_25  and  C_26 
REMARK   10  A    between atoms: C_26  and  C_28 
ROOT
HETATM    1  C           1     -21.908  -9.068  -0.071  0.00  0.00     0.278 C 
ENDROOT
BRANCH   1   2
HETATM    2  N           1     -21.161  -8.922   1.222  0.00  0.00    -0.066 N 
HETATM    3  H           1     -21.810  -9.103   2.021  0.00  0.00     0.275 HD
HETATM    4  H           1     -20.780  -7.951   1.295  0.00  0.00     0.275 HD
HETATM    5  H           1     -20.374  -9.608   1.250  0.00  0.00     0.275 HD
ENDBRANCH   1   2
BRANCH   1   6
HETATM    6  C           1     -20.915  -9.246  -1.212  0.00  0.00     0.081 C 
BRANCH   6   7
HETATM    7  C           1     -21.283  -8.335  -2.342  0.00  0.00    -0.056 A 
HETATM    8  C           1     -21.403  -8.842  -3.636  0.00  0.00     0.010 A 
HETATM    9  C           1     -21.747  -7.993  -4.688  0.00  0.00     0.038 A 
HETATM   10  C           1     -21.971  -6.638  -4.446  0.00  0.00     0.081 A 
HETATM   11  C           1     -21.851  -6.131  -3.152  0.00  0.00     0.038 A 
HETATM   12  C           1     -21.507  -6.980  -2.100  0.00  0.00     0.010 A 
BRANCH  10  13
HETATM   13  O           1     -22.304  -5.813  -5.468  0.00  0.00    -0.247 OA
BRANCH  13  14
HETATM   14  P           1     -21.113  -5.223  -6.385  0.00  0.00     0.411 P 
HETATM   15  O           1     -20.773  -6.201  -7.442  0.00  0.00    -0.624 OA
HETATM   16  O           1     -19.922  -4.969  -5.544  0.00  0.00    -0.624 OA
BRANCH  14  17
HETATM   17  O           1     -21.594  -3.840  -7.067  0.00  0.00    -0.300 OA
HETATM   18  H           1     -21.851  -4.075  -7.943  0.00  0.00     0.223 HD
ENDBRANCH  14  17
ENDBRANCH  13  14
ENDBRANCH  10  13
ENDBRANCH   6   7
ENDBRANCH   1   6
BRANCH   1  19
HETATM   19  C           1     -22.811 -10.275   0.004  0.00  0.00     0.249 C 
HETATM   20  O           1     -24.000 -10.131   0.155  0.00  0.00    -0.271 OA
HETATM   21  N           1     -22.280 -11.533  -0.099  0.00  0.00    -0.344 N 
HETATM   22  H           1     -21.284 -11.653  -0.225  0.00  0.00     0.163 HD
BRANCH  21  23
HETATM   23  C           1     -23.147 -12.693  -0.027  0.00  0.00     0.189 C 
BRANCH  23  24
HETATM   24  C           1     -22.811 -13.495   1.206  0.00  0.00     0.197 C 
HETATM   25  O           1     -23.618 -13.542   2.160  0.00  0.00    -0.646 OA
HETATM   26  O           1     -21.725 -14.111   1.275  0.00  0.00    -0.646 OA
ENDBRANCH  23  24
BRANCH  23  27
HETATM   27  C           1     -22.943 -13.557  -1.265  0.00  0.00     0.010 C 
HETATM   28  C           1     -24.167 -14.437  -1.476  0.00  0.00     0.012 C 
HETATM   29  C           1     -22.747 -12.662  -2.482  0.00  0.00     0.012 C 
ENDBRANCH  23  27
ENDBRANCH  21  23
ENDBRANCH   1  19
TORSDOF 10
ENDMDL
