MODEL 1
REMARK VINA RESULT:      -6.5      0.000      0.000
REMARK  7 active torsions:
REMARK  status: ('A' for Active; 'I' for Inactive)
REMARK    1  A    between atoms: N_3  and  C_12 
REMARK       I    between atoms: N_3  and  C_20 
REMARK    2  A    between atoms: C_8  and  C_12 
REMARK    3  A    between atoms: C_10  and  O_11 
REMARK    4  A    between atoms: C_10  and  C_12 
REMARK    5  A    between atoms: C_13  and  C_14 
REMARK    6  A    between atoms: C_14  and  C_20 
REMARK    7  A    between atoms: C_14  and  N_17 
ROOT
HETATM    1  O           1     -22.181  -3.589  -7.393  0.00  0.00    -0.271 OA
HETATM    2  N           1     -22.153  -4.810  -9.262  0.00  0.00    -0.343 N 
HETATM    3  H           1     -21.940  -5.695  -9.705  0.00  0.00     0.163 HD
HETATM    4  C           1     -21.927  -4.645  -7.922  0.00  0.00     0.249 C 
ENDROOT
BRANCH   2   5
HETATM    5  C           1     -22.695  -3.718 -10.047  0.00  0.00     0.214 C 
BRANCH   5   6
HETATM    6  C           1     -24.154  -3.981 -10.331  0.00  0.00     0.199 C 
HETATM    7  O           1     -24.661  -5.083 -10.031  0.00  0.00    -0.646 OA
HETATM    8  O           1     -24.855  -3.096 -10.869  0.00  0.00    -0.646 OA
ENDBRANCH   5   6
BRANCH   5   9
HETATM    9  C           1     -21.932  -3.610 -11.360  0.00  0.00     0.147 C 
HETATM   10  C           1     -20.490  -4.052 -11.147  0.00  0.00     0.042 C 
BRANCH   9  11
HETATM   11  O           1     -22.536  -4.432 -12.321  0.00  0.00    -0.393 OA
HETATM   12  H           1     -22.409  -5.322 -12.039  0.00  0.00     0.210 HD
ENDBRANCH   9  11
ENDBRANCH   5   9
ENDBRANCH   2   5
BRANCH   4  13
HETATM   13  C           1     -21.362  -5.781  -7.106  0.00  0.00     0.278 C 
BRANCH  13  14
HETATM   14  C           1     -21.388  -5.409  -5.629  0.00  0.00     0.017 C 
HETATM   15  C           1     -21.658  -6.654  -4.796  0.00  0.00     0.012 C 
HETATM   16  C           1     -20.042  -4.816  -5.232  0.00  0.00     0.012 C 
ENDBRANCH  13  14
BRANCH  13  17
HETATM   17  N           1     -19.948  -6.045  -7.529  0.00  0.00    -0.066 N 
HETATM   18  H           1     -19.701  -5.418  -8.328  0.00  0.00     0.275 HD
HETATM   19  H           1     -19.304  -5.859  -6.727  0.00  0.00     0.275 HD
HETATM   20  H           1     -19.854  -7.042  -7.828  0.00  0.00     0.275 HD
ENDBRANCH  13  17
ENDBRANCH   4  13
TORSDOF 7
ENDMDL
MODEL 2
REMARK VINA RESULT:      -5.4     10.732     12.403
REMARK  7 active torsions:
REMARK  status: ('A' for Active; 'I' for Inactive)
REMARK    1  A    between atoms: N_3  and  C_12 
REMARK       I    between atoms: N_3  and  C_20 
REMARK    2  A    between atoms: C_8  and  C_12 
REMARK    3  A    between atoms: C_10  and  O_11 
REMARK    4  A    between atoms: C_10  and  C_12 
REMARK    5  A    between atoms: C_13  and  C_14 
REMARK    6  A    between atoms: C_14  and  C_20 
REMARK    7  A    between atoms: C_14  and  N_17 
ROOT
HETATM    1  O           1     -27.495  -5.514 -20.456  0.00  0.00    -0.271 OA
HETATM    2  N           1     -28.036  -6.449 -18.502  0.00  0.00    -0.343 N 
HETATM    3  H           1     -27.913  -7.220 -17.857  0.00  0.00     0.163 HD
HETATM    4  C           1     -27.348  -6.433 -19.686  0.00  0.00     0.249 C 
ENDROOT
BRANCH   2   5
HETATM    5  C           1     -28.939  -5.364 -18.172  0.00  0.00     0.214 C 
BRANCH   5   6
HETATM    6  C           1     -28.284  -4.457 -17.160  0.00  0.00     0.199 C 
HETATM    7  O           1     -28.628  -3.258 -17.079  0.00  0.00    -0.646 OA
HETATM    8  O           1     -27.396  -4.904 -16.402  0.00  0.00    -0.646 OA
ENDBRANCH   5   6
BRANCH   5   9
HETATM    9  C           1     -30.224  -5.935 -17.588  0.00  0.00     0.147 C 
HETATM   10  C           1     -30.248  -7.444 -17.793  0.00  0.00     0.042 C 
BRANCH   9  11
HETATM   11  O           1     -30.282  -5.648 -16.217  0.00  0.00    -0.393 OA
HETATM   12  H           1     -30.029  -4.747 -16.115  0.00  0.00     0.210 HD
ENDBRANCH   9  11
ENDBRANCH   5   9
ENDBRANCH   2   5
BRANCH   4  13
HETATM   13  C           1     -26.409  -7.563 -20.030  0.00  0.00     0.278 C 
BRANCH  13  14
HETATM   14  C           1     -25.072  -6.992 -20.485  0.00  0.00     0.017 C 
HETATM   15  C           1     -24.066  -7.084 -19.346  0.00  0.00     0.012 C 
HETATM   16  C           1     -24.561  -7.789 -21.678  0.00  0.00     0.012 C 
ENDBRANCH  13  14
BRANCH  13  17
HETATM   17  N           1     -27.001  -8.387 -21.133  0.00  0.00    -0.066 N 
HETATM   18  H           1     -28.043  -8.309 -21.105  0.00  0.00     0.275 HD
HETATM   19  H           1     -26.649  -8.041 -22.054  0.00  0.00     0.275 HD
HETATM   20  H           1     -26.725  -9.387 -21.008  0.00  0.00     0.275 HD
ENDBRANCH  13  17
ENDBRANCH   4  13
TORSDOF 7
ENDMDL
MODEL 3
REMARK VINA RESULT:      -5.4     10.916     12.317
REMARK  7 active torsions:
REMARK  status: ('A' for Active; 'I' for Inactive)
REMARK    1  A    between atoms: N_3  and  C_12 
REMARK       I    between atoms: N_3  and  C_20 
REMARK    2  A    between atoms: C_8  and  C_12 
REMARK    3  A    between atoms: C_10  and  O_11 
REMARK    4  A    between atoms: C_10  and  C_12 
REMARK    5  A    between atoms: C_13  and  C_14 
REMARK    6  A    between atoms: C_14  and  C_20 
REMARK    7  A    between atoms: C_14  and  N_17 
ROOT
HETATM    1  O           1     -27.644  -5.364 -20.280  0.00  0.00    -0.271 OA
HETATM    2  N           1     -26.414  -6.939 -19.284  0.00  0.00    -0.343 N 
HETATM    3  H           1     -26.327  -7.612 -18.532  0.00  0.00     0.163 HD
HETATM    4  C           1     -27.540  -6.167 -19.383  0.00  0.00     0.249 C 
ENDROOT
BRANCH   2   5
HETATM    5  C           1     -25.346  -6.793 -20.254  0.00  0.00     0.214 C 
BRANCH   5   6
HETATM    6  C           1     -25.522  -7.815 -21.351  0.00  0.00     0.199 C 
HETATM    7  O           1     -24.771  -7.795 -22.349  0.00  0.00    -0.646 OA
HETATM    8  O           1     -26.419  -8.680 -21.260  0.00  0.00    -0.646 OA
ENDBRANCH   5   6
BRANCH   5   9
HETATM    9  C           1     -24.004  -7.010 -19.566  0.00  0.00     0.147 C 
HETATM   10  C           1     -24.219  -7.138 -18.064  0.00  0.00     0.042 C 
BRANCH   9  11
HETATM   11  O           1     -23.413  -8.182 -20.056  0.00  0.00    -0.393 OA
HETATM   12  H           1     -22.605  -7.931 -20.469  0.00  0.00     0.210 HD
ENDBRANCH   9  11
ENDBRANCH   5   9
ENDBRANCH   2   5
BRANCH   4  13
HETATM   13  C           1     -28.651  -6.318 -18.373  0.00  0.00     0.278 C 
BRANCH  13  14
HETATM   14  C           1     -29.177  -4.942 -17.986  0.00  0.00     0.017 C 
HETATM   15  C           1     -30.567  -5.081 -17.381  0.00  0.00     0.012 C 
HETATM   16  C           1     -28.240  -4.311 -16.963  0.00  0.00     0.012 C 
ENDBRANCH  13  14
BRANCH  13  17
HETATM   17  N           1     -28.125  -7.013 -17.153  0.00  0.00    -0.066 N 
HETATM   18  H           1     -28.871  -7.626 -16.753  0.00  0.00     0.275 HD
HETATM   19  H           1     -27.297  -7.595 -17.413  0.00  0.00     0.275 HD
HETATM   20  H           1     -27.842  -6.302 -16.442  0.00  0.00     0.275 HD
ENDBRANCH  13  17
ENDBRANCH   4  13
TORSDOF 7
ENDMDL
MODEL 4
REMARK VINA RESULT:      -5.4      9.147     11.830
REMARK  7 active torsions:
REMARK  status: ('A' for Active; 'I' for Inactive)
REMARK    1  A    between atoms: N_3  and  C_12 
REMARK       I    between atoms: N_3  and  C_20 
REMARK    2  A    between atoms: C_8  and  C_12 
REMARK    3  A    between atoms: C_10  and  O_11 
REMARK    4  A    between atoms: C_10  and  C_12 
REMARK    5  A    between atoms: C_13  and  C_14 
REMARK    6  A    between atoms: C_14  and  C_20 
REMARK    7  A    between atoms: C_14  and  N_17 
ROOT
HETATM    1  O           1     -23.704  -6.340 -19.148  0.00  0.00    -0.271 OA
HETATM    2  N           1     -25.609  -7.273 -18.451  0.00  0.00    -0.343 N 
HETATM    3  H           1     -26.307  -7.996 -18.578  0.00  0.00     0.163 HD
HETATM    4  C           1     -24.536  -7.203 -19.299  0.00  0.00     0.249 C 
ENDROOT
BRANCH   2   5
HETATM    5  C           1     -25.747  -6.313 -17.374  0.00  0.00     0.214 C 
BRANCH   5   6
HETATM    6  C           1     -25.178  -6.899 -16.104  0.00  0.00     0.199 C 
HETATM    7  O           1     -25.207  -6.239 -15.043  0.00  0.00    -0.646 OA
HETATM    8  O           1     -24.677  -8.044 -16.115  0.00  0.00    -0.646 OA
ENDBRANCH   5   6
BRANCH   5   9
HETATM    9  C           1     -27.221  -5.989 -17.169  0.00  0.00     0.147 C 
HETATM   10  C           1     -27.923  -5.947 -18.519  0.00  0.00     0.042 C 
BRANCH   9  11
HETATM   11  O           1     -27.809  -6.977 -16.366  0.00  0.00    -0.393 OA
HETATM   12  H           1     -28.535  -7.328 -16.852  0.00  0.00     0.210 HD
ENDBRANCH   9  11
ENDBRANCH   5   9
ENDBRANCH   2   5
BRANCH   4  13
HETATM   13  C           1     -24.394  -8.201 -20.421  0.00  0.00     0.278 C 
BRANCH  13  14
HETATM   14  C           1     -23.304  -7.737 -21.379  0.00  0.00     0.017 C 
HETATM   15  C           1     -22.156  -8.737 -21.365  0.00  0.00     0.012 C 
HETATM   16  C           1     -23.876  -7.642 -22.788  0.00  0.00     0.012 C 
ENDBRANCH  13  14
BRANCH  13  17
HETATM   17  N           1     -25.694  -8.312 -21.159  0.00  0.00    -0.066 N 
HETATM   18  H           1     -26.057  -9.289 -21.079  0.00  0.00     0.275 HD
HETATM   19  H           1     -26.387  -7.646 -20.747  0.00  0.00     0.275 HD
HETATM   20  H           1     -25.544  -8.079 -22.166  0.00  0.00     0.275 HD
ENDBRANCH  13  17
ENDBRANCH   4  13
TORSDOF 7
ENDMDL
MODEL 5
REMARK VINA RESULT:      -5.4      9.991     11.463
REMARK  7 active torsions:
REMARK  status: ('A' for Active; 'I' for Inactive)
REMARK    1  A    between atoms: N_3  and  C_12 
REMARK       I    between atoms: N_3  and  C_20 
REMARK    2  A    between atoms: C_8  and  C_12 
REMARK    3  A    between atoms: C_10  and  O_11 
REMARK    4  A    between atoms: C_10  and  C_12 
REMARK    5  A    between atoms: C_13  and  C_14 
REMARK    6  A    between atoms: C_14  and  C_20 
REMARK    7  A    between atoms: C_14  and  N_17 
ROOT
HETATM    1  O           1     -25.008  -6.401 -16.877  0.00  0.00    -0.271 OA
HETATM    2  N           1     -27.029  -6.226 -17.812  0.00  0.00    -0.343 N 
HETATM    3  H           1     -27.589  -6.249 -18.655  0.00  0.00     0.163 HD
HETATM    4  C           1     -25.677  -6.429 -17.884  0.00  0.00     0.249 C 
ENDROOT
BRANCH   2   5
HETATM    5  C           1     -27.658  -5.977 -16.529  0.00  0.00     0.214 C 
BRANCH   5   6
HETATM    6  C           1     -28.275  -7.256 -16.016  0.00  0.00     0.199 C 
HETATM    7  O           1     -28.015  -7.655 -14.861  0.00  0.00    -0.646 OA
HETATM    8  O           1     -29.044  -7.916 -16.748  0.00  0.00    -0.646 OA
ENDBRANCH   5   6
BRANCH   5   9
HETATM    9  C           1     -28.742  -4.920 -16.694  0.00  0.00     0.147 C 
HETATM   10  C           1     -29.044  -4.729 -18.174  0.00  0.00     0.042 C 
BRANCH   9  11
HETATM   11  O           1     -29.904  -5.335 -16.029  0.00  0.00    -0.393 OA
HETATM   12  H           1     -30.563  -5.471 -16.688  0.00  0.00     0.210 HD
ENDBRANCH   9  11
ENDBRANCH   5   9
ENDBRANCH   2   5
BRANCH   4  13
HETATM   13  C           1     -25.022  -6.688 -19.218  0.00  0.00     0.278 C 
BRANCH  13  14
HETATM   14  C           1     -26.073  -7.148 -20.220  0.00  0.00     0.017 C 
HETATM   15  C           1     -26.593  -5.948 -20.999  0.00  0.00     0.012 C 
HETATM   16  C           1     -25.449  -8.147 -21.186  0.00  0.00     0.012 C 
ENDBRANCH  13  14
BRANCH  13  17
HETATM   17  N           1     -23.978  -7.753 -19.064  0.00  0.00    -0.066 N 
HETATM   18  H           1     -23.128  -7.488 -19.612  0.00  0.00     0.275 HD
HETATM   19  H           1     -23.727  -7.852 -18.054  0.00  0.00     0.275 HD
HETATM   20  H           1     -24.352  -8.661 -19.421  0.00  0.00     0.275 HD
ENDBRANCH  13  17
ENDBRANCH   4  13
TORSDOF 7
ENDMDL
MODEL 6
REMARK VINA RESULT:      -5.2      2.771      4.601
REMARK  7 active torsions:
REMARK  status: ('A' for Active; 'I' for Inactive)
REMARK    1  A    between atoms: N_3  and  C_12 
REMARK       I    between atoms: N_3  and  C_20 
REMARK    2  A    between atoms: C_8  and  C_12 
REMARK    3  A    between atoms: C_10  and  O_11 
REMARK    4  A    between atoms: C_10  and  C_12 
REMARK    5  A    between atoms: C_13  and  C_14 
REMARK    6  A    between atoms: C_14  and  C_20 
REMARK    7  A    between atoms: C_14  and  N_17 
ROOT
HETATM    1  O           1     -20.839  -7.841  -6.065  0.00  0.00    -0.271 OA
HETATM    2  N           1     -21.872  -5.897  -5.694  0.00  0.00    -0.343 N 
HETATM    3  H           1     -22.436  -5.330  -5.072  0.00  0.00     0.163 HD
HETATM    4  C           1     -21.511  -7.164  -5.323  0.00  0.00     0.249 C 
ENDROOT
BRANCH   2   5
HETATM    5  C           1     -21.449  -5.367  -6.975  0.00  0.00     0.214 C 
BRANCH   5   6
HETATM    6  C           1     -20.089  -4.728  -6.830  0.00  0.00     0.199 C 
HETATM    7  O           1     -19.412  -4.460  -7.845  0.00  0.00    -0.646 OA
HETATM    8  O           1     -19.639  -4.469  -5.692  0.00  0.00    -0.646 OA
ENDBRANCH   5   6
BRANCH   5   9
HETATM    9  C           1     -22.453  -4.324  -7.448  0.00  0.00     0.147 C 
HETATM   10  C           1     -22.676  -4.478  -8.947  0.00  0.00     0.042 C 
BRANCH   9  11
HETATM   11  O           1     -23.667  -4.505  -6.773  0.00  0.00    -0.393 OA
HETATM   12  H           1     -23.494  -5.074  -6.043  0.00  0.00     0.210 HD
ENDBRANCH   9  11
ENDBRANCH   5   9
ENDBRANCH   2   5
BRANCH   4  13
HETATM   13  C           1     -21.952  -7.716  -3.990  0.00  0.00     0.278 C 
BRANCH  13  14
HETATM   14  C           1     -21.183  -7.023  -2.873  0.00  0.00     0.017 C 
HETATM   15  C           1     -22.151  -6.231  -2.005  0.00  0.00     0.012 C 
HETATM   16  C           1     -20.476  -8.069  -2.020  0.00  0.00     0.012 C 
ENDBRANCH  13  14
BRANCH  13  17
HETATM   17  N           1     -21.679  -9.189  -3.944  0.00  0.00    -0.066 N 
HETATM   18  H           1     -20.949  -9.386  -3.222  0.00  0.00     0.275 HD
HETATM   19  H           1     -22.559  -9.700  -3.700  0.00  0.00     0.275 HD
HETATM   20  H           1     -21.339  -9.511  -4.879  0.00  0.00     0.275 HD
ENDBRANCH  13  17
ENDBRANCH   4  13
TORSDOF 7
ENDMDL
MODEL 7
REMARK VINA RESULT:      -5.0     10.105     11.469
REMARK  7 active torsions:
REMARK  status: ('A' for Active; 'I' for Inactive)
REMARK    1  A    between atoms: N_3  and  C_12 
REMARK       I    between atoms: N_3  and  C_20 
REMARK    2  A    between atoms: C_8  and  C_12 
REMARK    3  A    between atoms: C_10  and  O_11 
REMARK    4  A    between atoms: C_10  and  C_12 
REMARK    5  A    between atoms: C_13  and  C_14 
REMARK    6  A    between atoms: C_14  and  C_20 
REMARK    7  A    between atoms: C_14  and  N_17 
ROOT
HETATM    1  O           1     -26.810  -5.035 -16.835  0.00  0.00    -0.271 OA
HETATM    2  N           1     -26.901  -6.755 -18.256  0.00  0.00    -0.343 N 
HETATM    3  H           1     -27.411  -7.560 -18.596  0.00  0.00     0.163 HD
HETATM    4  C           1     -27.419  -5.996 -17.241  0.00  0.00     0.249 C 
ENDROOT
BRANCH   2   5
HETATM    5  C           1     -25.622  -6.405 -18.843  0.00  0.00     0.214 C 
BRANCH   5   6
HETATM    6  C           1     -25.628  -6.764 -20.309  0.00  0.00     0.199 C 
HETATM    7  O           1     -25.279  -5.919 -21.161  0.00  0.00    -0.646 OA
HETATM    8  O           1     -25.984  -7.907 -20.671  0.00  0.00    -0.646 OA
ENDBRANCH   5   6
BRANCH   5   9
HETATM    9  C           1     -24.513  -7.174 -18.135  0.00  0.00     0.147 C 
HETATM   10  C           1     -23.227  -7.068 -18.945  0.00  0.00     0.042 C 
BRANCH   9  11
HETATM   11  O           1     -24.309  -6.630 -16.860  0.00  0.00    -0.393 OA
HETATM   12  H           1     -24.033  -5.738 -16.982  0.00  0.00     0.210 HD
ENDBRANCH   9  11
ENDBRANCH   5   9
ENDBRANCH   2   5
BRANCH   4  13
HETATM   13  C           1     -28.749  -6.360 -16.629  0.00  0.00     0.278 C 
BRANCH  13  14
HETATM   14  C           1     -29.866  -6.041 -17.615  0.00  0.00     0.017 C 
HETATM   15  C           1     -30.512  -7.337 -18.088  0.00  0.00     0.012 C 
HETATM   16  C           1     -30.914  -5.174 -16.930  0.00  0.00     0.012 C 
ENDBRANCH  13  14
BRANCH  13  17
HETATM   17  N           1     -28.954  -5.570 -15.372  0.00  0.00    -0.066 N 
HETATM   18  H           1     -28.247  -5.860 -14.659  0.00  0.00     0.275 HD
HETATM   19  H           1     -28.844  -4.551 -15.578  0.00  0.00     0.275 HD
HETATM   20  H           1     -29.914  -5.748 -15.000  0.00  0.00     0.275 HD
ENDBRANCH  13  17
ENDBRANCH   4  13
TORSDOF 7
ENDMDL
MODEL 8
REMARK VINA RESULT:      -5.0      9.051     11.126
REMARK  7 active torsions:
REMARK  status: ('A' for Active; 'I' for Inactive)
REMARK    1  A    between atoms: N_3  and  C_12 
REMARK       I    between atoms: N_3  and  C_20 
REMARK    2  A    between atoms: C_8  and  C_12 
REMARK    3  A    between atoms: C_10  and  O_11 
REMARK    4  A    between atoms: C_10  and  C_12 
REMARK    5  A    between atoms: C_13  and  C_14 
REMARK    6  A    between atoms: C_14  and  C_20 
REMARK    7  A    between atoms: C_14  and  N_17 
ROOT
HETATM    1  O           1     -27.984  -7.102 -16.096  0.00  0.00    -0.271 OA
HETATM    2  N           1     -26.800  -6.227 -17.775  0.00  0.00    -0.343 N 
HETATM    3  H           1     -26.731  -5.525 -18.501  0.00  0.00     0.163 HD
HETATM    4  C           1     -27.902  -6.264 -16.963  0.00  0.00     0.249 C 
ENDROOT
BRANCH   2   5
HETATM    5  C           1     -25.733  -7.191 -17.594  0.00  0.00     0.214 C 
BRANCH   5   6
HETATM    6  C           1     -24.965  -6.861 -16.337  0.00  0.00     0.199 C 
HETATM    7  O           1     -24.933  -5.685 -15.915  0.00  0.00    -0.646 OA
HETATM    8  O           1     -24.361  -7.763 -15.718  0.00  0.00    -0.646 OA
ENDBRANCH   5   6
BRANCH   5   9
HETATM    9  C           1     -24.794  -7.138 -18.792  0.00  0.00     0.147 C 
HETATM   10  C           1     -25.471  -6.390 -19.934  0.00  0.00     0.042 C 
BRANCH   9  11
HETATM   11  O           1     -23.614  -6.472 -18.432  0.00  0.00    -0.393 OA
HETATM   12  H           1     -23.738  -6.148 -17.556  0.00  0.00     0.210 HD
ENDBRANCH   9  11
ENDBRANCH   5   9
ENDBRANCH   2   5
BRANCH   4  13
HETATM   13  C           1     -29.013  -5.261 -17.151  0.00  0.00     0.278 C 
BRANCH  13  14
HETATM   14  C           1     -30.344  -5.899 -16.773  0.00  0.00     0.017 C 
HETATM   15  C           1     -31.438  -4.840 -16.789  0.00  0.00     0.012 C 
HETATM   16  C           1     -30.684  -6.994 -17.775  0.00  0.00     0.012 C 
ENDBRANCH  13  14
BRANCH  13  17
HETATM   17  N           1     -29.058  -4.829 -18.586  0.00  0.00    -0.066 N 
HETATM   18  H           1     -28.799  -3.818 -18.653  0.00  0.00     0.275 HD
HETATM   19  H           1     -28.382  -5.400 -19.144  0.00  0.00     0.275 HD
HETATM   20  H           1     -30.023  -4.966 -18.962  0.00  0.00     0.275 HD
ENDBRANCH  13  17
ENDBRANCH   4  13
TORSDOF 7
ENDMDL
MODEL 9
REMARK VINA RESULT:      -5.0      2.285      5.643
REMARK  7 active torsions:
REMARK  status: ('A' for Active; 'I' for Inactive)
REMARK    1  A    between atoms: N_3  and  C_12 
REMARK       I    between atoms: N_3  and  C_20 
REMARK    2  A    between atoms: C_8  and  C_12 
REMARK    3  A    between atoms: C_10  and  O_11 
REMARK    4  A    between atoms: C_10  and  C_12 
REMARK    5  A    between atoms: C_13  and  C_14 
REMARK    6  A    between atoms: C_14  and  C_20 
REMARK    7  A    between atoms: C_14  and  N_17 
ROOT
HETATM    1  O           1     -21.955  -3.174  -7.674  0.00  0.00    -0.271 OA
HETATM    2  N           1     -22.178  -5.364  -7.298  0.00  0.00    -0.343 N 
HETATM    3  H           1     -22.600  -6.243  -7.571  0.00  0.00     0.163 HD
HETATM    4  C           1     -22.459  -4.223  -8.000  0.00  0.00     0.249 C 
ENDROOT
BRANCH   2   5
HETATM    5  C           1     -21.276  -5.315  -6.163  0.00  0.00     0.214 C 
BRANCH   5   6
HETATM    6  C           1     -19.885  -5.693  -6.611  0.00  0.00     0.199 C 
HETATM    7  O           1     -19.030  -4.805  -6.812  0.00  0.00    -0.646 OA
HETATM    8  O           1     -19.590  -6.896  -6.783  0.00  0.00    -0.646 OA
ENDBRANCH   5   6
BRANCH   5   9
HETATM    9  C           1     -21.750  -6.292  -5.096  0.00  0.00     0.147 C 
HETATM   10  C           1     -21.115  -5.931  -3.760  0.00  0.00     0.042 C 
BRANCH   9  11
HETATM   11  O           1     -23.146  -6.221  -4.985  0.00  0.00    -0.393 OA
HETATM   12  H           1     -23.420  -6.970  -4.484  0.00  0.00     0.210 HD
ENDBRANCH   9  11
ENDBRANCH   5   9
ENDBRANCH   2   5
BRANCH   4  13
HETATM   13  C           1     -23.398  -4.275  -9.179  0.00  0.00     0.278 C 
BRANCH  13  14
HETATM   14  C           1     -22.627  -3.966 -10.457  0.00  0.00     0.017 C 
HETATM   15  C           1     -21.176  -4.398 -10.292  0.00  0.00     0.012 C 
HETATM   16  C           1     -23.252  -4.724 -11.621  0.00  0.00     0.012 C 
ENDBRANCH  13  14
BRANCH  13  17
HETATM   17  N           1     -24.487  -3.260  -8.996  0.00  0.00    -0.066 N 
HETATM   18  H           1     -25.011  -3.467  -8.116  0.00  0.00     0.275 HD
HETATM   19  H           1     -24.067  -2.305  -8.936  0.00  0.00     0.275 HD
HETATM   20  H           1     -25.142  -3.301  -9.809  0.00  0.00     0.275 HD
ENDBRANCH  13  17
ENDBRANCH   4  13
TORSDOF 7
ENDMDL
