MODEL 1
REMARK VINA RESULT:      -5.7      0.000      0.000
REMARK  10 active torsions:
REMARK  status: ('A' for Active; 'I' for Inactive)
REMARK    1  A    between atoms: C_1  and  C_14 
REMARK    2  A    between atoms: C_1  and  C_2 
REMARK    3  A    between atoms: C_1  and  N_8 
REMARK    4  A    between atoms: C_2  and  C_3 
REMARK    5  A    between atoms: C_3  and  C_4 
REMARK    6  A    between atoms: S_6  and  C_7 
REMARK    7  A    between atoms: C_7  and  C_13 
REMARK    8  A    between atoms: C_13  and  C_22 
REMARK       I    between atoms: C_14  and  N_18 
REMARK    9  A    between atoms: N_18  and  C_22 
REMARK   10  A    between atoms: C_21  and  C_22 
ROOT
HETATM    1  O           1     -19.637  -4.589  -6.836  0.00  0.00    -0.271 OA
HETATM    2  H           1     -22.530  -5.785  -6.634  0.00  0.00     0.163 HD
HETATM    3  C           1     -20.795  -4.771  -7.128  0.00  0.00     0.249 C 
HETATM    4  N           1     -21.560  -5.634  -6.389  0.00  0.00    -0.345 N 
ENDROOT
BRANCH   3   5
HETATM    5  C           1     -21.398  -4.046  -8.306  0.00  0.00     0.275 C 
BRANCH   5   6
HETATM    6  C           1     -22.697  -4.728  -8.711  0.00  0.00     0.053 C 
BRANCH   6   7
HETATM    7  C           1     -23.764  -3.674  -8.974  0.00  0.00     0.115 C 
BRANCH   7   8
HETATM    8  C           1     -24.040  -3.594 -10.455  0.00  0.00     0.172 C 
HETATM    9  O           1     -25.161  -3.218 -10.863  0.00  0.00    -0.648 OA
HETATM   10  O           1     -23.149  -3.905 -11.275  0.00  0.00    -0.648 OA
ENDBRANCH   7   8
ENDBRANCH   6   7
ENDBRANCH   5   6
BRANCH   5  11
HETATM   11  N           1     -20.437  -4.079  -9.457  0.00  0.00    -0.066 N 
HETATM   12  H           1     -19.905  -4.979  -9.442  0.00  0.00     0.275 HD
HETATM   13  H           1     -20.965  -4.002 -10.355  0.00  0.00     0.275 HD
HETATM   14  H           1     -19.768  -3.279  -9.376  0.00  0.00     0.275 HD
ENDBRANCH   5  11
ENDBRANCH   3   5
BRANCH   4  15
HETATM   15  C           1     -20.980  -6.329  -5.257  0.00  0.00     0.186 C 
BRANCH  15  16
HETATM   16  C           1     -22.033  -6.492  -4.168  0.00  0.00     0.046 C 
BRANCH  16  17
HETATM   17  C           1     -21.411  -6.195  -2.810  0.00  0.00     0.076 C 
BRANCH  17  18
HETATM   18  S           1     -21.275  -7.733  -1.857  0.00  0.00    -0.173 SA
HETATM   19  C           1     -22.468  -7.274  -0.568  0.00  0.00     0.089 C 
ENDBRANCH  17  18
ENDBRANCH  16  17
ENDBRANCH  15  16
BRANCH  15  20
HETATM   20  C           1     -20.496  -7.689  -5.697  0.00  0.00     0.196 C 
HETATM   21  O           1     -19.293  -7.859  -5.992  0.00  0.00    -0.646 OA
HETATM   22  O           1     -21.296  -8.646  -5.765  0.00  0.00    -0.646 OA
ENDBRANCH  15  20
ENDBRANCH   4  15
TORSDOF 10
ENDMDL
MODEL 2
REMARK VINA RESULT:      -5.4      3.294      7.392
REMARK  10 active torsions:
REMARK  status: ('A' for Active; 'I' for Inactive)
REMARK    1  A    between atoms: C_1  and  C_14 
REMARK    2  A    between atoms: C_1  and  C_2 
REMARK    3  A    between atoms: C_1  and  N_8 
REMARK    4  A    between atoms: C_2  and  C_3 
REMARK    5  A    between atoms: C_3  and  C_4 
REMARK    6  A    between atoms: S_6  and  C_7 
REMARK    7  A    between atoms: C_7  and  C_13 
REMARK    8  A    between atoms: C_13  and  C_22 
REMARK       I    between atoms: C_14  and  N_18 
REMARK    9  A    between atoms: N_18  and  C_22 
REMARK   10  A    between atoms: C_21  and  C_22 
ROOT
HETATM    1  O           1     -22.350  -7.321  -4.856  0.00  0.00    -0.271 OA
HETATM    2  H           1     -20.426  -4.846  -4.728  0.00  0.00     0.163 HD
HETATM    3  C           1     -21.618  -6.498  -4.360  0.00  0.00     0.249 C 
HETATM    4  N           1     -21.039  -5.536  -5.144  0.00  0.00    -0.345 N 
ENDROOT
BRANCH   3   5
HETATM    5  C           1     -21.340  -6.532  -2.878  0.00  0.00     0.275 C 
BRANCH   5   6
HETATM    6  C           1     -21.311  -7.976  -2.398  0.00  0.00     0.053 C 
BRANCH   6   7
HETATM    7  C           1     -20.917  -8.017  -0.927  0.00  0.00     0.115 C 
BRANCH   7   8
HETATM    8  C           1     -22.069  -8.545  -0.110  0.00  0.00     0.172 C 
HETATM    9  O           1     -22.062  -9.731   0.287  0.00  0.00    -0.648 OA
HETATM   10  O           1     -23.031  -7.798   0.170  0.00  0.00    -0.648 OA
ENDBRANCH   7   8
ENDBRANCH   6   7
ENDBRANCH   5   6
BRANCH   5  11
HETATM   11  N           1     -22.419  -5.786  -2.151  0.00  0.00    -0.066 N 
HETATM   12  H           1     -22.844  -5.076  -2.790  0.00  0.00     0.275 HD
HETATM   13  H           1     -23.156  -6.456  -1.837  0.00  0.00     0.275 HD
HETATM   14  H           1     -22.009  -5.303  -1.319  0.00  0.00     0.275 HD
ENDBRANCH   5  11
ENDBRANCH   3   5
BRANCH   4  15
HETATM   15  C           1     -21.306  -5.504  -6.568  0.00  0.00     0.186 C 
BRANCH  15  16
HETATM   16  C           1     -21.855  -4.135  -6.951  0.00  0.00     0.046 C 
BRANCH  16  17
HETATM   17  C           1     -23.184  -4.303  -7.675  0.00  0.00     0.076 C 
BRANCH  17  18
HETATM   18  S           1     -22.942  -4.039  -9.454  0.00  0.00    -0.173 SA
HETATM   19  C           1     -24.591  -3.355  -9.780  0.00  0.00     0.089 C 
ENDBRANCH  17  18
ENDBRANCH  16  17
ENDBRANCH  15  16
BRANCH  15  20
HETATM   20  C           1     -20.028  -5.763  -7.326  0.00  0.00     0.196 C 
HETATM   21  O           1     -19.608  -4.923  -8.151  0.00  0.00    -0.646 OA
HETATM   22  O           1     -19.387  -6.818  -7.128  0.00  0.00    -0.646 OA
ENDBRANCH  15  20
ENDBRANCH   4  15
TORSDOF 10
ENDMDL
MODEL 3
REMARK VINA RESULT:      -5.2     19.433     20.858
REMARK  10 active torsions:
REMARK  status: ('A' for Active; 'I' for Inactive)
REMARK    1  A    between atoms: C_1  and  C_14 
REMARK    2  A    between atoms: C_1  and  C_2 
REMARK    3  A    between atoms: C_1  and  N_8 
REMARK    4  A    between atoms: C_2  and  C_3 
REMARK    5  A    between atoms: C_3  and  C_4 
REMARK    6  A    between atoms: S_6  and  C_7 
REMARK    7  A    between atoms: C_7  and  C_13 
REMARK    8  A    between atoms: C_13  and  C_22 
REMARK       I    between atoms: C_14  and  N_18 
REMARK    9  A    between atoms: N_18  and  C_22 
REMARK   10  A    between atoms: C_21  and  C_22 
ROOT
HETATM    1  O           1     -10.930   3.000 -21.639  0.00  0.00    -0.271 OA
HETATM    2  H           1     -11.871   5.991 -21.566  0.00  0.00     0.163 HD
HETATM    3  C           1     -11.627   3.958 -21.868  0.00  0.00     0.249 C 
HETATM    4  N           1     -11.286   5.188 -21.372  0.00  0.00    -0.345 N 
ENDROOT
BRANCH   3   5
HETATM    5  C           1     -12.875   3.799 -22.702  0.00  0.00     0.275 C 
BRANCH   5   6
HETATM    6  C           1     -13.672   5.096 -22.676  0.00  0.00     0.053 C 
BRANCH   6   7
HETATM    7  C           1     -14.914   4.913 -21.812  0.00  0.00     0.115 C 
BRANCH   7   8
HETATM    8  C           1     -14.689   5.552 -20.465  0.00  0.00     0.172 C 
HETATM    9  O           1     -15.416   5.241 -19.496  0.00  0.00    -0.648 OA
HETATM   10  O           1     -13.775   6.392 -20.316  0.00  0.00    -0.648 OA
ENDBRANCH   7   8
ENDBRANCH   6   7
ENDBRANCH   5   6
BRANCH   5  11
HETATM   11  N           1     -13.712   2.687 -22.141  0.00  0.00    -0.066 N 
HETATM   12  H           1     -13.115   2.066 -21.550  0.00  0.00     0.275 HD
HETATM   13  H           1     -14.480   3.089 -21.558  0.00  0.00     0.275 HD
HETATM   14  H           1     -14.123   2.131 -22.926  0.00  0.00     0.275 HD
ENDBRANCH   5  11
ENDBRANCH   3   5
BRANCH   4  15
HETATM   15  C           1     -10.087   5.339 -20.572  0.00  0.00     0.186 C 
BRANCH  15  16
HETATM   16  C           1      -9.357   6.610 -20.988  0.00  0.00     0.046 C 
BRANCH  16  17
HETATM   17  C           1     -10.372   7.697 -21.315  0.00  0.00     0.076 C 
BRANCH  17  18
HETATM   18  S           1     -10.060   9.150 -20.272  0.00  0.00    -0.173 SA
HETATM   19  C           1     -11.590   9.030 -19.303  0.00  0.00     0.089 C 
ENDBRANCH  17  18
ENDBRANCH  16  17
ENDBRANCH  15  16
BRANCH  15  20
HETATM   20  C           1     -10.464   5.429 -19.114  0.00  0.00     0.196 C 
HETATM   21  O           1      -9.645   5.879 -18.283  0.00  0.00    -0.646 OA
HETATM   22  O           1     -11.596   5.056 -18.736  0.00  0.00    -0.646 OA
ENDBRANCH  15  20
ENDBRANCH   4  15
TORSDOF 10
ENDMDL
MODEL 4
REMARK VINA RESULT:      -5.1     20.218     22.163
REMARK  10 active torsions:
REMARK  status: ('A' for Active; 'I' for Inactive)
REMARK    1  A    between atoms: C_1  and  C_14 
REMARK    2  A    between atoms: C_1  and  C_2 
REMARK    3  A    between atoms: C_1  and  N_8 
REMARK    4  A    between atoms: C_2  and  C_3 
REMARK    5  A    between atoms: C_3  and  C_4 
REMARK    6  A    between atoms: S_6  and  C_7 
REMARK    7  A    between atoms: C_7  and  C_13 
REMARK    8  A    between atoms: C_13  and  C_22 
REMARK       I    between atoms: C_14  and  N_18 
REMARK    9  A    between atoms: N_18  and  C_22 
REMARK   10  A    between atoms: C_21  and  C_22 
ROOT
HETATM    1  O           1     -12.374   7.126 -21.917  0.00  0.00    -0.271 OA
HETATM    2  H           1     -12.619   7.291 -18.795  0.00  0.00     0.163 HD
HETATM    3  C           1     -12.579   6.744 -20.791  0.00  0.00     0.249 C 
HETATM    4  N           1     -12.446   7.611 -19.739  0.00  0.00    -0.345 N 
ENDROOT
BRANCH   3   5
HETATM    5  C           1     -12.983   5.311 -20.541  0.00  0.00     0.275 C 
BRANCH   5   6
HETATM    6  C           1     -12.032   4.684 -19.532  0.00  0.00     0.053 C 
BRANCH   6   7
HETATM    7  C           1     -10.645   4.557 -20.149  0.00  0.00     0.115 C 
BRANCH   7   8
HETATM    8  C           1      -9.696   5.504 -19.457  0.00  0.00     0.172 C 
HETATM    9  O           1      -8.849   6.137 -20.122  0.00  0.00    -0.648 OA
HETATM   10  O           1      -9.758   5.655 -18.217  0.00  0.00    -0.648 OA
ENDBRANCH   7   8
ENDBRANCH   6   7
ENDBRANCH   5   6
BRANCH   5  11
HETATM   11  N           1     -12.922   4.545 -21.829  0.00  0.00    -0.066 N 
HETATM   12  H           1     -12.328   5.063 -22.516  0.00  0.00     0.275 HD
HETATM   13  H           1     -12.507   3.602 -21.654  0.00  0.00     0.275 HD
HETATM   14  H           1     -13.887   4.435 -22.215  0.00  0.00     0.275 HD
ENDBRANCH   5  11
ENDBRANCH   3   5
BRANCH   4  15
HETATM   15  C           1     -12.059   8.987 -19.979  0.00  0.00     0.186 C 
BRANCH  15  16
HETATM   16  C           1     -12.976   9.917 -19.194  0.00  0.00     0.046 C 
BRANCH  16  17
HETATM   17  C           1     -13.317  11.134 -20.043  0.00  0.00     0.076 C 
BRANCH  17  18
HETATM   18  S           1     -13.384  10.653 -21.792  0.00  0.00    -0.173 SA
HETATM   19  C           1     -15.048  11.301 -22.113  0.00  0.00     0.089 C 
ENDBRANCH  17  18
ENDBRANCH  16  17
ENDBRANCH  15  16
BRANCH  15  20
HETATM   20  C           1     -10.632   9.193 -19.534  0.00  0.00     0.196 C 
HETATM   21  O           1      -9.792   9.668 -20.329  0.00  0.00    -0.646 OA
HETATM   22  O           1     -10.290   8.890 -18.371  0.00  0.00    -0.646 OA
ENDBRANCH  15  20
ENDBRANCH   4  15
TORSDOF 10
ENDMDL
MODEL 5
REMARK VINA RESULT:      -5.1      2.433      2.908
REMARK  10 active torsions:
REMARK  status: ('A' for Active; 'I' for Inactive)
REMARK    1  A    between atoms: C_1  and  C_14 
REMARK    2  A    between atoms: C_1  and  C_2 
REMARK    3  A    between atoms: C_1  and  N_8 
REMARK    4  A    between atoms: C_2  and  C_3 
REMARK    5  A    between atoms: C_3  and  C_4 
REMARK    6  A    between atoms: S_6  and  C_7 
REMARK    7  A    between atoms: C_7  and  C_13 
REMARK    8  A    between atoms: C_13  and  C_22 
REMARK       I    between atoms: C_14  and  N_18 
REMARK    9  A    between atoms: N_18  and  C_22 
REMARK   10  A    between atoms: C_21  and  C_22 
ROOT
HETATM    1  O           1     -23.067  -5.953  -5.399  0.00  0.00    -0.271 OA
HETATM    2  H           1     -20.073  -6.778  -4.956  0.00  0.00     0.163 HD
HETATM    3  C           1     -21.873  -5.964  -5.576  0.00  0.00     0.249 C 
HETATM    4  N           1     -21.074  -6.768  -4.807  0.00  0.00    -0.345 N 
ENDROOT
BRANCH   3   5
HETATM    5  C           1     -21.260  -5.091  -6.644  0.00  0.00     0.275 C 
BRANCH   5   6
HETATM    6  C           1     -22.364  -4.387  -7.419  0.00  0.00     0.053 C 
BRANCH   6   7
HETATM    7  C           1     -21.870  -4.059  -8.823  0.00  0.00     0.115 C 
BRANCH   7   8
HETATM    8  C           1     -23.034  -3.628  -9.679  0.00  0.00     0.172 C 
HETATM    9  O           1     -24.180  -3.551  -9.184  0.00  0.00    -0.648 OA
HETATM   10  O           1     -22.854  -3.346 -10.884  0.00  0.00    -0.648 OA
ENDBRANCH   7   8
ENDBRANCH   6   7
ENDBRANCH   5   6
BRANCH   5  11
HETATM   11  N           1     -20.455  -5.942  -7.581  0.00  0.00    -0.066 N 
HETATM   12  H           1     -19.718  -6.452  -7.044  0.00  0.00     0.275 HD
HETATM   13  H           1     -21.083  -6.632  -8.052  0.00  0.00     0.275 HD
HETATM   14  H           1     -20.002  -5.333  -8.301  0.00  0.00     0.275 HD
ENDBRANCH   5  11
ENDBRANCH   3   5
BRANCH   4  15
HETATM   15  C           1     -21.663  -7.606  -3.782  0.00  0.00     0.186 C 
BRANCH  15  16
HETATM   16  C           1     -20.949  -8.952  -3.754  0.00  0.00     0.046 C 
BRANCH  16  17
HETATM   17  C           1     -21.961 -10.060  -3.499  0.00  0.00     0.076 C 
BRANCH  17  18
HETATM   18  S           1     -21.530 -10.934  -1.968  0.00  0.00    -0.173 SA
HETATM   19  C           1     -22.812 -10.170  -0.935  0.00  0.00     0.089 C 
ENDBRANCH  17  18
ENDBRANCH  16  17
ENDBRANCH  15  16
BRANCH  15  20
HETATM   20  C           1     -21.521  -6.933  -2.439  0.00  0.00     0.196 C 
HETATM   21  O           1     -22.245  -5.955  -2.149  0.00  0.00    -0.646 OA
HETATM   22  O           1     -20.680  -7.352  -1.615  0.00  0.00    -0.646 OA
ENDBRANCH  15  20
ENDBRANCH   4  15
TORSDOF 10
ENDMDL
MODEL 6
REMARK VINA RESULT:      -4.9      2.672      3.899
REMARK  10 active torsions:
REMARK  status: ('A' for Active; 'I' for Inactive)
REMARK    1  A    between atoms: C_1  and  C_14 
REMARK    2  A    between atoms: C_1  and  C_2 
REMARK    3  A    between atoms: C_1  and  N_8 
REMARK    4  A    between atoms: C_2  and  C_3 
REMARK    5  A    between atoms: C_3  and  C_4 
REMARK    6  A    between atoms: S_6  and  C_7 
REMARK    7  A    between atoms: C_7  and  C_13 
REMARK    8  A    between atoms: C_13  and  C_22 
REMARK       I    between atoms: C_14  and  N_18 
REMARK    9  A    between atoms: N_18  and  C_22 
REMARK   10  A    between atoms: C_21  and  C_22 
ROOT
HETATM    1  O           1     -19.582  -7.924  -5.039  0.00  0.00    -0.271 OA
HETATM    2  H           1     -22.148  -7.241  -3.369  0.00  0.00     0.163 HD
HETATM    3  C           1     -20.617  -7.370  -4.756  0.00  0.00     0.249 C 
HETATM    4  N           1     -21.281  -7.706  -3.606  0.00  0.00    -0.345 N 
ENDROOT
BRANCH   3   5
HETATM    5  C           1     -21.178  -6.308  -5.669  0.00  0.00     0.275 C 
BRANCH   5   6
HETATM    6  C           1     -20.333  -5.047  -5.562  0.00  0.00     0.053 C 
BRANCH   6   7
HETATM    7  C           1     -19.678  -4.758  -6.907  0.00  0.00     0.115 C 
BRANCH   7   8
HETATM    8  C           1     -20.690  -4.136  -7.837  0.00  0.00     0.172 C 
HETATM    9  O           1     -20.676  -4.419  -9.055  0.00  0.00    -0.648 OA
HETATM   10  O           1     -21.543  -3.339  -7.390  0.00  0.00    -0.648 OA
ENDBRANCH   7   8
ENDBRANCH   6   7
ENDBRANCH   5   6
BRANCH   5  11
HETATM   11  N           1     -22.589  -5.999  -5.266  0.00  0.00    -0.066 N 
HETATM   12  H           1     -22.939  -6.744  -4.621  0.00  0.00     0.275 HD
HETATM   13  H           1     -22.618  -5.076  -4.777  0.00  0.00     0.275 HD
HETATM   14  H           1     -23.195  -5.962  -6.117  0.00  0.00     0.275 HD
ENDBRANCH   5  11
ENDBRANCH   3   5
BRANCH   4  15
HETATM   15  C           1     -20.740  -8.726  -2.730  0.00  0.00     0.186 C 
BRANCH  15  16
HETATM   16  C           1     -20.703  -8.199  -1.300  0.00  0.00     0.046 C 
BRANCH  16  17
HETATM   17  C           1     -21.969  -7.403  -1.018  0.00  0.00     0.076 C 
BRANCH  17  18
HETATM   18  S           1     -22.784  -8.065   0.462  0.00  0.00    -0.173 SA
HETATM   19  C           1     -21.283  -8.730   1.235  0.00  0.00     0.089 C 
ENDBRANCH  17  18
ENDBRANCH  16  17
ENDBRANCH  15  16
BRANCH  15  20
HETATM   20  C           1     -21.614  -9.955  -2.790  0.00  0.00     0.196 C 
HETATM   21  O           1     -21.603 -10.777  -1.848  0.00  0.00    -0.646 OA
HETATM   22  O           1     -22.349 -10.151  -3.782  0.00  0.00    -0.646 OA
ENDBRANCH  15  20
ENDBRANCH   4  15
TORSDOF 10
ENDMDL
MODEL 7
REMARK VINA RESULT:      -4.8      2.731      3.758
REMARK  10 active torsions:
REMARK  status: ('A' for Active; 'I' for Inactive)
REMARK    1  A    between atoms: C_1  and  C_14 
REMARK    2  A    between atoms: C_1  and  C_2 
REMARK    3  A    between atoms: C_1  and  N_8 
REMARK    4  A    between atoms: C_2  and  C_3 
REMARK    5  A    between atoms: C_3  and  C_4 
REMARK    6  A    between atoms: S_6  and  C_7 
REMARK    7  A    between atoms: C_7  and  C_13 
REMARK    8  A    between atoms: C_13  and  C_22 
REMARK       I    between atoms: C_14  and  N_18 
REMARK    9  A    between atoms: N_18  and  C_22 
REMARK   10  A    between atoms: C_21  and  C_22 
ROOT
HETATM    1  O           1     -21.560  -7.696  -5.519  0.00  0.00    -0.271 OA
HETATM    2  H           1     -20.214  -5.839  -3.379  0.00  0.00     0.163 HD
HETATM    3  C           1     -20.868  -6.805  -5.089  0.00  0.00     0.249 C 
HETATM    4  N           1     -20.795  -6.585  -3.739  0.00  0.00    -0.345 N 
ENDROOT
BRANCH   3   5
HETATM    5  C           1     -20.084  -5.934  -6.039  0.00  0.00     0.275 C 
BRANCH   5   6
HETATM    6  C           1     -20.607  -4.507  -5.971  0.00  0.00     0.053 C 
BRANCH   6   7
HETATM    7  C           1     -20.699  -3.930  -7.378  0.00  0.00     0.115 C 
BRANCH   7   8
HETATM    8  C           1     -22.131  -3.976  -7.849  0.00  0.00     0.172 C 
HETATM    9  O           1     -22.441  -3.487  -8.957  0.00  0.00    -0.648 OA
HETATM   10  O           1     -23.008  -4.505  -7.132  0.00  0.00    -0.648 OA
ENDBRANCH   7   8
ENDBRANCH   6   7
ENDBRANCH   5   6
BRANCH   5  11
HETATM   11  N           1     -20.237  -6.456  -7.437  0.00  0.00    -0.066 N 
HETATM   12  H           1     -20.805  -7.333  -7.421  0.00  0.00     0.275 HD
HETATM   13  H           1     -20.720  -5.740  -8.025  0.00  0.00     0.275 HD
HETATM   14  H           1     -19.293  -6.659  -7.839  0.00  0.00     0.275 HD
ENDBRANCH   5  11
ENDBRANCH   3   5
BRANCH   4  15
HETATM   15  C           1     -21.549  -7.422  -2.827  0.00  0.00     0.186 C 
BRANCH  15  16
HETATM   16  C           1     -20.611  -8.427  -2.169  0.00  0.00     0.046 C 
BRANCH  16  17
HETATM   17  C           1     -21.171  -9.833  -2.339  0.00  0.00     0.076 C 
BRANCH  17  18
HETATM   18  S           1     -20.463 -10.924  -1.073  0.00  0.00    -0.173 SA
HETATM   19  C           1     -21.186 -10.068   0.355  0.00  0.00     0.089 C 
ENDBRANCH  17  18
ENDBRANCH  16  17
ENDBRANCH  15  16
BRANCH  15  20
HETATM   20  C           1     -22.189  -6.561  -1.767  0.00  0.00     0.196 C 
HETATM   21  O           1     -22.797  -7.093  -0.813  0.00  0.00    -0.646 OA
HETATM   22  O           1     -22.110  -5.316  -1.840  0.00  0.00    -0.646 OA
ENDBRANCH  15  20
ENDBRANCH   4  15
TORSDOF 10
ENDMDL
MODEL 8
REMARK VINA RESULT:      -4.8      2.526      3.544
REMARK  10 active torsions:
REMARK  status: ('A' for Active; 'I' for Inactive)
REMARK    1  A    between atoms: C_1  and  C_14 
REMARK    2  A    between atoms: C_1  and  C_2 
REMARK    3  A    between atoms: C_1  and  N_8 
REMARK    4  A    between atoms: C_2  and  C_3 
REMARK    5  A    between atoms: C_3  and  C_4 
REMARK    6  A    between atoms: S_6  and  C_7 
REMARK    7  A    between atoms: C_7  and  C_13 
REMARK    8  A    between atoms: C_13  and  C_22 
REMARK       I    between atoms: C_14  and  N_18 
REMARK    9  A    between atoms: N_18  and  C_22 
REMARK   10  A    between atoms: C_21  and  C_22 
ROOT
HETATM    1  O           1     -19.502  -7.886  -5.610  0.00  0.00    -0.271 OA
HETATM    2  H           1     -22.462  -8.000  -4.580  0.00  0.00     0.163 HD
HETATM    3  C           1     -20.645  -7.531  -5.453  0.00  0.00     0.249 C 
HETATM    4  N           1     -21.504  -8.298  -4.712  0.00  0.00    -0.345 N 
ENDROOT
BRANCH   3   5
HETATM    5  C           1     -21.127  -6.243  -6.074  0.00  0.00     0.275 C 
BRANCH   5   6
HETATM    6  C           1     -20.099  -5.147  -5.835  0.00  0.00     0.053 C 
BRANCH   6   7
HETATM    7  C           1     -19.559  -4.655  -7.171  0.00  0.00     0.115 C 
BRANCH   7   8
HETATM    8  C           1     -20.674  -4.017  -7.961  0.00  0.00     0.172 C 
HETATM    9  O           1     -21.567  -3.371  -7.372  0.00  0.00    -0.648 OA
HETATM   10  O           1     -20.704  -4.133  -9.206  0.00  0.00    -0.648 OA
ENDBRANCH   7   8
ENDBRANCH   6   7
ENDBRANCH   5   6
BRANCH   5  11
HETATM   11  N           1     -22.433  -5.847  -5.450  0.00  0.00    -0.066 N 
HETATM   12  H           1     -22.370  -5.953  -4.412  0.00  0.00     0.275 HD
HETATM   13  H           1     -22.644  -4.852  -5.686  0.00  0.00     0.275 HD
HETATM   14  H           1     -23.195  -6.462  -5.817  0.00  0.00     0.275 HD
ENDBRANCH   5  11
ENDBRANCH   3   5
BRANCH   4  15
HETATM   15  C           1     -21.040  -9.535  -4.116  0.00  0.00     0.186 C 
BRANCH  15  16
HETATM   16  C           1     -21.600  -9.660  -2.705  0.00  0.00     0.046 C 
BRANCH  16  17
HETATM   17  C           1     -20.855  -8.710  -1.776  0.00  0.00     0.076 C 
BRANCH  17  18
HETATM   18  S           1     -22.049  -7.805  -0.751  0.00  0.00    -0.173 SA
HETATM   19  C           1     -22.181  -6.354  -1.834  0.00  0.00     0.089 C 
ENDBRANCH  17  18
ENDBRANCH  16  17
ENDBRANCH  15  16
BRANCH  15  20
HETATM   20  C           1     -21.511 -10.702  -4.949  0.00  0.00     0.196 C 
HETATM   21  O           1     -21.120 -10.826  -6.130  0.00  0.00    -0.646 OA
HETATM   22  O           1     -22.291 -11.546  -4.459  0.00  0.00    -0.646 OA
ENDBRANCH  15  20
ENDBRANCH   4  15
TORSDOF 10
ENDMDL
MODEL 9
REMARK VINA RESULT:      -4.8      3.043      4.679
REMARK  10 active torsions:
REMARK  status: ('A' for Active; 'I' for Inactive)
REMARK    1  A    between atoms: C_1  and  C_14 
REMARK    2  A    between atoms: C_1  and  C_2 
REMARK    3  A    between atoms: C_1  and  N_8 
REMARK    4  A    between atoms: C_2  and  C_3 
REMARK    5  A    between atoms: C_3  and  C_4 
REMARK    6  A    between atoms: S_6  and  C_7 
REMARK    7  A    between atoms: C_7  and  C_13 
REMARK    8  A    between atoms: C_13  and  C_22 
REMARK       I    between atoms: C_14  and  N_18 
REMARK    9  A    between atoms: N_18  and  C_22 
REMARK   10  A    between atoms: C_21  and  C_22 
ROOT
HETATM    1  O           1     -21.863  -8.786  -4.363  0.00  0.00    -0.271 OA
HETATM    2  H           1     -20.025  -6.962  -2.592  0.00  0.00     0.163 HD
HETATM    3  C           1     -20.977  -8.008  -4.104  0.00  0.00     0.249 C 
HETATM    4  N           1     -20.768  -7.614  -2.809  0.00  0.00    -0.345 N 
ENDROOT
BRANCH   3   5
HETATM    5  C           1     -20.099  -7.470  -5.207  0.00  0.00     0.275 C 
BRANCH   5   6
HETATM    6  C           1     -20.963  -6.781  -6.254  0.00  0.00     0.053 C 
BRANCH   6   7
HETATM    7  C           1     -21.065  -5.296  -5.932  0.00  0.00     0.115 C 
BRANCH   7   8
HETATM    8  C           1     -21.996  -4.630  -6.915  0.00  0.00     0.172 C 
HETATM    9  O           1     -23.230  -4.641  -6.713  0.00  0.00    -0.648 OA
HETATM   10  O           1     -21.533  -4.067  -7.931  0.00  0.00    -0.648 OA
ENDBRANCH   7   8
ENDBRANCH   6   7
ENDBRANCH   5   6
BRANCH   5  11
HETATM   11  N           1     -19.349  -8.602  -5.844  0.00  0.00    -0.066 N 
HETATM   12  H           1     -18.862  -9.158  -5.105  0.00  0.00     0.275 HD
HETATM   13  H           1     -20.018  -9.218  -6.358  0.00  0.00     0.275 HD
HETATM   14  H           1     -18.642  -8.218  -6.513  0.00  0.00     0.275 HD
ENDBRANCH   5  11
ENDBRANCH   3   5
BRANCH   4  15
HETATM   15  C           1     -21.611  -8.131  -1.750  0.00  0.00     0.186 C 
BRANCH  15  16
HETATM   16  C           1     -20.740  -8.749  -0.663  0.00  0.00     0.046 C 
BRANCH  16  17
HETATM   17  C           1     -21.392 -10.026  -0.152  0.00  0.00     0.076 C 
BRANCH  17  18
HETATM   18  S           1     -22.046 -10.976  -1.553  0.00  0.00    -0.173 SA
HETATM   19  C           1     -23.748 -11.097  -0.935  0.00  0.00     0.089 C 
ENDBRANCH  17  18
ENDBRANCH  16  17
ENDBRANCH  15  16
BRANCH  15  20
HETATM   20  C           1     -22.427  -7.006  -1.161  0.00  0.00     0.196 C 
HETATM   21  O           1     -23.059  -7.182  -0.097  0.00  0.00    -0.646 OA
HETATM   22  O           1     -22.470  -5.898  -1.737  0.00  0.00    -0.646 OA
ENDBRANCH  15  20
ENDBRANCH   4  15
TORSDOF 10
ENDMDL
