MODEL 1
REMARK VINA RESULT:      -6.1      0.000      0.000
REMARK  10 active torsions:
REMARK  status: ('A' for Active; 'I' for Inactive)
REMARK    1  A    between atoms: C_6  and  C_7 
REMARK    2  A    between atoms: C_6  and  N_9 
REMARK    3  A    between atoms: C_7  and  C_10 
REMARK    4  A    between atoms: C_10  and  C_11 
REMARK    5  A    between atoms: C_11  and  C_18 
REMARK    6  A    between atoms: C_11  and  N_22 
REMARK    7  A    between atoms: C_12  and  C_15 
REMARK    8  A    between atoms: N_13  and  C_15 
REMARK       I    between atoms: N_13  and  C_18 
REMARK    9  A    between atoms: C_14  and  C_16 
REMARK   10  A    between atoms: C_15  and  C_16 
ROOT
HETATM    1  C           1     -25.124  -6.743 -17.126  0.00  0.00     0.274 C 
ENDROOT
BRANCH   1   2
HETATM    2  C           1     -25.312  -6.785 -18.636  0.00  0.00     0.044 C 
BRANCH   2   3
HETATM    3  C           1     -24.017  -7.243 -19.297  0.00  0.00     0.030 C 
BRANCH   3   4
HETATM    4  C           1     -24.335  -7.901 -20.633  0.00  0.00     0.230 C 
BRANCH   4   5
HETATM    5  N           1     -23.190  -8.778 -21.044  0.00  0.00    -0.079 N 
HETATM    6  H           1     -22.322  -8.202 -21.131  0.00  0.00     0.274 HD
HETATM    7  H           1     -23.406  -9.224 -21.965  0.00  0.00     0.274 HD
HETATM    8  H           1     -23.043  -9.521 -20.324  0.00  0.00     0.274 HD
ENDBRANCH   4   5
ENDBRANCH   3   4
ENDBRANCH   2   3
ENDBRANCH   1   2
BRANCH   1   9
HETATM    9  C           1     -26.461  -6.915 -16.447  0.00  0.00     0.249 C 
HETATM   10  N           1     -27.612  -6.586 -17.111  0.00  0.00    -0.344 N 
HETATM   11  H           1     -27.566  -6.228 -18.056  0.00  0.00     0.163 HD
HETATM   12  O           1     -26.516  -7.344 -15.319  0.00  0.00    -0.271 OA
BRANCH  10  13
HETATM   13  C           1     -28.897  -6.751 -16.459  0.00  0.00     0.195 C 
BRANCH  13  14
HETATM   14  C           1     -29.867  -7.398 -17.418  0.00  0.00     0.197 C 
HETATM   15  O           1     -29.482  -8.320 -18.168  0.00  0.00    -0.646 OA
HETATM   16  O           1     -31.054  -7.011 -17.461  0.00  0.00    -0.646 OA
ENDBRANCH  13  14
BRANCH  13  17
HETATM   17  C           1     -29.431  -5.388 -16.039  0.00  0.00     0.149 C 
BRANCH  17  18
HETATM   18  C           1     -28.824  -4.318 -16.914  0.00  0.00     0.175 C 
HETATM   19  O           1     -27.839  -3.663 -16.509  0.00  0.00    -0.648 OA
HETATM   20  O           1     -29.307  -4.086 -18.044  0.00  0.00    -0.648 OA
ENDBRANCH  17  18
ENDBRANCH  13  17
ENDBRANCH  10  13
ENDBRANCH   1   9
BRANCH   1  21
HETATM   21  N           1     -24.205  -7.852 -16.706  0.00  0.00    -0.067 N 
HETATM   22  H           1     -24.769  -8.694 -16.448  0.00  0.00     0.275 HD
HETATM   23  H           1     -23.565  -8.091 -17.496  0.00  0.00     0.275 HD
HETATM   24  H           1     -23.642  -7.545 -15.881  0.00  0.00     0.275 HD
ENDBRANCH   1  21
TORSDOF 10
ENDMDL
MODEL 2
REMARK VINA RESULT:      -6.1      1.582      3.309
REMARK  10 active torsions:
REMARK  status: ('A' for Active; 'I' for Inactive)
REMARK    1  A    between atoms: C_6  and  C_7 
REMARK    2  A    between atoms: C_6  and  N_9 
REMARK    3  A    between atoms: C_7  and  C_10 
REMARK    4  A    between atoms: C_10  and  C_11 
REMARK    5  A    between atoms: C_11  and  C_18 
REMARK    6  A    between atoms: C_11  and  N_22 
REMARK    7  A    between atoms: C_12  and  C_15 
REMARK    8  A    between atoms: N_13  and  C_15 
REMARK       I    between atoms: N_13  and  C_18 
REMARK    9  A    between atoms: C_14  and  C_16 
REMARK   10  A    between atoms: C_15  and  C_16 
ROOT
HETATM    1  C           1     -24.952  -6.938 -19.868  0.00  0.00     0.274 C 
ENDROOT
BRANCH   1   2
HETATM    2  C           1     -24.930  -8.024 -20.935  0.00  0.00     0.044 C 
BRANCH   2   3
HETATM    3  C           1     -24.186  -7.515 -22.164  0.00  0.00     0.030 C 
BRANCH   3   4
HETATM    4  C           1     -23.068  -8.486 -22.519  0.00  0.00     0.230 C 
BRANCH   4   5
HETATM    5  N           1     -22.534  -9.114 -21.266  0.00  0.00    -0.079 N 
HETATM    6  H           1     -22.796  -8.528 -20.442  0.00  0.00     0.274 HD
HETATM    7  H           1     -21.492  -9.182 -21.328  0.00  0.00     0.274 HD
HETATM    8  H           1     -22.938 -10.071 -21.156  0.00  0.00     0.274 HD
ENDBRANCH   4   5
ENDBRANCH   3   4
ENDBRANCH   2   3
ENDBRANCH   1   2
BRANCH   1   9
HETATM    9  C           1     -26.374  -6.495 -19.630  0.00  0.00     0.249 C 
HETATM   10  N           1     -26.886  -6.489 -18.360  0.00  0.00    -0.344 N 
HETATM   11  H           1     -26.310  -6.782 -17.581  0.00  0.00     0.163 HD
HETATM   12  O           1     -27.062  -6.144 -20.559  0.00  0.00    -0.271 OA
BRANCH  10  13
HETATM   13  C           1     -28.253  -6.064 -18.131  0.00  0.00     0.195 C 
BRANCH  13  14
HETATM   14  C           1     -28.252  -4.738 -17.410  0.00  0.00     0.197 C 
HETATM   15  O           1     -27.416  -4.518 -16.507  0.00  0.00    -0.646 OA
HETATM   16  O           1     -29.087  -3.860 -17.716  0.00  0.00    -0.646 OA
ENDBRANCH  13  14
BRANCH  13  17
HETATM   17  C           1     -28.972  -7.104 -17.282  0.00  0.00     0.149 C 
BRANCH  17  18
HETATM   18  C           1     -30.293  -7.451 -17.923  0.00  0.00     0.175 C 
HETATM   19  O           1     -30.333  -8.265 -18.872  0.00  0.00    -0.648 OA
HETATM   20  O           1     -31.348  -6.926 -17.506  0.00  0.00    -0.648 OA
ENDBRANCH  17  18
ENDBRANCH  13  17
ENDBRANCH  10  13
ENDBRANCH   1   9
BRANCH   1  21
HETATM   21  N           1     -24.377  -7.479 -18.593  0.00  0.00    -0.067 N 
HETATM   22  H           1     -23.786  -8.315 -18.803  0.00  0.00     0.275 HD
HETATM   23  H           1     -23.790  -6.745 -18.136  0.00  0.00     0.275 HD
HETATM   24  H           1     -25.153  -7.754 -17.950  0.00  0.00     0.275 HD
ENDBRANCH   1  21
TORSDOF 10
ENDMDL
MODEL 3
REMARK VINA RESULT:      -6.0      1.819      3.360
REMARK  10 active torsions:
REMARK  status: ('A' for Active; 'I' for Inactive)
REMARK    1  A    between atoms: C_6  and  C_7 
REMARK    2  A    between atoms: C_6  and  N_9 
REMARK    3  A    between atoms: C_7  and  C_10 
REMARK    4  A    between atoms: C_10  and  C_11 
REMARK    5  A    between atoms: C_11  and  C_18 
REMARK    6  A    between atoms: C_11  and  N_22 
REMARK    7  A    between atoms: C_12  and  C_15 
REMARK    8  A    between atoms: N_13  and  C_15 
REMARK       I    between atoms: N_13  and  C_18 
REMARK    9  A    between atoms: C_14  and  C_16 
REMARK   10  A    between atoms: C_15  and  C_16 
ROOT
HETATM    1  C           1     -24.924  -6.842 -20.191  0.00  0.00     0.274 C 
ENDROOT
BRANCH   1   2
HETATM    2  C           1     -24.981  -7.906 -21.279  0.00  0.00     0.044 C 
BRANCH   2   3
HETATM    3  C           1     -24.064  -7.508 -22.429  0.00  0.00     0.030 C 
BRANCH   3   4
HETATM    4  C           1     -23.108  -8.653 -22.735  0.00  0.00     0.230 C 
BRANCH   4   5
HETATM    5  N           1     -22.523  -9.173 -21.455  0.00  0.00    -0.079 N 
HETATM    6  H           1     -22.274 -10.182 -21.570  0.00  0.00     0.274 HD
HETATM    7  H           1     -23.224  -9.072 -20.686  0.00  0.00     0.274 HD
HETATM    8  H           1     -21.664  -8.628 -21.218  0.00  0.00     0.274 HD
ENDBRANCH   4   5
ENDBRANCH   3   4
ENDBRANCH   2   3
ENDBRANCH   1   2
BRANCH   1   9
HETATM    9  C           1     -26.250  -6.784 -19.473  0.00  0.00     0.249 C 
HETATM   10  N           1     -26.307  -6.352 -18.176  0.00  0.00    -0.344 N 
HETATM   11  H           1     -25.460  -6.071 -17.698  0.00  0.00     0.163 HD
HETATM   12  O           1     -27.261  -7.119 -20.043  0.00  0.00    -0.271 OA
BRANCH  10  13
HETATM   13  C           1     -27.581  -6.296 -17.485  0.00  0.00     0.195 C 
BRANCH  13  14
HETATM   14  C           1     -28.156  -4.906 -17.604  0.00  0.00     0.197 C 
HETATM   15  O           1     -28.970  -4.643 -18.515  0.00  0.00    -0.646 OA
HETATM   16  O           1     -27.818  -4.018 -16.792  0.00  0.00    -0.646 OA
ENDBRANCH  13  14
BRANCH  13  17
HETATM   17  C           1     -27.376  -6.637 -16.015  0.00  0.00     0.149 C 
BRANCH  17  18
HETATM   18  C           1     -25.899  -6.743 -15.724  0.00  0.00     0.175 C 
HETATM   19  O           1     -25.224  -5.709 -15.531  0.00  0.00    -0.648 OA
HETATM   20  O           1     -25.350  -7.865 -15.676  0.00  0.00    -0.648 OA
ENDBRANCH  17  18
ENDBRANCH  13  17
ENDBRANCH  10  13
ENDBRANCH   1   9
BRANCH   1  21
HETATM   21  N           1     -23.840  -7.187 -19.213  0.00  0.00    -0.067 N 
HETATM   22  H           1     -23.315  -6.322 -18.955  0.00  0.00     0.275 HD
HETATM   23  H           1     -24.267  -7.604 -18.355  0.00  0.00     0.275 HD
HETATM   24  H           1     -23.185  -7.876 -19.647  0.00  0.00     0.275 HD
ENDBRANCH   1  21
TORSDOF 10
ENDMDL
MODEL 4
REMARK VINA RESULT:      -5.9     10.110     12.016
REMARK  10 active torsions:
REMARK  status: ('A' for Active; 'I' for Inactive)
REMARK    1  A    between atoms: C_6  and  C_7 
REMARK    2  A    between atoms: C_6  and  N_9 
REMARK    3  A    between atoms: C_7  and  C_10 
REMARK    4  A    between atoms: C_10  and  C_11 
REMARK    5  A    between atoms: C_11  and  C_18 
REMARK    6  A    between atoms: C_11  and  N_22 
REMARK    7  A    between atoms: C_12  and  C_15 
REMARK    8  A    between atoms: N_13  and  C_15 
REMARK       I    between atoms: N_13  and  C_18 
REMARK    9  A    between atoms: C_14  and  C_16 
REMARK   10  A    between atoms: C_15  and  C_16 
ROOT
HETATM    1  C           1     -21.192  -5.883  -6.864  0.00  0.00     0.274 C 
ENDROOT
BRANCH   1   2
HETATM    2  C           1     -21.101  -5.500  -5.393  0.00  0.00     0.044 C 
BRANCH   2   3
HETATM    3  C           1     -21.960  -6.448  -4.566  0.00  0.00     0.030 C 
BRANCH   3   4
HETATM    4  C           1     -21.413  -6.522  -3.147  0.00  0.00     0.230 C 
BRANCH   4   5
HETATM    5  N           1     -22.395  -5.901  -2.198  0.00  0.00    -0.079 N 
HETATM    6  H           1     -21.932  -5.125  -1.675  0.00  0.00     0.274 HD
HETATM    7  H           1     -22.732  -6.625  -1.523  0.00  0.00     0.274 HD
HETATM    8  H           1     -23.207  -5.522  -2.736  0.00  0.00     0.274 HD
ENDBRANCH   4   5
ENDBRANCH   3   4
ENDBRANCH   2   3
ENDBRANCH   1   2
BRANCH   1   9
HETATM    9  C           1     -21.713  -4.711  -7.659  0.00  0.00     0.249 C 
HETATM   10  N           1     -22.285  -4.916  -8.885  0.00  0.00    -0.344 N 
HETATM   11  H           1     -22.359  -5.853  -9.259  0.00  0.00     0.163 HD
HETATM   12  O           1     -21.626  -3.592  -7.213  0.00  0.00    -0.271 OA
BRANCH  10  13
HETATM   13  C           1     -22.786  -3.790  -9.649  0.00  0.00     0.195 C 
BRANCH  13  14
HETATM   14  C           1     -24.294  -3.840  -9.688  0.00  0.00     0.197 C 
HETATM   15  O           1     -24.878  -4.930  -9.864  0.00  0.00    -0.646 OA
HETATM   16  O           1     -24.958  -2.791  -9.544  0.00  0.00    -0.646 OA
ENDBRANCH  13  14
BRANCH  13  17
HETATM   17  C           1     -22.239  -3.856 -11.069  0.00  0.00     0.149 C 
BRANCH  17  18
HETATM   18  C           1     -20.737  -3.706 -11.037  0.00  0.00     0.175 C 
HETATM   19  O           1     -20.016  -4.689 -10.760  0.00  0.00    -0.648 OA
HETATM   20  O           1     -20.214  -2.599 -11.288  0.00  0.00    -0.648 OA
ENDBRANCH  17  18
ENDBRANCH  13  17
ENDBRANCH  10  13
ENDBRANCH   1   9
BRANCH   1  21
HETATM   21  N           1     -19.830  -6.261  -7.366  0.00  0.00    -0.067 N 
HETATM   22  H           1     -19.926  -6.851  -8.223  0.00  0.00     0.275 HD
HETATM   23  H           1     -19.293  -5.396  -7.598  0.00  0.00     0.275 HD
HETATM   24  H           1     -19.324  -6.800  -6.628  0.00  0.00     0.275 HD
ENDBRANCH   1  21
TORSDOF 10
ENDMDL
MODEL 5
REMARK VINA RESULT:      -5.9      9.428     11.307
REMARK  10 active torsions:
REMARK  status: ('A' for Active; 'I' for Inactive)
REMARK    1  A    between atoms: C_6  and  C_7 
REMARK    2  A    between atoms: C_6  and  N_9 
REMARK    3  A    between atoms: C_7  and  C_10 
REMARK    4  A    between atoms: C_10  and  C_11 
REMARK    5  A    between atoms: C_11  and  C_18 
REMARK    6  A    between atoms: C_11  and  N_22 
REMARK    7  A    between atoms: C_12  and  C_15 
REMARK    8  A    between atoms: N_13  and  C_15 
REMARK       I    between atoms: N_13  and  C_18 
REMARK    9  A    between atoms: C_14  and  C_16 
REMARK   10  A    between atoms: C_15  and  C_16 
ROOT
HETATM    1  C           1     -21.782  -4.282  -6.806  0.00  0.00     0.274 C 
ENDROOT
BRANCH   1   2
HETATM    2  C           1     -20.725  -4.896  -5.897  0.00  0.00     0.044 C 
BRANCH   2   3
HETATM    3  C           1     -21.363  -5.974  -5.030  0.00  0.00     0.030 C 
BRANCH   3   4
HETATM    4  C           1     -20.507  -7.232  -5.072  0.00  0.00     0.230 C 
BRANCH   4   5
HETATM    5  N           1     -19.750  -7.281  -6.366  0.00  0.00    -0.079 N 
HETATM    6  H           1     -19.727  -6.328  -6.793  0.00  0.00     0.274 HD
HETATM    7  H           1     -20.223  -7.945  -7.021  0.00  0.00     0.274 HD
HETATM    8  H           1     -18.774  -7.606  -6.187  0.00  0.00     0.274 HD
ENDBRANCH   4   5
ENDBRANCH   3   4
ENDBRANCH   2   3
ENDBRANCH   1   2
BRANCH   1   9
HETATM    9  C           1     -21.478  -4.636  -8.242  0.00  0.00     0.249 C 
HETATM   10  N           1     -22.281  -4.167  -9.246  0.00  0.00    -0.344 N 
HETATM   11  H           1     -23.078  -3.584  -9.026  0.00  0.00     0.163 HD
HETATM   12  O           1     -20.526  -5.332  -8.504  0.00  0.00    -0.271 OA
BRANCH  10  13
HETATM   13  C           1     -21.989  -4.507 -10.625  0.00  0.00     0.195 C 
BRANCH  13  14
HETATM   14  C           1     -21.216  -3.381 -11.267  0.00  0.00     0.197 C 
HETATM   15  O           1     -19.967  -3.414 -11.290  0.00  0.00    -0.646 OA
HETATM   16  O           1     -21.825  -2.415 -11.776  0.00  0.00    -0.646 OA
ENDBRANCH  13  14
BRANCH  13  17
HETATM   17  C           1     -23.294  -4.723 -11.381  0.00  0.00     0.149 C 
BRANCH  17  18
HETATM   18  C           1     -24.448  -4.229 -10.544  0.00  0.00     0.175 C 
HETATM   19  O           1     -24.920  -3.087 -10.740  0.00  0.00    -0.648 OA
HETATM   20  O           1     -24.933  -4.960  -9.654  0.00  0.00    -0.648 OA
ENDBRANCH  17  18
ENDBRANCH  13  17
ENDBRANCH  10  13
ENDBRANCH   1   9
BRANCH   1  21
HETATM   21  N           1     -23.132  -4.819  -6.435  0.00  0.00    -0.067 N 
HETATM   22  H           1     -23.872  -4.277  -6.935  0.00  0.00     0.275 HD
HETATM   23  H           1     -23.194  -5.826  -6.708  0.00  0.00     0.275 HD
HETATM   24  H           1     -23.271  -4.729  -5.403  0.00  0.00     0.275 HD
ENDBRANCH   1  21
TORSDOF 10
ENDMDL
MODEL 6
REMARK VINA RESULT:      -5.6     12.270     14.369
REMARK  10 active torsions:
REMARK  status: ('A' for Active; 'I' for Inactive)
REMARK    1  A    between atoms: C_6  and  C_7 
REMARK    2  A    between atoms: C_6  and  N_9 
REMARK    3  A    between atoms: C_7  and  C_10 
REMARK    4  A    between atoms: C_10  and  C_11 
REMARK    5  A    between atoms: C_11  and  C_18 
REMARK    6  A    between atoms: C_11  and  N_22 
REMARK    7  A    between atoms: C_12  and  C_15 
REMARK    8  A    between atoms: N_13  and  C_15 
REMARK       I    between atoms: N_13  and  C_18 
REMARK    9  A    between atoms: C_14  and  C_16 
REMARK   10  A    between atoms: C_15  and  C_16 
ROOT
HETATM    1  C           1     -20.453  -5.024  -6.528  0.00  0.00     0.274 C 
ENDROOT
BRANCH   1   2
HETATM    2  C           1     -21.225  -3.863  -7.142  0.00  0.00     0.044 C 
BRANCH   2   3
HETATM    3  C           1     -21.409  -4.106  -8.635  0.00  0.00     0.030 C 
BRANCH   3   4
HETATM    4  C           1     -22.824  -3.718  -9.042  0.00  0.00     0.230 C 
BRANCH   4   5
HETATM    5  N           1     -23.781  -4.096  -7.951  0.00  0.00    -0.079 N 
HETATM    6  H           1     -24.737  -4.218  -8.353  0.00  0.00     0.274 HD
HETATM    7  H           1     -23.800  -3.340  -7.228  0.00  0.00     0.274 HD
HETATM    8  H           1     -23.471  -4.991  -7.510  0.00  0.00     0.274 HD
ENDBRANCH   4   5
ENDBRANCH   3   4
ENDBRANCH   2   3
ENDBRANCH   1   2
BRANCH   1   9
HETATM    9  C           1     -21.363  -5.804  -5.611  0.00  0.00     0.249 C 
HETATM   10  N           1     -20.834  -6.713  -4.735  0.00  0.00    -0.344 N 
HETATM   11  H           1     -19.834  -6.862  -4.703  0.00  0.00     0.163 HD
HETATM   12  O           1     -22.557  -5.626  -5.649  0.00  0.00    -0.271 OA
BRANCH  10  13
HETATM   13  C           1     -21.708  -7.463  -3.854  0.00  0.00     0.195 C 
BRANCH  13  14
HETATM   14  C           1     -21.635  -6.883  -2.462  0.00  0.00     0.197 C 
HETATM   15  O           1     -20.915  -7.424  -1.597  0.00  0.00    -0.646 OA
HETATM   16  O           1     -22.296  -5.861  -2.176  0.00  0.00    -0.646 OA
ENDBRANCH  13  14
BRANCH  13  17
HETATM   17  C           1     -21.265  -8.920  -3.821  0.00  0.00     0.149 C 
BRANCH  17  18
HETATM   18  C           1     -19.955  -9.065  -4.556  0.00  0.00     0.175 C 
HETATM   19  O           1     -18.875  -8.932  -3.941  0.00  0.00    -0.648 OA
HETATM   20  O           1     -19.951  -9.319  -5.780  0.00  0.00    -0.648 OA
ENDBRANCH  17  18
ENDBRANCH  13  17
ENDBRANCH  10  13
ENDBRANCH   1   9
BRANCH   1  21
HETATM   21  N           1     -19.954  -5.923  -7.620  0.00  0.00    -0.067 N 
HETATM   22  H           1     -20.047  -5.439  -8.541  0.00  0.00     0.275 HD
HETATM   23  H           1     -18.949  -6.153  -7.448  0.00  0.00     0.275 HD
HETATM   24  H           1     -20.516  -6.804  -7.631  0.00  0.00     0.275 HD
ENDBRANCH   1  21
TORSDOF 10
ENDMDL
MODEL 7
REMARK VINA RESULT:      -5.4      1.770      2.628
REMARK  10 active torsions:
REMARK  status: ('A' for Active; 'I' for Inactive)
REMARK    1  A    between atoms: C_6  and  C_7 
REMARK    2  A    between atoms: C_6  and  N_9 
REMARK    3  A    between atoms: C_7  and  C_10 
REMARK    4  A    between atoms: C_10  and  C_11 
REMARK    5  A    between atoms: C_11  and  C_18 
REMARK    6  A    between atoms: C_11  and  N_22 
REMARK    7  A    between atoms: C_12  and  C_15 
REMARK    8  A    between atoms: N_13  and  C_15 
REMARK       I    between atoms: N_13  and  C_18 
REMARK    9  A    between atoms: C_14  and  C_16 
REMARK   10  A    between atoms: C_15  and  C_16 
ROOT
HETATM    1  C           1     -25.797  -6.943 -20.433  0.00  0.00     0.274 C 
ENDROOT
BRANCH   1   2
HETATM    2  C           1     -24.629  -7.885 -20.690  0.00  0.00     0.044 C 
BRANCH   2   3
HETATM    3  C           1     -24.206  -7.786 -22.151  0.00  0.00     0.030 C 
BRANCH   3   4
HETATM    4  C           1     -22.873  -8.495 -22.343  0.00  0.00     0.230 C 
BRANCH   4   5
HETATM    5  N           1     -22.447  -9.121 -21.048  0.00  0.00    -0.079 N 
HETATM    6  H           1     -23.282  -9.512 -20.558  0.00  0.00     0.274 HD
HETATM    7  H           1     -21.995  -8.397 -20.444  0.00  0.00     0.274 HD
HETATM    8  H           1     -21.765  -9.889 -21.240  0.00  0.00     0.274 HD
ENDBRANCH   4   5
ENDBRANCH   3   4
ENDBRANCH   2   3
ENDBRANCH   1   2
BRANCH   1   9
HETATM    9  C           1     -25.880  -6.635 -18.958  0.00  0.00     0.249 C 
HETATM   10  N           1     -27.099  -6.434 -18.369  0.00  0.00    -0.344 N 
HETATM   11  H           1     -27.944  -6.491 -18.923  0.00  0.00     0.163 HD
HETATM   12  O           1     -24.872  -6.567 -18.297  0.00  0.00    -0.271 OA
BRANCH  10  13
HETATM   13  C           1     -27.180  -6.137 -16.952  0.00  0.00     0.195 C 
BRANCH  13  14
HETATM   14  C           1     -28.052  -7.165 -16.273  0.00  0.00     0.197 C 
HETATM   15  O           1     -28.960  -7.736 -16.914  0.00  0.00    -0.646 OA
HETATM   16  O           1     -27.865  -7.446 -15.069  0.00  0.00    -0.646 OA
ENDBRANCH  13  14
BRANCH  13  17
HETATM   17  C           1     -27.781  -4.752 -16.757  0.00  0.00     0.149 C 
BRANCH  17  18
HETATM   18  C           1     -29.135  -4.692 -17.422  0.00  0.00     0.175 C 
HETATM   19  O           1     -30.174  -4.695 -16.727  0.00  0.00    -0.648 OA
HETATM   20  O           1     -29.217  -4.640 -18.668  0.00  0.00    -0.648 OA
ENDBRANCH  17  18
ENDBRANCH  13  17
ENDBRANCH  10  13
ENDBRANCH   1   9
BRANCH   1  21
HETATM   21  N           1     -25.589  -5.670 -21.198  0.00  0.00    -0.067 N 
HETATM   22  H           1     -26.142  -4.902 -20.754  0.00  0.00     0.275 HD
HETATM   23  H           1     -24.575  -5.420 -21.188  0.00  0.00     0.275 HD
HETATM   24  H           1     -25.906  -5.801 -22.185  0.00  0.00     0.275 HD
ENDBRANCH   1  21
TORSDOF 10
ENDMDL
MODEL 8
REMARK VINA RESULT:      -5.3     10.169     12.217
REMARK  10 active torsions:
REMARK  status: ('A' for Active; 'I' for Inactive)
REMARK    1  A    between atoms: C_6  and  C_7 
REMARK    2  A    between atoms: C_6  and  N_9 
REMARK    3  A    between atoms: C_7  and  C_10 
REMARK    4  A    between atoms: C_10  and  C_11 
REMARK    5  A    between atoms: C_11  and  C_18 
REMARK    6  A    between atoms: C_11  and  N_22 
REMARK    7  A    between atoms: C_12  and  C_15 
REMARK    8  A    between atoms: N_13  and  C_15 
REMARK       I    between atoms: N_13  and  C_18 
REMARK    9  A    between atoms: C_14  and  C_16 
REMARK   10  A    between atoms: C_15  and  C_16 
ROOT
HETATM    1  C           1     -23.239  -4.263  -9.127  0.00  0.00     0.274 C 
ENDROOT
BRANCH   1   2
HETATM    2  C           1     -22.934  -3.588 -10.458  0.00  0.00     0.044 C 
BRANCH   2   3
HETATM    3  C           1     -22.280  -4.591 -11.400  0.00  0.00     0.030 C 
BRANCH   3   4
HETATM    4  C           1     -20.779  -4.339 -11.446  0.00  0.00     0.230 C 
BRANCH   4   5
HETATM    5  N           1     -20.518  -2.862 -11.446  0.00  0.00    -0.079 N 
HETATM    6  H           1     -21.044  -2.415 -12.230  0.00  0.00     0.274 HD
HETATM    7  H           1     -19.494  -2.690 -11.569  0.00  0.00     0.274 HD
HETATM    8  H           1     -20.833  -2.453 -10.537  0.00  0.00     0.274 HD
ENDBRANCH   4   5
ENDBRANCH   3   4
ENDBRANCH   2   3
ENDBRANCH   1   2
BRANCH   1   9
HETATM    9  C           1     -22.082  -4.054  -8.181  0.00  0.00     0.249 C 
HETATM   10  N           1     -21.817  -4.982  -7.210  0.00  0.00    -0.344 N 
HETATM   11  H           1     -22.396  -5.807  -7.127  0.00  0.00     0.163 HD
HETATM   12  O           1     -21.390  -3.070  -8.281  0.00  0.00    -0.271 OA
BRANCH  10  13
HETATM   13  C           1     -20.705  -4.781  -6.300  0.00  0.00     0.195 C 
BRANCH  13  14
HETATM   14  C           1     -19.446  -5.341  -6.915  0.00  0.00     0.197 C 
HETATM   15  O           1     -19.335  -6.572  -7.100  0.00  0.00    -0.646 OA
HETATM   16  O           1     -18.514  -4.574  -7.239  0.00  0.00    -0.646 OA
ENDBRANCH  13  14
BRANCH  13  17
HETATM   17  C           1     -20.991  -5.496  -4.986  0.00  0.00     0.149 C 
BRANCH  17  18
HETATM   18  C           1     -22.129  -6.469  -5.178  0.00  0.00     0.175 C 
HETATM   19  O           1     -21.889  -7.669  -5.435  0.00  0.00    -0.648 OA
HETATM   20  O           1     -23.311  -6.075  -5.081  0.00  0.00    -0.648 OA
ENDBRANCH  17  18
ENDBRANCH  13  17
ENDBRANCH  10  13
ENDBRANCH   1   9
BRANCH   1  21
HETATM   21  N           1     -24.481  -3.665  -8.537  0.00  0.00    -0.067 N 
HETATM   22  H           1     -25.177  -3.488  -9.296  0.00  0.00     0.275 HD
HETATM   23  H           1     -24.888  -4.328  -7.839  0.00  0.00     0.275 HD
HETATM   24  H           1     -24.244  -2.764  -8.065  0.00  0.00     0.275 HD
ENDBRANCH   1  21
TORSDOF 10
ENDMDL
MODEL 9
REMARK VINA RESULT:      -5.1     13.552     15.399
REMARK  10 active torsions:
REMARK  status: ('A' for Active; 'I' for Inactive)
REMARK    1  A    between atoms: C_6  and  C_7 
REMARK    2  A    between atoms: C_6  and  N_9 
REMARK    3  A    between atoms: C_7  and  C_10 
REMARK    4  A    between atoms: C_10  and  C_11 
REMARK    5  A    between atoms: C_11  and  C_18 
REMARK    6  A    between atoms: C_11  and  N_22 
REMARK    7  A    between atoms: C_12  and  C_15 
REMARK    8  A    between atoms: N_13  and  C_15 
REMARK       I    between atoms: N_13  and  C_18 
REMARK    9  A    between atoms: C_14  and  C_16 
REMARK   10  A    between atoms: C_15  and  C_16 
ROOT
HETATM    1  C           1     -21.441  -6.930  -5.813  0.00  0.00     0.274 C 
ENDROOT
BRANCH   1   2
HETATM    2  C           1     -20.377  -6.113  -6.534  0.00  0.00     0.044 C 
BRANCH   2   3
HETATM    3  C           1     -20.531  -4.642  -6.168  0.00  0.00     0.030 C 
BRANCH   3   4
HETATM    4  C           1     -20.684  -3.817  -7.438  0.00  0.00     0.230 C 
BRANCH   4   5
HETATM    5  N           1     -22.128  -3.458  -7.631  0.00  0.00    -0.079 N 
HETATM    6  H           1     -22.197  -2.500  -8.042  0.00  0.00     0.274 HD
HETATM    7  H           1     -22.617  -3.477  -6.707  0.00  0.00     0.274 HD
HETATM    8  H           1     -22.575  -4.147  -8.275  0.00  0.00     0.274 HD
ENDBRANCH   4   5
ENDBRANCH   3   4
ENDBRANCH   2   3
ENDBRANCH   1   2
BRANCH   1   9
HETATM    9  C           1     -20.810  -7.674  -4.661  0.00  0.00     0.249 C 
HETATM   10  N           1     -21.548  -7.958  -3.544  0.00  0.00    -0.344 N 
HETATM   11  H           1     -22.516  -7.669  -3.490  0.00  0.00     0.163 HD
HETATM   12  O           1     -19.655  -8.020  -4.726  0.00  0.00    -0.271 OA
BRANCH  10  13
HETATM   13  C           1     -20.942  -8.673  -2.437  0.00  0.00     0.195 C 
BRANCH  13  14
HETATM   14  C           1     -21.742  -9.919  -2.146  0.00  0.00     0.197 C 
HETATM   15  O           1     -22.419 -10.453  -3.051  0.00  0.00    -0.646 OA
HETATM   16  O           1     -21.727 -10.417  -1.000  0.00  0.00    -0.646 OA
ENDBRANCH  13  14
BRANCH  13  17
HETATM   17  C           1     -20.926  -7.779  -1.204  0.00  0.00     0.149 C 
BRANCH  17  18
HETATM   18  C           1     -22.159  -6.908  -1.198  0.00  0.00     0.175 C 
HETATM   19  O           1     -23.110  -7.176  -0.433  0.00  0.00    -0.648 OA
HETATM   20  O           1     -22.228  -5.918  -1.958  0.00  0.00    -0.648 OA
ENDBRANCH  17  18
ENDBRANCH  13  17
ENDBRANCH  10  13
ENDBRANCH   1   9
BRANCH   1  21
HETATM   21  N           1     -22.507  -6.012  -5.290  0.00  0.00    -0.067 N 
HETATM   22  H           1     -23.067  -6.508  -4.561  0.00  0.00     0.275 HD
HETATM   23  H           1     -22.061  -5.166  -4.871  0.00  0.00     0.275 HD
HETATM   24  H           1     -23.134  -5.724  -6.075  0.00  0.00     0.275 HD
ENDBRANCH   1  21
TORSDOF 10
ENDMDL
