MODEL 1
REMARK VINA RESULT:      -6.9      0.000      0.000
REMARK  16 active torsions:
REMARK  status: ('A' for Active; 'I' for Inactive)
REMARK    1  A    between atoms: C_2  and  C_3 
REMARK    2  A    between atoms: C_2  and  C_7 
REMARK    3  A    between atoms: C_3  and  C_12 
REMARK       I    between atoms: N_4  and  C_12 
REMARK    4  A    between atoms: C_6  and  C_7 
REMARK    5  A    between atoms: C_7  and  N_19 
REMARK       I    between atoms: N_13  and  C_24 
REMARK    6  A    between atoms: C_14  and  N_19 
REMARK    7  A    between atoms: C_14  and  C_15 
REMARK    8  A    between atoms: C_15  and  C_16 
REMARK    9  A    between atoms: C_16  and  C_17 
REMARK   10  A    between atoms: C_16  and  N_37 
REMARK   11  A    between atoms: C_21  and  C_40 
REMARK   12  A    between atoms: C_21  and  C_22 
REMARK   13  A    between atoms: C_22  and  N_23 
REMARK       I    between atoms: N_23  and  C_24 
REMARK   14  A    between atoms: N_33  and  C_39 
REMARK       I    between atoms: N_37  and  C_38 
REMARK   15  A    between atoms: C_38  and  C_39 
REMARK   16  A    between atoms: C_39  and  C_40 
ROOT
HETATM    1  H           1     -33.712  -1.368 -15.447  0.00  0.00     0.163 HD
HETATM    2  O           1     -36.649  -1.345 -16.549  0.00  0.00    -0.271 OA
HETATM    3  N           1     -34.539  -1.712 -15.920  0.00  0.00    -0.345 N 
HETATM    4  C           1     -35.663  -0.934 -15.985  0.00  0.00     0.249 C 
ENDROOT
BRANCH   3   5
HETATM    5  C           1     -34.531  -3.029 -16.528  0.00  0.00     0.187 C 
BRANCH   5   6
HETATM    6  C           1     -33.237  -3.219 -17.308  0.00  0.00     0.066 C 
BRANCH   6   7
HETATM    7  C           1     -32.357  -4.236 -16.593  0.00  0.00     0.273 C 
BRANCH   7   8
HETATM    8  N           1     -31.177  -4.484 -17.375  0.00  0.00     0.098 N 
HETATM    9  H           1     -30.950  -3.653 -17.922  0.00  0.00     0.317 HD
BRANCH   8  10
HETATM   10  C           1     -30.100  -4.767 -16.465  0.00  0.00     0.320 C 
BRANCH  10  11
HETATM   11  C           1     -29.817  -6.263 -16.465  0.00  0.00     0.056 C 
BRANCH  11  12
HETATM   12  C           1     -30.601  -6.929 -17.589  0.00  0.00     0.105 C 
BRANCH  12  13
HETATM   13  C           1     -29.645  -7.624 -18.527  0.00  0.00     0.215 C 
HETATM   14  O           1     -29.995  -8.616 -19.121  0.00  0.00    -0.274 OA
HETATM   15  N           1     -28.380  -7.130 -18.703  0.00  0.00    -0.370 N 
HETATM   16  H           1     -28.086  -6.299 -18.206  0.00  0.00     0.159 HD
HETATM   17  H           1     -27.738  -7.596 -19.332  0.00  0.00     0.159 HD
ENDBRANCH  12  13
ENDBRANCH  11  12
ENDBRANCH  10  11
BRANCH  10  18
HETATM   18  C           1     -28.864  -4.020 -16.902  0.00  0.00     0.207 C 
HETATM   19  O           1     -27.741  -4.563 -16.816  0.00  0.00    -0.646 OA
HETATM   20  O           1     -28.963  -2.857 -17.352  0.00  0.00    -0.646 OA
ENDBRANCH  10  18
ENDBRANCH   8  10
ENDBRANCH   7   8
ENDBRANCH   6   7
ENDBRANCH   5   6
BRANCH   5  21
HETATM   21  C           1     -34.628  -4.080 -15.450  0.00  0.00     0.196 C 
HETATM   22  O           1     -35.144  -5.190 -15.705  0.00  0.00    -0.646 OA
HETATM   23  O           1     -34.193  -3.841 -14.303  0.00  0.00    -0.646 OA
ENDBRANCH   5  21
ENDBRANCH   3   5
BRANCH   4  24
HETATM   24  C           1     -35.672   0.436 -15.353  0.00  0.00     0.274 C 
BRANCH  24  25
HETATM   25  N           1     -36.556   1.347 -16.150  0.00  0.00    -0.067 N 
HETATM   26  H           1     -35.965   1.983 -16.733  0.00  0.00     0.275 HD
HETATM   27  H           1     -37.146   1.917 -15.502  0.00  0.00     0.275 HD
HETATM   28  H           1     -37.173   0.779 -16.773  0.00  0.00     0.275 HD
ENDBRANCH  24  25
BRANCH  24  29
HETATM   29  C           1     -36.198   0.336 -13.928  0.00  0.00     0.044 C 
BRANCH  29  30
HETATM   30  C           1     -35.029   0.184 -12.964  0.00  0.00     0.023 C 
BRANCH  30  31
HETATM   31  C           1     -35.363  -0.873 -11.921  0.00  0.00     0.138 C 
BRANCH  31  32
HETATM   32  N           1     -34.515  -2.055 -12.130  0.00  0.00    -0.227 N 
HETATM   33  C           1     -33.701  -2.417 -11.231  0.00  0.00     0.665 C 
HETATM   34  N           1     -33.617  -1.745 -10.122  0.00  0.00    -0.235 N 
HETATM   35  N           1     -32.970  -3.436 -11.411  0.00  0.00    -0.235 N 
HETATM   36  H           1     -32.945  -2.045  -9.378  0.00  0.00     0.174 HD
HETATM   37  H           1     -34.220  -0.905  -9.972  0.00  0.00     0.174 HD
HETATM   38  H           1     -32.296  -3.737 -10.665  0.00  0.00     0.174 HD
HETATM   39  H           1     -33.038  -3.979 -12.307  0.00  0.00     0.174 HD
HETATM   40  H           1     -34.583  -2.598 -13.026  0.00  0.00     0.177 HD
ENDBRANCH  31  32
ENDBRANCH  30  31
ENDBRANCH  29  30
ENDBRANCH  24  29
ENDBRANCH   4  24
TORSDOF 16
ENDMDL
MODEL 2
REMARK VINA RESULT:      -6.8     15.305     18.051
REMARK  16 active torsions:
REMARK  status: ('A' for Active; 'I' for Inactive)
REMARK    1  A    between atoms: C_2  and  C_3 
REMARK    2  A    between atoms: C_2  and  C_7 
REMARK    3  A    between atoms: C_3  and  C_12 
REMARK       I    between atoms: N_4  and  C_12 
REMARK    4  A    between atoms: C_6  and  C_7 
REMARK    5  A    between atoms: C_7  and  N_19 
REMARK       I    between atoms: N_13  and  C_24 
REMARK    6  A    between atoms: C_14  and  N_19 
REMARK    7  A    between atoms: C_14  and  C_15 
REMARK    8  A    between atoms: C_15  and  C_16 
REMARK    9  A    between atoms: C_16  and  C_17 
REMARK   10  A    between atoms: C_16  and  N_37 
REMARK   11  A    between atoms: C_21  and  C_40 
REMARK   12  A    between atoms: C_21  and  C_22 
REMARK   13  A    between atoms: C_22  and  N_23 
REMARK       I    between atoms: N_23  and  C_24 
REMARK   14  A    between atoms: N_33  and  C_39 
REMARK       I    between atoms: N_37  and  C_38 
REMARK   15  A    between atoms: C_38  and  C_39 
REMARK   16  A    between atoms: C_39  and  C_40 
ROOT
HETATM    1  H           1     -21.257  -8.112  -3.331  0.00  0.00     0.163 HD
HETATM    2  O           1     -19.735  -7.767  -6.052  0.00  0.00    -0.271 OA
HETATM    3  N           1     -20.634  -8.348  -4.093  0.00  0.00    -0.345 N 
HETATM    4  C           1     -20.477  -7.484  -5.142  0.00  0.00     0.249 C 
ENDROOT
BRANCH   3   5
HETATM    5  C           1     -19.908  -9.604  -4.072  0.00  0.00     0.187 C 
BRANCH   5   6
HETATM    6  C           1     -19.417  -9.882  -2.657  0.00  0.00     0.066 C 
BRANCH   6   7
HETATM    7  C           1     -20.161  -8.987  -1.676  0.00  0.00     0.273 C 
BRANCH   7   8
HETATM    8  N           1     -21.032  -9.790  -0.860  0.00  0.00     0.098 N 
HETATM    9  H           1     -20.711  -9.761   0.109  0.00  0.00     0.317 HD
BRANCH   8  10
HETATM   10  C           1     -22.352  -9.227  -0.944  0.00  0.00     0.320 C 
BRANCH  10  11
HETATM   11  C           1     -23.345 -10.162  -0.268  0.00  0.00     0.056 C 
BRANCH  11  12
HETATM   12  C           1     -23.855 -11.180  -1.280  0.00  0.00     0.105 C 
BRANCH  12  13
HETATM   13  C           1     -23.352 -12.553  -0.910  0.00  0.00     0.215 C 
HETATM   14  O           1     -22.196 -12.710  -0.596  0.00  0.00    -0.274 OA
HETATM   15  N           1     -24.207 -13.623  -0.931  0.00  0.00    -0.370 N 
HETATM   16  H           1     -25.175 -13.492  -1.194  0.00  0.00     0.159 HD
HETATM   17  H           1     -23.870 -14.544  -0.683  0.00  0.00     0.159 HD
ENDBRANCH  12  13
ENDBRANCH  11  12
ENDBRANCH  10  11
BRANCH  10  18
HETATM   18  C           1     -22.371  -7.886  -0.252  0.00  0.00     0.207 C 
HETATM   19  O           1     -22.064  -7.801   0.957  0.00  0.00    -0.646 OA
HETATM   20  O           1     -22.693  -6.859  -0.889  0.00  0.00    -0.646 OA
ENDBRANCH  10  18
ENDBRANCH   8  10
ENDBRANCH   7   8
ENDBRANCH   6   7
ENDBRANCH   5   6
BRANCH   5  21
HETATM   21  C           1     -20.821 -10.720  -4.517  0.00  0.00     0.196 C 
HETATM   22  O           1     -21.070 -10.877  -5.732  0.00  0.00    -0.646 OA
HETATM   23  O           1     -21.329 -11.486  -3.670  0.00  0.00    -0.646 OA
ENDBRANCH   5  21
ENDBRANCH   3   5
BRANCH   4  24
HETATM   24  C           1     -21.233  -6.178  -5.164  0.00  0.00     0.274 C 
BRANCH  24  25
HETATM   25  N           1     -21.870  -5.947  -3.826  0.00  0.00    -0.067 N 
HETATM   26  H           1     -21.585  -5.010  -3.462  0.00  0.00     0.275 HD
HETATM   27  H           1     -21.559  -6.690  -3.159  0.00  0.00     0.275 HD
HETATM   28  H           1     -22.910  -5.980  -3.924  0.00  0.00     0.275 HD
ENDBRANCH  24  25
BRANCH  24  29
HETATM   29  C           1     -20.271  -5.038  -5.472  0.00  0.00     0.044 C 
BRANCH  29  30
HETATM   30  C           1     -20.885  -4.128  -6.528  0.00  0.00     0.023 C 
BRANCH  30  31
HETATM   31  C           1     -21.852  -4.928  -7.390  0.00  0.00     0.138 C 
BRANCH  31  32
HETATM   32  N           1     -23.056  -4.127  -7.648  0.00  0.00    -0.227 N 
HETATM   33  C           1     -23.528  -4.054  -8.821  0.00  0.00     0.665 C 
HETATM   34  N           1     -22.947  -4.687  -9.795  0.00  0.00    -0.235 N 
HETATM   35  N           1     -24.567  -3.364  -9.043  0.00  0.00    -0.235 N 
HETATM   36  H           1     -23.337  -4.627 -10.764  0.00  0.00     0.174 HD
HETATM   37  H           1     -22.090  -5.257  -9.612  0.00  0.00     0.174 HD
HETATM   38  H           1     -24.958  -3.303 -10.015  0.00  0.00     0.174 HD
HETATM   39  H           1     -25.036  -2.852  -8.255  0.00  0.00     0.174 HD
HETATM   40  H           1     -23.525  -3.615  -6.860  0.00  0.00     0.177 HD
ENDBRANCH  31  32
ENDBRANCH  30  31
ENDBRANCH  29  30
ENDBRANCH  24  29
ENDBRANCH   4  24
TORSDOF 16
ENDMDL
MODEL 3
REMARK VINA RESULT:      -6.7     14.793     17.623
REMARK  16 active torsions:
REMARK  status: ('A' for Active; 'I' for Inactive)
REMARK    1  A    between atoms: C_2  and  C_3 
REMARK    2  A    between atoms: C_2  and  C_7 
REMARK    3  A    between atoms: C_3  and  C_12 
REMARK       I    between atoms: N_4  and  C_12 
REMARK    4  A    between atoms: C_6  and  C_7 
REMARK    5  A    between atoms: C_7  and  N_19 
REMARK       I    between atoms: N_13  and  C_24 
REMARK    6  A    between atoms: C_14  and  N_19 
REMARK    7  A    between atoms: C_14  and  C_15 
REMARK    8  A    between atoms: C_15  and  C_16 
REMARK    9  A    between atoms: C_16  and  C_17 
REMARK   10  A    between atoms: C_16  and  N_37 
REMARK   11  A    between atoms: C_21  and  C_40 
REMARK   12  A    between atoms: C_21  and  C_22 
REMARK   13  A    between atoms: C_22  and  N_23 
REMARK       I    between atoms: N_23  and  C_24 
REMARK   14  A    between atoms: N_33  and  C_39 
REMARK       I    between atoms: N_37  and  C_38 
REMARK   15  A    between atoms: C_38  and  C_39 
REMARK   16  A    between atoms: C_39  and  C_40 
ROOT
HETATM    1  H           1     -21.209  -7.953  -4.464  0.00  0.00     0.163 HD
HETATM    2  O           1     -19.404  -6.979  -6.837  0.00  0.00    -0.271 OA
HETATM    3  N           1     -20.423  -7.946  -5.102  0.00  0.00    -0.345 N 
HETATM    4  C           1     -20.342  -6.988  -6.076  0.00  0.00     0.249 C 
ENDROOT
BRANCH   3   5
HETATM    5  C           1     -19.385  -8.951  -4.984  0.00  0.00     0.187 C 
BRANCH   5   6
HETATM    6  C           1     -19.033  -9.146  -3.515  0.00  0.00     0.066 C 
BRANCH   6   7
HETATM    7  C           1     -20.247  -9.680  -2.769  0.00  0.00     0.273 C 
BRANCH   7   8
HETATM    8  N           1     -20.399  -8.969  -1.528  0.00  0.00     0.098 N 
HETATM    9  H           1     -19.789  -8.151  -1.528  0.00  0.00     0.317 HD
BRANCH   8  10
HETATM   10  C           1     -21.769  -8.547  -1.430  0.00  0.00     0.320 C 
BRANCH  10  11
HETATM   11  C           1     -22.311  -8.897  -0.050  0.00  0.00     0.056 C 
BRANCH  11  12
HETATM   12  C           1     -21.908 -10.323   0.306  0.00  0.00     0.105 C 
BRANCH  12  13
HETATM   13  C           1     -22.919 -11.288  -0.261  0.00  0.00     0.215 C 
HETATM   14  O           1     -24.085 -11.188   0.040  0.00  0.00    -0.274 OA
HETATM   15  N           1     -22.514 -12.278  -1.117  0.00  0.00    -0.370 N 
HETATM   16  H           1     -21.538 -12.361  -1.369  0.00  0.00     0.159 HD
HETATM   17  H           1     -23.192 -12.925  -1.497  0.00  0.00     0.159 HD
ENDBRANCH  12  13
ENDBRANCH  11  12
ENDBRANCH  10  11
BRANCH  10  18
HETATM   18  C           1     -21.851  -7.054  -1.639  0.00  0.00     0.207 C 
HETATM   19  O           1     -21.151  -6.507  -2.518  0.00  0.00    -0.646 OA
HETATM   20  O           1     -22.620  -6.366  -0.933  0.00  0.00    -0.646 OA
ENDBRANCH  10  18
ENDBRANCH   8  10
ENDBRANCH   7   8
ENDBRANCH   6   7
ENDBRANCH   5   6
BRANCH   5  21
HETATM   21  C           1     -19.880 -10.255  -5.561  0.00  0.00     0.196 C 
HETATM   22  O           1     -21.030 -10.326  -6.046  0.00  0.00    -0.646 OA
HETATM   23  O           1     -19.140 -11.262  -5.553  0.00  0.00    -0.646 OA
ENDBRANCH   5  21
ENDBRANCH   3   5
BRANCH   4  24
HETATM   24  C           1     -21.422  -5.942  -6.199  0.00  0.00     0.274 C 
BRANCH  24  25
HETATM   25  N           1     -22.337  -6.028  -5.014  0.00  0.00    -0.067 N 
HETATM   26  H           1     -22.890  -6.913  -5.065  0.00  0.00     0.275 HD
HETATM   27  H           1     -22.988  -5.210  -5.016  0.00  0.00     0.275 HD
HETATM   28  H           1     -21.772  -6.021  -4.135  0.00  0.00     0.275 HD
ENDBRANCH  24  25
BRANCH  24  29
HETATM   29  C           1     -20.788  -4.558  -6.252  0.00  0.00     0.044 C 
BRANCH  29  30
HETATM   30  C           1     -21.582  -3.673  -7.203  0.00  0.00     0.023 C 
BRANCH  30  31
HETATM   31  C           1     -22.355  -4.544  -8.184  0.00  0.00     0.138 C 
BRANCH  31  32
HETATM   32  N           1     -23.712  -4.005  -8.356  0.00  0.00    -0.227 N 
HETATM   33  C           1     -24.239  -3.974  -9.506  0.00  0.00     0.665 C 
HETATM   34  N           1     -23.582  -4.420 -10.534  0.00  0.00    -0.235 N 
HETATM   35  N           1     -25.409  -3.510  -9.654  0.00  0.00    -0.235 N 
HETATM   36  H           1     -24.019  -4.396 -11.484  0.00  0.00     0.174 HD
HETATM   37  H           1     -22.618  -4.804 -10.413  0.00  0.00     0.174 HD
HETATM   38  H           1     -25.846  -3.485 -10.608  0.00  0.00     0.174 HD
HETATM   39  H           1     -25.939  -3.149  -8.823  0.00  0.00     0.174 HD
HETATM   40  H           1     -24.242  -3.644  -7.525  0.00  0.00     0.177 HD
ENDBRANCH  31  32
ENDBRANCH  30  31
ENDBRANCH  29  30
ENDBRANCH  24  29
ENDBRANCH   4  24
TORSDOF 16
ENDMDL
MODEL 4
REMARK VINA RESULT:      -6.7     15.620     17.970
REMARK  16 active torsions:
REMARK  status: ('A' for Active; 'I' for Inactive)
REMARK    1  A    between atoms: C_2  and  C_3 
REMARK    2  A    between atoms: C_2  and  C_7 
REMARK    3  A    between atoms: C_3  and  C_12 
REMARK       I    between atoms: N_4  and  C_12 
REMARK    4  A    between atoms: C_6  and  C_7 
REMARK    5  A    between atoms: C_7  and  N_19 
REMARK       I    between atoms: N_13  and  C_24 
REMARK    6  A    between atoms: C_14  and  N_19 
REMARK    7  A    between atoms: C_14  and  C_15 
REMARK    8  A    between atoms: C_15  and  C_16 
REMARK    9  A    between atoms: C_16  and  C_17 
REMARK   10  A    between atoms: C_16  and  N_37 
REMARK   11  A    between atoms: C_21  and  C_40 
REMARK   12  A    between atoms: C_21  and  C_22 
REMARK   13  A    between atoms: C_22  and  N_23 
REMARK       I    between atoms: N_23  and  C_24 
REMARK   14  A    between atoms: N_33  and  C_39 
REMARK       I    between atoms: N_37  and  C_38 
REMARK   15  A    between atoms: C_38  and  C_39 
REMARK   16  A    between atoms: C_39  and  C_40 
ROOT
HETATM    1  H           1     -20.511  -5.770  -3.345  0.00  0.00     0.163 HD
HETATM    2  O           1     -21.678  -7.860  -5.373  0.00  0.00    -0.271 OA
HETATM    3  N           1     -20.949  -6.627  -3.661  0.00  0.00    -0.345 N 
HETATM    4  C           1     -21.154  -6.838  -4.997  0.00  0.00     0.249 C 
ENDROOT
BRANCH   3   5
HETATM    5  C           1     -21.359  -7.629  -2.696  0.00  0.00     0.187 C 
BRANCH   5   6
HETATM    6  C           1     -20.129  -8.345  -2.154  0.00  0.00     0.066 C 
BRANCH   6   7
HETATM    7  C           1     -20.060  -9.749  -2.739  0.00  0.00     0.273 C 
BRANCH   7   8
HETATM    8  N           1     -18.698 -10.210  -2.721  0.00  0.00     0.098 N 
HETATM    9  H           1     -18.665 -11.185  -3.020  0.00  0.00     0.317 HD
BRANCH   8  10
HETATM   10  C           1     -17.949  -9.400  -3.644  0.00  0.00     0.320 C 
BRANCH  10  11
HETATM   11  C           1     -16.464  -9.509  -3.325  0.00  0.00     0.056 C 
BRANCH  11  12
HETATM   12  C           1     -16.249 -10.586  -2.269  0.00  0.00     0.105 C 
BRANCH  12  13
HETATM   13  C           1     -15.407 -11.696  -2.847  0.00  0.00     0.215 C 
HETATM   14  O           1     -14.968 -11.601  -3.969  0.00  0.00    -0.274 OA
HETATM   15  N           1     -15.139 -12.812  -2.099  0.00  0.00    -0.370 N 
HETATM   16  H           1     -15.506 -12.891  -1.159  0.00  0.00     0.159 HD
HETATM   17  H           1     -14.574 -13.556  -2.486  0.00  0.00     0.159 HD
ENDBRANCH  12  13
ENDBRANCH  11  12
ENDBRANCH  10  11
BRANCH  10  18
HETATM   18  C           1     -18.200  -9.882  -5.051  0.00  0.00     0.207 C 
HETATM   19  O           1     -18.604  -9.083  -5.924  0.00  0.00    -0.646 OA
HETATM   20  O           1     -18.001 -11.081  -5.346  0.00  0.00    -0.646 OA
ENDBRANCH  10  18
ENDBRANCH   8  10
ENDBRANCH   7   8
ENDBRANCH   6   7
ENDBRANCH   5   6
BRANCH   5  21
HETATM   21  C           1     -22.094  -6.961  -1.559  0.00  0.00     0.196 C 
HETATM   22  O           1     -22.489  -5.781  -1.679  0.00  0.00    -0.646 OA
HETATM   23  O           1     -22.308  -7.588  -0.500  0.00  0.00    -0.646 OA
ENDBRANCH   5  21
ENDBRANCH   3   5
BRANCH   4  24
HETATM   24  C           1     -20.728  -5.796  -6.001  0.00  0.00     0.274 C 
BRANCH  24  25
HETATM   25  N           1     -19.953  -6.453  -7.104  0.00  0.00    -0.067 N 
HETATM   26  H           1     -20.606  -6.729  -7.871  0.00  0.00     0.275 HD
HETATM   27  H           1     -19.471  -7.303  -6.733  0.00  0.00     0.275 HD
HETATM   28  H           1     -19.241  -5.785  -7.478  0.00  0.00     0.275 HD
ENDBRANCH  24  25
BRANCH  24  29
HETATM   29  C           1     -21.960  -5.114  -6.582  0.00  0.00     0.044 C 
BRANCH  29  30
HETATM   30  C           1     -21.534  -3.880  -7.367  0.00  0.00     0.023 C 
BRANCH  30  31
HETATM   31  C           1     -22.117  -3.946  -8.772  0.00  0.00     0.138 C 
BRANCH  31  32
HETATM   32  N           1     -23.533  -3.555  -8.734  0.00  0.00    -0.227 N 
HETATM   33  C           1     -24.306  -3.885  -9.681  0.00  0.00     0.665 C 
HETATM   34  N           1     -23.847  -4.570 -10.686  0.00  0.00    -0.235 N 
HETATM   35  N           1     -25.527  -3.548  -9.648  0.00  0.00    -0.235 N 
HETATM   36  H           1     -24.487  -4.843 -11.467  0.00  0.00     0.174 HD
HETATM   37  H           1     -22.841  -4.848 -10.713  0.00  0.00     0.174 HD
HETATM   38  H           1     -26.168  -3.822 -10.433  0.00  0.00     0.174 HD
HETATM   39  H           1     -25.897  -2.995  -8.836  0.00  0.00     0.174 HD
HETATM   40  H           1     -23.903  -3.002  -7.922  0.00  0.00     0.177 HD
ENDBRANCH  31  32
ENDBRANCH  30  31
ENDBRANCH  29  30
ENDBRANCH  24  29
ENDBRANCH   4  24
TORSDOF 16
ENDMDL
MODEL 5
REMARK VINA RESULT:      -6.6     14.003     16.841
REMARK  16 active torsions:
REMARK  status: ('A' for Active; 'I' for Inactive)
REMARK    1  A    between atoms: C_2  and  C_3 
REMARK    2  A    between atoms: C_2  and  C_7 
REMARK    3  A    between atoms: C_3  and  C_12 
REMARK       I    between atoms: N_4  and  C_12 
REMARK    4  A    between atoms: C_6  and  C_7 
REMARK    5  A    between atoms: C_7  and  N_19 
REMARK       I    between atoms: N_13  and  C_24 
REMARK    6  A    between atoms: C_14  and  N_19 
REMARK    7  A    between atoms: C_14  and  C_15 
REMARK    8  A    between atoms: C_15  and  C_16 
REMARK    9  A    between atoms: C_16  and  C_17 
REMARK   10  A    between atoms: C_16  and  N_37 
REMARK   11  A    between atoms: C_21  and  C_40 
REMARK   12  A    between atoms: C_21  and  C_22 
REMARK   13  A    between atoms: C_22  and  N_23 
REMARK       I    between atoms: N_23  and  C_24 
REMARK   14  A    between atoms: N_33  and  C_39 
REMARK       I    between atoms: N_37  and  C_38 
REMARK   15  A    between atoms: C_38  and  C_39 
REMARK   16  A    between atoms: C_39  and  C_40 
ROOT
HETATM    1  H           1     -22.263  -7.982  -5.042  0.00  0.00     0.163 HD
HETATM    2  O           1     -19.636  -9.344  -4.002  0.00  0.00    -0.271 OA
HETATM    3  N           1     -21.376  -8.063  -4.559  0.00  0.00    -0.345 N 
HETATM    4  C           1     -20.692  -9.248  -4.579  0.00  0.00     0.249 C 
ENDROOT
BRANCH   3   5
HETATM    5  C           1     -20.833  -6.923  -3.846  0.00  0.00     0.187 C 
BRANCH   5   6
HETATM    6  C           1     -21.038  -5.662  -4.675  0.00  0.00     0.066 C 
BRANCH   6   7
HETATM    7  C           1     -21.956  -5.970  -5.850  0.00  0.00     0.273 C 
BRANCH   7   8
HETATM    8  N           1     -22.005  -4.834  -6.732  0.00  0.00     0.098 N 
HETATM    9  H           1     -21.499  -4.055  -6.310  0.00  0.00     0.317 HD
BRANCH   8  10
HETATM   10  C           1     -21.365  -5.210  -7.964  0.00  0.00     0.320 C 
BRANCH  10  11
HETATM   11  C           1     -22.235  -4.779  -9.137  0.00  0.00     0.056 C 
BRANCH  11  12
HETATM   12  C           1     -23.459  -4.036  -8.617  0.00  0.00     0.105 C 
BRANCH  12  13
HETATM   13  C           1     -24.310  -3.591  -9.780  0.00  0.00     0.215 C 
HETATM   14  O           1     -23.790  -3.280 -10.825  0.00  0.00    -0.274 OA
HETATM   15  N           1     -25.672  -3.539  -9.651  0.00  0.00    -0.370 N 
HETATM   16  H           1     -26.108  -3.800  -8.776  0.00  0.00     0.159 HD
HETATM   17  H           1     -26.243  -3.240 -10.431  0.00  0.00     0.159 HD
ENDBRANCH  12  13
ENDBRANCH  11  12
ENDBRANCH  10  11
BRANCH  10  18
HETATM   18  C           1     -20.020  -4.533  -8.057  0.00  0.00     0.207 C 
HETATM   19  O           1     -19.858  -3.568  -8.834  0.00  0.00    -0.646 OA
HETATM   20  O           1     -19.067  -4.938  -7.356  0.00  0.00    -0.646 OA
ENDBRANCH  10  18
ENDBRANCH   8  10
ENDBRANCH   7   8
ENDBRANCH   6   7
ENDBRANCH   5   6
BRANCH   5  21
HETATM   21  C           1     -21.541  -6.775  -2.522  0.00  0.00     0.196 C 
HETATM   22  O           1     -21.164  -7.443  -1.534  0.00  0.00    -0.646 OA
HETATM   23  O           1     -22.504  -5.986  -2.412  0.00  0.00    -0.646 OA
ENDBRANCH   5  21
ENDBRANCH   3   5
BRANCH   4  24
HETATM   24  C           1     -21.257 -10.434  -5.321  0.00  0.00     0.274 C 
BRANCH  24  25
HETATM   25  N           1     -20.254 -10.919  -6.324  0.00  0.00    -0.067 N 
HETATM   26  H           1     -20.721 -11.565  -7.000  0.00  0.00     0.275 HD
HETATM   27  H           1     -19.485 -11.427  -5.831  0.00  0.00     0.275 HD
HETATM   28  H           1     -19.855 -10.104  -6.843  0.00  0.00     0.275 HD
ENDBRANCH  24  25
BRANCH  24  29
HETATM   29  C           1     -21.569 -11.551  -4.334  0.00  0.00     0.044 C 
BRANCH  29  30
HETATM   30  C           1     -22.724 -11.126  -3.436  0.00  0.00     0.023 C 
BRANCH  30  31
HETATM   31  C           1     -22.353 -11.371  -1.980  0.00  0.00     0.138 C 
BRANCH  31  32
HETATM   32  N           1     -22.378 -10.097  -1.247  0.00  0.00    -0.227 N 
HETATM   33  C           1     -23.232  -9.910  -0.332  0.00  0.00     0.665 C 
HETATM   34  N           1     -24.087 -10.844  -0.040  0.00  0.00    -0.235 N 
HETATM   35  N           1     -23.253  -8.812   0.300  0.00  0.00    -0.235 N 
HETATM   36  H           1     -24.791 -10.690   0.717  0.00  0.00     0.174 HD
HETATM   37  H           1     -24.070 -11.750  -0.560  0.00  0.00     0.174 HD
HETATM   38  H           1     -23.961  -8.657   1.059  0.00  0.00     0.174 HD
HETATM   39  H           1     -22.562  -8.057   0.064  0.00  0.00     0.174 HD
HETATM   40  H           1     -21.687  -9.342  -1.484  0.00  0.00     0.177 HD
ENDBRANCH  31  32
ENDBRANCH  30  31
ENDBRANCH  29  30
ENDBRANCH  24  29
ENDBRANCH   4  24
TORSDOF 16
ENDMDL
MODEL 6
REMARK VINA RESULT:      -6.6     15.437     18.416
REMARK  16 active torsions:
REMARK  status: ('A' for Active; 'I' for Inactive)
REMARK    1  A    between atoms: C_2  and  C_3 
REMARK    2  A    between atoms: C_2  and  C_7 
REMARK    3  A    between atoms: C_3  and  C_12 
REMARK       I    between atoms: N_4  and  C_12 
REMARK    4  A    between atoms: C_6  and  C_7 
REMARK    5  A    between atoms: C_7  and  N_19 
REMARK       I    between atoms: N_13  and  C_24 
REMARK    6  A    between atoms: C_14  and  N_19 
REMARK    7  A    between atoms: C_14  and  C_15 
REMARK    8  A    between atoms: C_15  and  C_16 
REMARK    9  A    between atoms: C_16  and  C_17 
REMARK   10  A    between atoms: C_16  and  N_37 
REMARK   11  A    between atoms: C_21  and  C_40 
REMARK   12  A    between atoms: C_21  and  C_22 
REMARK   13  A    between atoms: C_22  and  N_23 
REMARK       I    between atoms: N_23  and  C_24 
REMARK   14  A    between atoms: N_33  and  C_39 
REMARK       I    between atoms: N_37  and  C_38 
REMARK   15  A    between atoms: C_38  and  C_39 
REMARK   16  A    between atoms: C_39  and  C_40 
ROOT
HETATM    1  H           1     -22.179  -9.622  -5.614  0.00  0.00     0.163 HD
HETATM    2  O           1     -20.102  -8.372  -3.624  0.00  0.00    -0.271 OA
HETATM    3  N           1     -21.446  -9.599  -4.917  0.00  0.00    -0.345 N 
HETATM    4  C           1     -20.978  -8.399  -4.455  0.00  0.00     0.249 C 
ENDROOT
BRANCH   3   5
HETATM    5  C           1     -20.890 -10.839  -4.408  0.00  0.00     0.187 C 
BRANCH   5   6
HETATM    6  C           1     -21.969 -11.607  -3.655  0.00  0.00     0.066 C 
BRANCH   6   7
HETATM    7  C           1     -21.514 -11.849  -2.223  0.00  0.00     0.273 C 
BRANCH   7   8
HETATM    8  N           1     -21.466 -10.597  -1.516  0.00  0.00     0.098 N 
HETATM    9  H           1     -22.221  -9.993  -1.843  0.00  0.00     0.317 HD
BRANCH   8  10
HETATM   10  C           1     -21.646 -10.877  -0.117  0.00  0.00     0.320 C 
BRANCH  10  11
HETATM   11  C           1     -21.440  -9.599   0.686  0.00  0.00     0.056 C 
BRANCH  11  12
HETATM   12  C           1     -21.307  -8.417  -0.266  0.00  0.00     0.105 C 
BRANCH  12  13
HETATM   13  C           1     -22.547  -7.562  -0.183  0.00  0.00     0.215 C 
HETATM   14  O           1     -22.661  -6.592  -0.895  0.00  0.00    -0.274 OA
HETATM   15  N           1     -23.543  -7.885   0.700  0.00  0.00    -0.370 N 
HETATM   16  H           1     -23.447  -8.697   1.296  0.00  0.00     0.159 HD
HETATM   17  H           1     -24.374  -7.311   0.756  0.00  0.00     0.159 HD
ENDBRANCH  12  13
ENDBRANCH  11  12
ENDBRANCH  10  11
BRANCH  10  18
HETATM   18  C           1     -23.043 -11.398   0.114  0.00  0.00     0.207 C 
HETATM   19  O           1     -24.031 -10.724  -0.251  0.00  0.00    -0.646 OA
HETATM   20  O           1     -23.213 -12.505   0.669  0.00  0.00    -0.646 OA
ENDBRANCH  10  18
ENDBRANCH   8  10
ENDBRANCH   7   8
ENDBRANCH   6   7
ENDBRANCH   5   6
BRANCH   5  21
HETATM   21  C           1     -20.389 -11.675  -5.560  0.00  0.00     0.196 C 
HETATM   22  O           1     -19.818 -12.765  -5.338  0.00  0.00    -0.646 OA
HETATM   23  O           1     -20.545 -11.278  -6.735  0.00  0.00    -0.646 OA
ENDBRANCH   5  21
ENDBRANCH   3   5
BRANCH   4  24
HETATM   24  C           1     -21.555  -7.109  -4.984  0.00  0.00     0.274 C 
BRANCH  24  25
HETATM   25  N           1     -22.009  -6.258  -3.836  0.00  0.00    -0.067 N 
HETATM   26  H           1     -22.190  -6.864  -3.004  0.00  0.00     0.275 HD
HETATM   27  H           1     -22.887  -5.756  -4.100  0.00  0.00     0.275 HD
HETATM   28  H           1     -21.266  -5.560  -3.603  0.00  0.00     0.275 HD
ENDBRANCH  24  25
BRANCH  24  29
HETATM   29  C           1     -20.491  -6.364  -5.780  0.00  0.00     0.044 C 
BRANCH  29  30
HETATM   30  C           1     -20.840  -4.882  -5.829  0.00  0.00     0.023 C 
BRANCH  30  31
HETATM   31  C           1     -21.045  -4.457  -7.277  0.00  0.00     0.138 C 
BRANCH  31  32
HETATM   32  N           1     -22.399  -3.908  -7.439  0.00  0.00    -0.227 N 
HETATM   33  C           1     -23.034  -4.097  -8.518  0.00  0.00     0.665 C 
HETATM   34  N           1     -22.488  -4.778  -9.482  0.00  0.00    -0.235 N 
HETATM   35  N           1     -24.201  -3.625  -8.658  0.00  0.00    -0.235 N 
HETATM   36  H           1     -23.013  -4.935 -10.373  0.00  0.00     0.174 HD
HETATM   37  H           1     -21.526  -5.168  -9.367  0.00  0.00     0.174 HD
HETATM   38  H           1     -24.727  -3.782  -9.552  0.00  0.00     0.174 HD
HETATM   39  H           1     -24.641  -3.075  -7.879  0.00  0.00     0.174 HD
HETATM   40  H           1     -22.839  -3.358  -6.661  0.00  0.00     0.177 HD
ENDBRANCH  31  32
ENDBRANCH  30  31
ENDBRANCH  29  30
ENDBRANCH  24  29
ENDBRANCH   4  24
TORSDOF 16
ENDMDL
MODEL 7
REMARK VINA RESULT:      -6.6      3.196      8.501
REMARK  16 active torsions:
REMARK  status: ('A' for Active; 'I' for Inactive)
REMARK    1  A    between atoms: C_2  and  C_3 
REMARK    2  A    between atoms: C_2  and  C_7 
REMARK    3  A    between atoms: C_3  and  C_12 
REMARK       I    between atoms: N_4  and  C_12 
REMARK    4  A    between atoms: C_6  and  C_7 
REMARK    5  A    between atoms: C_7  and  N_19 
REMARK       I    between atoms: N_13  and  C_24 
REMARK    6  A    between atoms: C_14  and  N_19 
REMARK    7  A    between atoms: C_14  and  C_15 
REMARK    8  A    between atoms: C_15  and  C_16 
REMARK    9  A    between atoms: C_16  and  C_17 
REMARK   10  A    between atoms: C_16  and  N_37 
REMARK   11  A    between atoms: C_21  and  C_40 
REMARK   12  A    between atoms: C_21  and  C_22 
REMARK   13  A    between atoms: C_22  and  N_23 
REMARK       I    between atoms: N_23  and  C_24 
REMARK   14  A    between atoms: N_33  and  C_39 
REMARK       I    between atoms: N_37  and  C_38 
REMARK   15  A    between atoms: C_38  and  C_39 
REMARK   16  A    between atoms: C_39  and  C_40 
ROOT
HETATM    1  H           1     -31.297  -4.625 -15.568  0.00  0.00     0.163 HD
HETATM    2  O           1     -31.808  -6.700 -17.865  0.00  0.00    -0.271 OA
HETATM    3  N           1     -31.808  -5.117 -16.290  0.00  0.00    -0.345 N 
HETATM    4  C           1     -31.198  -6.114 -17.002  0.00  0.00     0.249 C 
ENDROOT
BRANCH   3   5
HETATM    5  C           1     -33.186  -4.764 -16.571  0.00  0.00     0.187 C 
BRANCH   5   6
HETATM    6  C           1     -34.003  -4.849 -15.288  0.00  0.00     0.066 C 
BRANCH   6   7
HETATM    7  C           1     -33.482  -3.827 -14.286  0.00  0.00     0.273 C 
BRANCH   7   8
HETATM    8  N           1     -33.399  -4.431 -12.983  0.00  0.00     0.098 N 
HETATM    9  H           1     -32.635  -4.003 -12.459  0.00  0.00     0.317 HD
BRANCH   8  10
HETATM   10  C           1     -34.643  -4.184 -12.306  0.00  0.00     0.320 C 
BRANCH  10  11
HETATM   11  C           1     -34.674  -4.969 -11.002  0.00  0.00     0.056 C 
BRANCH  11  12
HETATM   12  C           1     -33.714  -6.148 -11.095  0.00  0.00     0.105 C 
BRANCH  12  13
HETATM   13  C           1     -34.252  -7.300 -10.283  0.00  0.00     0.215 C 
HETATM   14  O           1     -35.205  -7.137  -9.559  0.00  0.00    -0.274 OA
HETATM   15  N           1     -33.659  -8.532 -10.367  0.00  0.00    -0.370 N 
HETATM   16  H           1     -32.860  -8.669 -10.974  0.00  0.00     0.159 HD
HETATM   17  H           1     -34.019  -9.305  -9.823  0.00  0.00     0.159 HD
ENDBRANCH  12  13
ENDBRANCH  11  12
ENDBRANCH  10  11
BRANCH  10  18
HETATM   18  C           1     -34.770  -2.710 -12.011  0.00  0.00     0.207 C 
HETATM   19  O           1     -35.766  -2.073 -12.418  0.00  0.00    -0.646 OA
HETATM   20  O           1     -33.879  -2.125 -11.358  0.00  0.00    -0.646 OA
ENDBRANCH  10  18
ENDBRANCH   8  10
ENDBRANCH   7   8
ENDBRANCH   6   7
ENDBRANCH   5   6
BRANCH   5  21
HETATM   21  C           1     -33.244  -3.356 -17.112  0.00  0.00     0.196 C 
HETATM   22  O           1     -34.287  -2.679 -16.981  0.00  0.00    -0.646 OA
HETATM   23  O           1     -32.250  -2.868 -17.691  0.00  0.00    -0.646 OA
ENDBRANCH   5  21
ENDBRANCH   3   5
BRANCH   4  24
HETATM   24  C           1     -29.764  -6.482 -16.711  0.00  0.00     0.274 C 
BRANCH  24  25
HETATM   25  N           1     -29.521  -7.903 -17.122  0.00  0.00    -0.067 N 
HETATM   26  H           1     -29.446  -7.957 -18.162  0.00  0.00     0.275 HD
HETATM   27  H           1     -30.314  -8.501 -16.798  0.00  0.00     0.275 HD
HETATM   28  H           1     -28.631  -8.244 -16.692  0.00  0.00     0.275 HD
ENDBRANCH  24  25
BRANCH  24  29
HETATM   29  C           1     -28.834  -5.561 -17.490  0.00  0.00     0.044 C 
BRANCH  29  30
HETATM   30  C           1     -27.482  -5.497 -16.791  0.00  0.00     0.023 C 
BRANCH  30  31
HETATM   31  C           1     -26.449  -6.256 -17.613  0.00  0.00     0.138 C 
BRANCH  31  32
HETATM   32  N           1     -25.472  -6.885 -16.713  0.00  0.00    -0.227 N 
HETATM   33  C           1     -24.412  -7.392 -17.184  0.00  0.00     0.665 C 
HETATM   34  N           1     -24.187  -7.355 -18.464  0.00  0.00    -0.235 N 
HETATM   35  N           1     -23.570  -7.934 -16.408  0.00  0.00    -0.235 N 
HETATM   36  H           1     -23.311  -7.773 -18.853  0.00  0.00     0.174 HD
HETATM   37  H           1     -24.882  -6.908 -19.104  0.00  0.00     0.174 HD
HETATM   38  H           1     -22.691  -8.353 -16.799  0.00  0.00     0.174 HD
HETATM   39  H           1     -23.752  -7.963 -15.375  0.00  0.00     0.174 HD
HETATM   40  H           1     -25.654  -6.915 -15.679  0.00  0.00     0.177 HD
ENDBRANCH  31  32
ENDBRANCH  30  31
ENDBRANCH  29  30
ENDBRANCH  24  29
ENDBRANCH   4  24
TORSDOF 16
ENDMDL
MODEL 8
REMARK VINA RESULT:      -6.5     14.199     16.945
REMARK  16 active torsions:
REMARK  status: ('A' for Active; 'I' for Inactive)
REMARK    1  A    between atoms: C_2  and  C_3 
REMARK    2  A    between atoms: C_2  and  C_7 
REMARK    3  A    between atoms: C_3  and  C_12 
REMARK       I    between atoms: N_4  and  C_12 
REMARK    4  A    between atoms: C_6  and  C_7 
REMARK    5  A    between atoms: C_7  and  N_19 
REMARK       I    between atoms: N_13  and  C_24 
REMARK    6  A    between atoms: C_14  and  N_19 
REMARK    7  A    between atoms: C_14  and  C_15 
REMARK    8  A    between atoms: C_15  and  C_16 
REMARK    9  A    between atoms: C_16  and  C_17 
REMARK   10  A    between atoms: C_16  and  N_37 
REMARK   11  A    between atoms: C_21  and  C_40 
REMARK   12  A    between atoms: C_21  and  C_22 
REMARK   13  A    between atoms: C_22  and  N_23 
REMARK       I    between atoms: N_23  and  C_24 
REMARK   14  A    between atoms: N_33  and  C_39 
REMARK       I    between atoms: N_37  and  C_38 
REMARK   15  A    between atoms: C_38  and  C_39 
REMARK   16  A    between atoms: C_39  and  C_40 
ROOT
HETATM    1  H           1     -22.549  -6.043  -6.053  0.00  0.00     0.163 HD
HETATM    2  O           1     -19.629  -4.940  -6.361  0.00  0.00    -0.271 OA
HETATM    3  N           1     -21.569  -5.911  -5.836  0.00  0.00    -0.345 N 
HETATM    4  C           1     -20.798  -5.097  -6.620  0.00  0.00     0.249 C 
ENDROOT
BRANCH   3   5
HETATM    5  C           1     -20.983  -6.585  -4.693  0.00  0.00     0.187 C 
BRANCH   5   6
HETATM    6  C           1     -22.027  -6.718  -3.593  0.00  0.00     0.066 C 
BRANCH   6   7
HETATM    7  C           1     -21.389  -6.402  -2.247  0.00  0.00     0.273 C 
BRANCH   7   8
HETATM    8  N           1     -20.784  -7.592  -1.711  0.00  0.00     0.098 N 
HETATM    9  H           1     -20.316  -7.369  -0.833  0.00  0.00     0.317 HD
BRANCH   8  10
HETATM   10  C           1     -21.834  -8.544  -1.466  0.00  0.00     0.320 C 
BRANCH  10  11
HETATM   11  C           1     -21.340  -9.943  -1.811  0.00  0.00     0.056 C 
BRANCH  11  12
HETATM   12  C           1     -22.353 -10.629  -2.720  0.00  0.00     0.105 C 
BRANCH  12  13
HETATM   13  C           1     -23.075 -11.704  -1.948  0.00  0.00     0.215 C 
HETATM   14  O           1     -22.734 -12.858  -2.055  0.00  0.00    -0.274 OA
HETATM   15  N           1     -24.118 -11.372  -1.125  0.00  0.00    -0.370 N 
HETATM   16  H           1     -24.404 -10.405  -1.036  0.00  0.00     0.159 HD
HETATM   17  H           1     -24.603 -12.093  -0.607  0.00  0.00     0.159 HD
ENDBRANCH  12  13
ENDBRANCH  11  12
ENDBRANCH  10  11
BRANCH  10  18
HETATM   18  C           1     -22.228  -8.494  -0.010  0.00  0.00     0.207 C 
HETATM   19  O           1     -23.426  -8.625   0.319  0.00  0.00    -0.646 OA
HETATM   20  O           1     -21.354  -8.321   0.867  0.00  0.00    -0.646 OA
ENDBRANCH  10  18
ENDBRANCH   8  10
ENDBRANCH   7   8
ENDBRANCH   6   7
ENDBRANCH   5   6
BRANCH   5  21
HETATM   21  C           1     -20.510  -7.957  -5.108  0.00  0.00     0.196 C 
HETATM   22  O           1     -21.133  -8.593  -5.986  0.00  0.00    -0.646 OA
HETATM   23  O           1     -19.497  -8.457  -4.573  0.00  0.00    -0.646 OA
ENDBRANCH   5  21
ENDBRANCH   3   5
BRANCH   4  24
HETATM   24  C           1     -21.407  -4.395  -7.809  0.00  0.00     0.274 C 
BRANCH  24  25
HETATM   25  N           1     -21.754  -2.985  -7.433  0.00  0.00    -0.067 N 
HETATM   26  H           1     -21.569  -2.842  -6.415  0.00  0.00     0.275 HD
HETATM   27  H           1     -22.764  -2.809  -7.633  0.00  0.00     0.275 HD
HETATM   28  H           1     -21.168  -2.322  -7.989  0.00  0.00     0.275 HD
ENDBRANCH  24  25
BRANCH  24  29
HETATM   29  C           1     -20.410  -4.384  -8.960  0.00  0.00     0.044 C 
BRANCH  29  30
HETATM   30  C           1     -21.062  -3.764 -10.190  0.00  0.00     0.023 C 
BRANCH  30  31
HETATM   31  C           1     -22.367  -4.487 -10.492  0.00  0.00     0.138 C 
BRANCH  31  32
HETATM   32  N           1     -23.490  -3.547 -10.361  0.00  0.00    -0.227 N 
HETATM   33  C           1     -24.604  -3.951  -9.916  0.00  0.00     0.665 C 
HETATM   34  N           1     -24.755  -5.196  -9.575  0.00  0.00    -0.235 N 
HETATM   35  N           1     -25.571  -3.141  -9.803  0.00  0.00    -0.235 N 
HETATM   36  H           1     -25.676  -5.529  -9.207  0.00  0.00     0.174 HD
HETATM   37  H           1     -23.958  -5.864  -9.669  0.00  0.00     0.174 HD
HETATM   38  H           1     -26.495  -3.475  -9.434  0.00  0.00     0.174 HD
HETATM   39  H           1     -25.449  -2.135 -10.079  0.00  0.00     0.174 HD
HETATM   40  H           1     -23.367  -2.542 -10.637  0.00  0.00     0.177 HD
ENDBRANCH  31  32
ENDBRANCH  30  31
ENDBRANCH  29  30
ENDBRANCH  24  29
ENDBRANCH   4  24
TORSDOF 16
ENDMDL
MODEL 9
REMARK VINA RESULT:      -6.3     15.214     18.067
REMARK  16 active torsions:
REMARK  status: ('A' for Active; 'I' for Inactive)
REMARK    1  A    between atoms: C_2  and  C_3 
REMARK    2  A    between atoms: C_2  and  C_7 
REMARK    3  A    between atoms: C_3  and  C_12 
REMARK       I    between atoms: N_4  and  C_12 
REMARK    4  A    between atoms: C_6  and  C_7 
REMARK    5  A    between atoms: C_7  and  N_19 
REMARK       I    between atoms: N_13  and  C_24 
REMARK    6  A    between atoms: C_14  and  N_19 
REMARK    7  A    between atoms: C_14  and  C_15 
REMARK    8  A    between atoms: C_15  and  C_16 
REMARK    9  A    between atoms: C_16  and  C_17 
REMARK   10  A    between atoms: C_16  and  N_37 
REMARK   11  A    between atoms: C_21  and  C_40 
REMARK   12  A    between atoms: C_21  and  C_22 
REMARK   13  A    between atoms: C_22  and  N_23 
REMARK       I    between atoms: N_23  and  C_24 
REMARK   14  A    between atoms: N_33  and  C_39 
REMARK       I    between atoms: N_37  and  C_38 
REMARK   15  A    between atoms: C_38  and  C_39 
REMARK   16  A    between atoms: C_39  and  C_40 
ROOT
HETATM    1  H           1     -20.944  -7.871  -3.964  0.00  0.00     0.163 HD
HETATM    2  O           1     -19.594  -7.079  -6.683  0.00  0.00    -0.271 OA
HETATM    3  N           1     -20.353  -7.967  -4.780  0.00  0.00    -0.345 N 
HETATM    4  C           1     -20.299  -6.963  -5.708  0.00  0.00     0.249 C 
ENDROOT
BRANCH   3   5
HETATM    5  C           1     -19.566  -9.171  -4.966  0.00  0.00     0.187 C 
BRANCH   5   6
HETATM    6  C           1     -18.847  -9.511  -3.667  0.00  0.00     0.066 C 
BRANCH   6   7
HETATM    7  C           1     -19.611  -8.917  -2.492  0.00  0.00     0.273 C 
BRANCH   7   8
HETATM    8  N           1     -20.548  -9.886  -1.990  0.00  0.00     0.098 N 
HETATM    9  H           1     -20.530 -10.716  -2.583  0.00  0.00     0.317 HD
BRANCH   8  10
HETATM   10  C           1     -20.139 -10.240  -0.658  0.00  0.00     0.320 C 
BRANCH  10  11
HETATM   11  C           1     -21.321 -10.095   0.291  0.00  0.00     0.056 C 
BRANCH  11  12
HETATM   12  C           1     -22.536  -9.601  -0.484  0.00  0.00     0.105 C 
BRANCH  12  13
HETATM   13  C           1     -22.780  -8.146  -0.165  0.00  0.00     0.215 C 
HETATM   14  O           1     -22.275  -7.286  -0.845  0.00  0.00    -0.274 OA
HETATM   15  N           1     -23.574  -7.803   0.897  0.00  0.00    -0.370 N 
HETATM   16  H           1     -23.996  -8.524   1.467  0.00  0.00     0.159 HD
HETATM   17  H           1     -23.737  -6.828   1.111  0.00  0.00     0.159 HD
ENDBRANCH  12  13
ENDBRANCH  11  12
ENDBRANCH  10  11
BRANCH  10  18
HETATM   18  C           1     -19.655 -11.669  -0.644  0.00  0.00     0.207 C 
HETATM   19  O           1     -19.796 -12.387  -1.658  0.00  0.00    -0.646 OA
HETATM   20  O           1     -19.111 -12.135   0.381  0.00  0.00    -0.646 OA
ENDBRANCH  10  18
ENDBRANCH   8  10
ENDBRANCH   7   8
ENDBRANCH   6   7
ENDBRANCH   5   6
BRANCH   5  21
HETATM   21  C           1     -20.475 -10.312  -5.352  0.00  0.00     0.196 C 
HETATM   22  O           1     -21.242 -10.194  -6.332  0.00  0.00    -0.646 OA
HETATM   23  O           1     -20.460 -11.373  -4.693  0.00  0.00    -0.646 OA
ENDBRANCH   5  21
ENDBRANCH   3   5
BRANCH   4  24
HETATM   24  C           1     -21.119  -5.711  -5.516  0.00  0.00     0.274 C 
BRANCH  24  25
HETATM   25  N           1     -20.202  -4.538  -5.336  0.00  0.00    -0.067 N 
HETATM   26  H           1     -20.303  -3.890  -6.150  0.00  0.00     0.275 HD
HETATM   27  H           1     -19.214  -4.873  -5.277  0.00  0.00     0.275 HD
HETATM   28  H           1     -20.451  -4.031  -4.456  0.00  0.00     0.275 HD
ENDBRANCH  24  25
BRANCH  24  29
HETATM   29  C           1     -21.999  -5.486  -6.738  0.00  0.00     0.044 C 
BRANCH  29  30
HETATM   30  C           1     -21.841  -4.050  -7.219  0.00  0.00     0.023 C 
BRANCH  30  31
HETATM   31  C           1     -22.349  -3.934  -8.650  0.00  0.00     0.138 C 
BRANCH  31  32
HETATM   32  N           1     -23.787  -3.632  -8.637  0.00  0.00    -0.227 N 
HETATM   33  C           1     -24.485  -3.827  -9.675  0.00  0.00     0.665 C 
HETATM   34  N           1     -23.929  -4.295 -10.753  0.00  0.00    -0.235 N 
HETATM   35  N           1     -25.724  -3.567  -9.663  0.00  0.00    -0.235 N 
HETATM   36  H           1     -24.505  -4.458 -11.610  0.00  0.00     0.174 HD
HETATM   37  H           1     -22.906  -4.510 -10.762  0.00  0.00     0.174 HD
HETATM   38  H           1     -26.303  -3.729 -10.524  0.00  0.00     0.174 HD
HETATM   39  H           1     -26.173  -3.188  -8.793  0.00  0.00     0.174 HD
HETATM   40  H           1     -24.236  -3.254  -7.766  0.00  0.00     0.177 HD
ENDBRANCH  31  32
ENDBRANCH  30  31
ENDBRANCH  29  30
ENDBRANCH  24  29
ENDBRANCH   4  24
TORSDOF 16
ENDMDL
