MODEL 1
REMARK VINA RESULT:      -5.8      0.000      0.000
REMARK  5 active torsions:
REMARK  status: ('A' for Active; 'I' for Inactive)
REMARK       I    between atoms: C_8  and  N_9 
REMARK    1  A    between atoms: C_8  and  C_17 
REMARK    2  A    between atoms: N_9  and  C_10 
REMARK    3  A    between atoms: C_10  and  C_22 
REMARK    4  A    between atoms: C_10  and  C_11 
REMARK    5  A    between atoms: C_22  and  Se_23 
ROOT
HETATM    1  H           1     -20.567  -5.428 -11.218  0.00  0.00     0.274 HD
HETATM    2  H           1     -20.106  -5.271  -9.582  0.00  0.00     0.274 HD
HETATM    3  H           1     -19.168  -4.543 -10.807  0.00  0.00     0.274 HD
HETATM    4  N           1     -19.471  -4.580  -8.109  0.00  0.00    -0.067 N 
HETATM    5  C           1     -22.330  -4.605  -8.613  0.00  0.00     0.004 C 
HETATM    6  C           1     -22.376  -3.904  -9.963  0.00  0.00     0.027 C 
HETATM    7  C           1     -20.961  -3.542 -10.396  0.00  0.00     0.229 C 
HETATM    8  N           1     -20.138  -4.791 -10.509  0.00  0.00    -0.079 N 
HETATM    9  C           1     -21.705  -3.678  -7.579  0.00  0.00     0.042 C 
HETATM   10  C           1     -20.454  -4.327  -7.004  0.00  0.00     0.274 C 
HETATM   11  H           1     -19.901  -5.218  -8.817  0.00  0.00     0.275 HD
HETATM   12  H           1     -18.612  -5.026  -7.713  0.00  0.00     0.275 HD
HETATM   13  H           1     -19.216  -3.675  -8.563  0.00  0.00     0.275 HD
ENDROOT
BRANCH  10  14
HETATM   14  C           1     -20.821  -5.635  -6.348  0.00  0.00     0.249 C 
HETATM   15  O           1     -20.981  -6.625  -7.022  0.00  0.00    -0.271 OA
HETATM   16  N           1     -20.975  -5.699  -4.989  0.00  0.00    -0.345 N 
HETATM   17  H           1     -20.842  -4.870  -4.425  0.00  0.00     0.163 HD
BRANCH  16  18
HETATM   18  C           1     -21.328  -6.956  -4.358  0.00  0.00     0.185 C 
BRANCH  18  19
HETATM   19  C           1     -20.177  -7.941  -4.508  0.00  0.00     0.039 C 
BRANCH  19  20
HETATM   20 Se           1     -20.882  -9.708  -4.932  0.00  0.00     0.000 Se
HETATM   21  H           1     -20.978 -10.134  -3.526  0.00  0.00     0.000 HD
ENDBRANCH  19  20
ENDBRANCH  18  19
BRANCH  18  22
HETATM   22  C           1     -21.603  -6.722  -2.892  0.00  0.00     0.196 C 
HETATM   23  O           1     -22.486  -5.910  -2.544  0.00  0.00    -0.646 OA
HETATM   24  O           1     -20.947  -7.342  -2.027  0.00  0.00    -0.646 OA
ENDBRANCH  18  22
ENDBRANCH  16  18
ENDBRANCH  10  14
TORSDOF 5
ENDMDL
MODEL 2
REMARK VINA RESULT:      -5.5     19.607     21.364
REMARK  5 active torsions:
REMARK  status: ('A' for Active; 'I' for Inactive)
REMARK       I    between atoms: C_8  and  N_9 
REMARK    1  A    between atoms: C_8  and  C_17 
REMARK    2  A    between atoms: N_9  and  C_10 
REMARK    3  A    between atoms: C_10  and  C_22 
REMARK    4  A    between atoms: C_10  and  C_11 
REMARK    5  A    between atoms: C_22  and  Se_23 
ROOT
HETATM    1  H           1     -13.916   9.440 -22.094  0.00  0.00     0.274 HD
HETATM    2  H           1     -12.473   8.583 -21.782  0.00  0.00     0.274 HD
HETATM    3  H           1     -12.547   9.684 -23.082  0.00  0.00     0.274 HD
HETATM    4  N           1     -10.770   8.219 -21.644  0.00  0.00    -0.067 N 
HETATM    5  C           1     -12.308   8.988 -19.304  0.00  0.00     0.004 C 
HETATM    6  C           1     -12.888  10.312 -19.780  0.00  0.00     0.027 C 
HETATM    7  C           1     -12.414  10.593 -21.200  0.00  0.00     0.229 C 
HETATM    8  N           1     -12.872   9.492 -22.108  0.00  0.00    -0.079 N 
HETATM    9  C           1     -10.787   9.061 -19.324  0.00  0.00     0.042 C 
HETATM   10  C           1     -10.239   7.991 -20.260  0.00  0.00     0.274 C 
HETATM   11  H           1     -11.814   8.168 -21.628  0.00  0.00     0.275 HD
HETATM   12  H           1     -10.393   7.485 -22.285  0.00  0.00     0.275 HD
HETATM   13  H           1     -10.473   9.162 -21.981  0.00  0.00     0.275 HD
ENDROOT
BRANCH  10  14
HETATM   14  C           1     -10.669   6.629 -19.774  0.00  0.00     0.249 C 
HETATM   15  O           1     -10.211   6.181 -18.749  0.00  0.00    -0.271 OA
HETATM   16  N           1     -11.577   5.902 -20.494  0.00  0.00    -0.345 N 
HETATM   17  H           1     -11.960   6.277 -21.353  0.00  0.00     0.163 HD
BRANCH  16  18
HETATM   18  C           1     -11.991   4.593 -20.028  0.00  0.00     0.185 C 
BRANCH  18  19
HETATM   19  C           1     -13.465   4.381 -20.350  0.00  0.00     0.039 C 
BRANCH  19  20
HETATM   20 Se           1     -13.973   5.517 -21.849  0.00  0.00     0.000 Se
HETATM   21  H           1     -12.676   5.390 -22.535  0.00  0.00     0.000 HD
ENDBRANCH  19  20
ENDBRANCH  18  19
BRANCH  18  22
HETATM   22  C           1     -11.168   3.531 -20.715  0.00  0.00     0.196 C 
HETATM   23  O           1     -10.784   2.527 -20.077  0.00  0.00    -0.646 OA
HETATM   24  O           1     -10.870   3.656 -21.923  0.00  0.00    -0.646 OA
ENDBRANCH  18  22
ENDBRANCH  16  18
ENDBRANCH  10  14
TORSDOF 5
ENDMDL
MODEL 3
REMARK VINA RESULT:      -5.4      2.504      3.543
REMARK  5 active torsions:
REMARK  status: ('A' for Active; 'I' for Inactive)
REMARK       I    between atoms: C_8  and  N_9 
REMARK    1  A    between atoms: C_8  and  C_17 
REMARK    2  A    between atoms: N_9  and  C_10 
REMARK    3  A    between atoms: C_10  and  C_22 
REMARK    4  A    between atoms: C_10  and  C_11 
REMARK    5  A    between atoms: C_22  and  Se_23 
ROOT
HETATM    1  H           1     -20.930  -2.439  -6.554  0.00  0.00     0.274 HD
HETATM    2  H           1     -21.651  -3.893  -6.026  0.00  0.00     0.274 HD
HETATM    3  H           1     -22.459  -2.900  -7.153  0.00  0.00     0.274 HD
HETATM    4  N           1     -22.574  -5.376  -6.045  0.00  0.00    -0.067 N 
HETATM    5  C           1     -19.684  -5.433  -6.318  0.00  0.00     0.004 C 
HETATM    6  C           1     -19.502  -4.496  -7.504  0.00  0.00     0.027 C 
HETATM    7  C           1     -20.863  -3.988  -7.963  0.00  0.00     0.229 C 
HETATM    8  N           1     -21.526  -3.249  -6.839  0.00  0.00    -0.079 N 
HETATM    9  C           1     -20.552  -6.614  -6.731  0.00  0.00     0.042 C 
HETATM   10  C           1     -21.805  -6.651  -5.865  0.00  0.00     0.274 C 
HETATM   11  H           1     -21.977  -4.566  -5.761  0.00  0.00     0.275 HD
HETATM   12  H           1     -23.433  -5.402  -5.451  0.00  0.00     0.275 HD
HETATM   13  H           1     -22.847  -5.272  -7.048  0.00  0.00     0.275 HD
ENDROOT
BRANCH  10  14
HETATM   14  C           1     -21.410  -6.800  -4.416  0.00  0.00     0.249 C 
HETATM   15  O           1     -21.499  -5.858  -3.665  0.00  0.00    -0.271 OA
HETATM   16  N           1     -20.951  -8.004  -3.953  0.00  0.00    -0.345 N 
HETATM   17  H           1     -20.876  -8.793  -4.582  0.00  0.00     0.163 HD
BRANCH  16  18
HETATM   18  C           1     -20.572  -8.148  -2.561  0.00  0.00     0.185 C 
BRANCH  18  19
HETATM   19  C           1     -21.768  -8.640  -1.757  0.00  0.00     0.039 C 
BRANCH  19  20
HETATM   20 Se           1     -22.324  -7.256  -0.502  0.00  0.00     0.000 Se
HETATM   21  H           1     -21.425  -6.230  -1.057  0.00  0.00     0.000 HD
ENDBRANCH  19  20
ENDBRANCH  18  19
BRANCH  18  22
HETATM   22  C           1     -19.444  -9.145  -2.448  0.00  0.00     0.196 C 
HETATM   23  O           1     -19.612 -10.208  -1.813  0.00  0.00    -0.646 OA
HETATM   24  O           1     -18.343  -8.906  -2.988  0.00  0.00    -0.646 OA
ENDBRANCH  18  22
ENDBRANCH  16  18
ENDBRANCH  10  14
TORSDOF 5
ENDMDL
MODEL 4
REMARK VINA RESULT:      -5.2      3.803      5.538
REMARK  5 active torsions:
REMARK  status: ('A' for Active; 'I' for Inactive)
REMARK       I    between atoms: C_8  and  N_9 
REMARK    1  A    between atoms: C_8  and  C_17 
REMARK    2  A    between atoms: N_9  and  C_10 
REMARK    3  A    between atoms: C_10  and  C_22 
REMARK    4  A    between atoms: C_10  and  C_11 
REMARK    5  A    between atoms: C_22  and  Se_23 
ROOT
HETATM    1  H           1     -21.475  -8.739  -6.284  0.00  0.00     0.274 HD
HETATM    2  H           1     -20.980  -8.703  -4.652  0.00  0.00     0.274 HD
HETATM    3  H           1     -19.816  -8.806  -5.895  0.00  0.00     0.274 HD
HETATM    4  N           1     -20.033  -8.359  -3.225  0.00  0.00    -0.067 N 
HETATM    5  C           1     -22.366  -6.755  -3.867  0.00  0.00     0.004 C 
HETATM    6  C           1     -22.015  -6.315  -5.281  0.00  0.00     0.027 C 
HETATM    7  C           1     -20.668  -6.904  -5.677  0.00  0.00     0.229 C 
HETATM    8  N           1     -20.740  -8.401  -5.623  0.00  0.00    -0.079 N 
HETATM    9  C           1     -21.296  -6.264  -2.901  0.00  0.00     0.042 C 
HETATM   10  C           1     -20.656  -7.457  -2.202  0.00  0.00     0.274 C 
HETATM   11  H           1     -20.769  -8.696  -3.887  0.00  0.00     0.275 HD
HETATM   12  H           1     -19.594  -9.177  -2.744  0.00  0.00     0.275 HD
HETATM   13  H           1     -19.301  -7.833  -3.755  0.00  0.00     0.275 HD
ENDROOT
BRANCH  10  14
HETATM   14  C           1     -21.712  -8.217  -1.437  0.00  0.00     0.249 C 
HETATM   15  O           1     -22.485  -7.625  -0.722  0.00  0.00    -0.271 OA
HETATM   16  N           1     -21.792  -9.579  -1.554  0.00  0.00    -0.345 N 
HETATM   17  H           1     -21.145 -10.075  -2.152  0.00  0.00     0.163 HD
BRANCH  16  18
HETATM   18  C           1     -22.806 -10.310  -0.819  0.00  0.00     0.185 C 
BRANCH  18  19
HETATM   19  C           1     -23.554 -11.235  -1.770  0.00  0.00     0.039 C 
BRANCH  19  20
HETATM   20 Se           1     -22.584 -11.360  -3.455  0.00  0.00     0.000 Se
HETATM   21  H           1     -21.335 -10.801  -2.911  0.00  0.00     0.000 HD
ENDBRANCH  19  20
ENDBRANCH  18  19
BRANCH  18  22
HETATM   22  C           1     -22.149 -11.128   0.266  0.00  0.00     0.196 C 
HETATM   23  O           1     -22.626 -12.237   0.588  0.00  0.00    -0.646 OA
HETATM   24  O           1     -21.128 -10.694   0.843  0.00  0.00    -0.646 OA
ENDBRANCH  18  22
ENDBRANCH  16  18
ENDBRANCH  10  14
TORSDOF 5
ENDMDL
MODEL 5
REMARK VINA RESULT:      -5.1     19.467     21.126
REMARK  5 active torsions:
REMARK  status: ('A' for Active; 'I' for Inactive)
REMARK       I    between atoms: C_8  and  N_9 
REMARK    1  A    between atoms: C_8  and  C_17 
REMARK    2  A    between atoms: N_9  and  C_10 
REMARK    3  A    between atoms: C_10  and  C_22 
REMARK    4  A    between atoms: C_10  and  C_11 
REMARK    5  A    between atoms: C_22  and  Se_23 
ROOT
HETATM    1  H           1      -9.747   9.211 -18.245  0.00  0.00     0.274 HD
HETATM    2  H           1     -11.129   8.404 -18.839  0.00  0.00     0.274 HD
HETATM    3  H           1     -11.243  10.026 -18.323  0.00  0.00     0.274 HD
HETATM    4  N           1     -12.648   8.120 -19.653  0.00  0.00    -0.067 N 
HETATM    5  C           1     -10.136   7.420 -20.931  0.00  0.00     0.004 C 
HETATM    6  C           1      -9.412   8.757 -20.863  0.00  0.00     0.027 C 
HETATM    7  C           1     -10.306   9.785 -20.180  0.00  0.00     0.229 C 
HETATM    8  N           1     -10.631   9.322 -18.791  0.00  0.00    -0.079 N 
HETATM    9  C           1     -11.425   7.578 -21.727  0.00  0.00     0.042 C 
HETATM   10  C           1     -12.613   7.213 -20.848  0.00  0.00     0.274 C 
HETATM   11  H           1     -11.763   8.009 -19.107  0.00  0.00     0.275 HD
HETATM   12  H           1     -13.464   7.869 -19.050  0.00  0.00     0.275 HD
HETATM   13  H           1     -12.740   9.111 -19.970  0.00  0.00     0.275 HD
ENDROOT
BRANCH  10  14
HETATM   14  C           1     -12.479   5.782 -20.389  0.00  0.00     0.249 C 
HETATM   15  O           1     -12.234   5.539 -19.231  0.00  0.00    -0.271 OA
HETATM   16  N           1     -12.635   4.759 -21.286  0.00  0.00    -0.345 N 
HETATM   17  H           1     -12.840   4.963 -22.256  0.00  0.00     0.163 HD
BRANCH  16  18
HETATM   18  C           1     -12.507   3.384 -20.846  0.00  0.00     0.185 C 
BRANCH  18  19
HETATM   19  C           1     -13.595   2.539 -21.494  0.00  0.00     0.039 C 
BRANCH  19  20
HETATM   20 Se           1     -14.470   3.570 -22.898  0.00  0.00     0.000 Se
HETATM   21  H           1     -14.538   2.443 -23.843  0.00  0.00     0.000 HD
ENDBRANCH  19  20
ENDBRANCH  18  19
BRANCH  18  22
HETATM   22  C           1     -11.152   2.853 -21.246  0.00  0.00     0.196 C 
HETATM   23  O           1     -10.510   3.406 -22.165  0.00  0.00    -0.646 OA
HETATM   24  O           1     -10.672   1.859 -20.659  0.00  0.00    -0.646 OA
ENDBRANCH  18  22
ENDBRANCH  16  18
ENDBRANCH  10  14
TORSDOF 5
ENDMDL
MODEL 6
REMARK VINA RESULT:      -5.0      4.128      6.360
REMARK  5 active torsions:
REMARK  status: ('A' for Active; 'I' for Inactive)
REMARK       I    between atoms: C_8  and  N_9 
REMARK    1  A    between atoms: C_8  and  C_17 
REMARK    2  A    between atoms: N_9  and  C_10 
REMARK    3  A    between atoms: C_10  and  C_22 
REMARK    4  A    between atoms: C_10  and  C_11 
REMARK    5  A    between atoms: C_22  and  Se_23 
ROOT
HETATM    1  H           1     -14.750  -9.559  -5.173  0.00  0.00     0.274 HD
HETATM    2  H           1     -16.423  -9.753  -5.451  0.00  0.00     0.274 HD
HETATM    3  H           1     -15.310 -10.844  -6.145  0.00  0.00     0.274 HD
HETATM    4  N           1     -17.971 -10.519  -5.713  0.00  0.00    -0.067 N 
HETATM    5  C           1     -17.238  -9.536  -3.081  0.00  0.00     0.004 C 
HETATM    6  C           1     -15.920 -10.269  -2.872  0.00  0.00     0.027 C 
HETATM    7  C           1     -15.618 -11.128  -4.092  0.00  0.00     0.229 C 
HETATM    8  N           1     -15.517 -10.255  -5.307  0.00  0.00    -0.079 N 
HETATM    9  C           1     -18.358 -10.550  -3.276  0.00  0.00     0.042 C 
HETATM   10  C           1     -19.003 -10.338  -4.640  0.00  0.00     0.274 C 
HETATM   11  H           1     -17.203  -9.822  -5.578  0.00  0.00     0.275 HD
HETATM   12  H           1     -18.414 -10.374  -6.648  0.00  0.00     0.275 HD
HETATM   13  H           1     -17.577 -11.485  -5.660  0.00  0.00     0.275 HD
ENDROOT
BRANCH  10  14
HETATM   14  C           1     -19.570  -8.942  -4.717  0.00  0.00     0.249 C 
HETATM   15  O           1     -19.233  -8.201  -5.610  0.00  0.00    -0.271 OA
HETATM   16  N           1     -20.467  -8.515  -3.775  0.00  0.00    -0.345 N 
HETATM   17  H           1     -20.749  -9.135  -3.027  0.00  0.00     0.163 HD
BRANCH  16  18
HETATM   18  C           1     -21.012  -7.174  -3.849  0.00  0.00     0.185 C 
BRANCH  18  19
HETATM   19  C           1     -22.089  -7.121  -4.924  0.00  0.00     0.039 C 
BRANCH  19  20
HETATM   20 Se           1     -21.750  -5.613  -6.112  0.00  0.00     0.000 Se
HETATM   21  H           1     -23.108  -5.608  -6.681  0.00  0.00     0.000 HD
ENDBRANCH  19  20
ENDBRANCH  18  19
BRANCH  18  22
HETATM   22  C           1     -21.614  -6.802  -2.515  0.00  0.00     0.196 C 
HETATM   23  O           1     -21.255  -7.401  -1.479  0.00  0.00    -0.646 OA
HETATM   24  O           1     -22.473  -5.896  -2.448  0.00  0.00    -0.646 OA
ENDBRANCH  18  22
ENDBRANCH  16  18
ENDBRANCH  10  14
TORSDOF 5
ENDMDL
MODEL 7
REMARK VINA RESULT:      -5.0      5.096      6.861
REMARK  5 active torsions:
REMARK  status: ('A' for Active; 'I' for Inactive)
REMARK       I    between atoms: C_8  and  N_9 
REMARK    1  A    between atoms: C_8  and  C_17 
REMARK    2  A    between atoms: N_9  and  C_10 
REMARK    3  A    between atoms: C_10  and  C_22 
REMARK    4  A    between atoms: C_10  and  C_11 
REMARK    5  A    between atoms: C_22  and  Se_23 
ROOT
HETATM    1  H           1     -23.226  -6.033  -3.878  0.00  0.00     0.274 HD
HETATM    2  H           1     -22.301  -7.466  -3.832  0.00  0.00     0.274 HD
HETATM    3  H           1     -21.820  -6.172  -4.833  0.00  0.00     0.274 HD
HETATM    4  N           1     -20.921  -8.537  -3.849  0.00  0.00    -0.067 N 
HETATM    5  C           1     -22.144  -7.748  -1.336  0.00  0.00     0.004 C 
HETATM    6  C           1     -22.082  -6.232  -1.466  0.00  0.00     0.027 C 
HETATM    7  C           1     -21.441  -5.862  -2.797  0.00  0.00     0.229 C 
HETATM    8  N           1     -22.259  -6.425  -3.920  0.00  0.00    -0.079 N 
HETATM    9  C           1     -20.735  -8.322  -1.397  0.00  0.00     0.042 C 
HETATM   10  C           1     -20.627  -9.278  -2.578  0.00  0.00     0.274 C 
HETATM   11  H           1     -21.889  -8.144  -3.806  0.00  0.00     0.275 HD
HETATM   12  H           1     -20.846  -9.194  -4.658  0.00  0.00     0.275 HD
HETATM   13  H           1     -20.233  -7.759  -3.966  0.00  0.00     0.275 HD
ENDROOT
BRANCH  10  14
HETATM   14  C           1     -21.620 -10.401  -2.409  0.00  0.00     0.249 C 
HETATM   15  O           1     -22.452 -10.606  -3.262  0.00  0.00    -0.271 OA
HETATM   16  N           1     -21.580 -11.188  -1.290  0.00  0.00    -0.345 N 
HETATM   17  H           1     -20.884 -11.016  -0.575  0.00  0.00     0.163 HD
BRANCH  16  18
HETATM   18  C           1     -22.534 -12.267  -1.127  0.00  0.00     0.185 C 
BRANCH  18  19
HETATM   19  C           1     -21.789 -13.568  -0.860  0.00  0.00     0.039 C 
BRANCH  19  20
HETATM   20 Se           1     -20.045 -13.173  -0.084  0.00  0.00     0.000 Se
HETATM   21  H           1     -20.567 -12.180   0.870  0.00  0.00     0.000 HD
ENDBRANCH  19  20
ENDBRANCH  18  19
BRANCH  18  22
HETATM   22  C           1     -23.445 -11.961   0.038  0.00  0.00     0.196 C 
HETATM   23  O           1     -24.133 -10.918   0.035  0.00  0.00    -0.646 OA
HETATM   24  O           1     -23.510 -12.751   1.004  0.00  0.00    -0.646 OA
ENDBRANCH  18  22
ENDBRANCH  16  18
ENDBRANCH  10  14
TORSDOF 5
ENDMDL
MODEL 8
REMARK VINA RESULT:      -5.0      4.971      8.108
REMARK  5 active torsions:
REMARK  status: ('A' for Active; 'I' for Inactive)
REMARK       I    between atoms: C_8  and  N_9 
REMARK    1  A    between atoms: C_8  and  C_17 
REMARK    2  A    between atoms: N_9  and  C_10 
REMARK    3  A    between atoms: C_10  and  C_22 
REMARK    4  A    between atoms: C_10  and  C_11 
REMARK    5  A    between atoms: C_22  and  Se_23 
ROOT
HETATM    1  H           1     -21.756 -13.285  -2.912  0.00  0.00     0.274 HD
HETATM    2  H           1     -22.304 -11.838  -2.192  0.00  0.00     0.274 HD
HETATM    3  H           1     -23.397 -13.116  -2.477  0.00  0.00     0.274 HD
HETATM    4  N           1     -23.204 -10.746  -1.168  0.00  0.00    -0.067 N 
HETATM    5  C           1     -20.518 -11.574  -0.439  0.00  0.00     0.004 C 
HETATM    6  C           1     -20.682 -13.088  -0.467  0.00  0.00     0.027 C 
HETATM    7  C           1     -22.113 -13.437  -0.854  0.00  0.00     0.229 C 
HETATM    8  N           1     -22.416 -12.877  -2.212  0.00  0.00    -0.079 N 
HETATM    9  C           1     -21.478 -10.978   0.581  0.00  0.00     0.042 C 
HETATM   10  C           1     -22.425 -10.010  -0.117  0.00  0.00     0.274 C 
HETATM   11  H           1     -22.544 -11.154  -1.868  0.00  0.00     0.275 HD
HETATM   12  H           1     -23.854 -10.081  -1.646  0.00  0.00     0.275 HD
HETATM   13  H           1     -23.756 -11.512  -0.721  0.00  0.00     0.275 HD
ENDROOT
BRANCH  10  14
HETATM   14  C           1     -21.628  -8.904  -0.763  0.00  0.00     0.249 C 
HETATM   15  O           1     -20.905  -8.208  -0.091  0.00  0.00    -0.271 OA
HETATM   16  N           1     -21.726  -8.689  -2.112  0.00  0.00    -0.345 N 
HETATM   17  H           1     -22.333  -9.272  -2.675  0.00  0.00     0.163 HD
BRANCH  16  18
HETATM   18  C           1     -20.961  -7.626  -2.734  0.00  0.00     0.185 C 
BRANCH  18  19
HETATM   19  C           1     -20.348  -8.134  -4.031  0.00  0.00     0.039 C 
BRANCH  19  20
HETATM   20 Se           1     -21.106  -9.874  -4.473  0.00  0.00     0.000 Se
HETATM   21  H           1     -20.458  -9.951  -5.793  0.00  0.00     0.000 HD
ENDBRANCH  19  20
ENDBRANCH  18  19
BRANCH  18  22
HETATM   22  C           1     -21.871  -6.458  -3.029  0.00  0.00     0.196 C 
HETATM   23  O           1     -22.568  -5.964  -2.118  0.00  0.00    -0.646 OA
HETATM   24  O           1     -21.927  -5.988  -4.186  0.00  0.00    -0.646 OA
ENDBRANCH  18  22
ENDBRANCH  16  18
ENDBRANCH  10  14
TORSDOF 5
ENDMDL
MODEL 9
REMARK VINA RESULT:      -5.0     14.378     15.723
REMARK  5 active torsions:
REMARK  status: ('A' for Active; 'I' for Inactive)
REMARK       I    between atoms: C_8  and  N_9 
REMARK    1  A    between atoms: C_8  and  C_17 
REMARK    2  A    between atoms: N_9  and  C_10 
REMARK    3  A    between atoms: C_10  and  C_22 
REMARK    4  A    between atoms: C_10  and  C_11 
REMARK    5  A    between atoms: C_22  and  Se_23 
ROOT
HETATM    1  H           1     -24.189  11.104  -0.351  0.00  0.00     0.274 HD
HETATM    2  H           1     -23.791   9.935  -1.530  0.00  0.00     0.274 HD
HETATM    3  H           1     -22.687  11.181  -1.156  0.00  0.00     0.274 HD
HETATM    4  N           1     -22.850   8.826  -2.498  0.00  0.00    -0.067 N 
HETATM    5  C           1     -24.411   7.861  -0.248  0.00  0.00     0.004 C 
HETATM    6  C           1     -23.860   8.741   0.865  0.00  0.00     0.027 C 
HETATM    7  C           1     -22.800   9.676   0.297  0.00  0.00     0.229 C 
HETATM    8  N           1     -23.413  10.540  -0.765  0.00  0.00    -0.079 N 
HETATM    9  C           1     -23.282   7.038  -0.853  0.00  0.00     0.042 C 
HETATM   10  C           1     -23.151   7.366  -2.334  0.00  0.00     0.274 C 
HETATM   11  H           1     -23.627   9.390  -2.083  0.00  0.00     0.275 HD
HETATM   12  H           1     -22.760   9.050  -3.515  0.00  0.00     0.275 HD
HETATM   13  H           1     -21.954   9.055  -2.010  0.00  0.00     0.275 HD
ENDROOT
BRANCH  10  14
HETATM   14  C           1     -24.445   7.037  -3.038  0.00  0.00     0.249 C 
HETATM   15  O           1     -24.891   5.915  -2.990  0.00  0.00    -0.271 OA
HETATM   16  N           1     -25.112   8.010  -3.732  0.00  0.00    -0.345 N 
HETATM   17  H           1     -24.738   8.950  -3.773  0.00  0.00     0.163 HD
BRANCH  16  18
HETATM   18  C           1     -26.355   7.696  -4.409  0.00  0.00     0.185 C 
BRANCH  18  19
HETATM   19  C           1     -27.398   8.753  -4.073  0.00  0.00     0.039 C 
BRANCH  19  20
HETATM   20 Se           1     -28.280   8.288  -2.398  0.00  0.00     0.000 Se
HETATM   21  H           1     -27.036   7.889  -1.720  0.00  0.00     0.000 HD
ENDBRANCH  19  20
ENDBRANCH  18  19
BRANCH  18  22
HETATM   22  C           1     -26.124   7.672  -5.900  0.00  0.00     0.196 C 
HETATM   23  O           1     -26.000   6.581  -6.496  0.00  0.00    -0.646 OA
HETATM   24  O           1     -26.055   8.745  -6.538  0.00  0.00    -0.646 OA
ENDBRANCH  18  22
ENDBRANCH  16  18
ENDBRANCH  10  14
TORSDOF 5
ENDMDL
