MODEL 1
REMARK VINA RESULT:      -7.1      0.000      0.000
REMARK  13 active torsions:
REMARK  status: ('A' for Active; 'I' for Inactive)
REMARK    1  A    between atoms: C_7  and  C_8 
REMARK    2  A    between atoms: C_7  and  C_14 
REMARK    3  A    between atoms: C_8  and  C_9 
REMARK    4  A    between atoms: C_8  and  N_23 
REMARK       I    between atoms: C_9  and  N_26 
REMARK    5  A    between atoms: C_10  and  C_12 
REMARK    6  A    between atoms: C_12  and  C_20 
REMARK    7  A    between atoms: C_12  and  N_26 
REMARK    8  A    between atoms: C_13  and  C_14 
REMARK    9  A    between atoms: C_13  and  C_25 
REMARK   10  A    between atoms: P_18  and  O_19 
REMARK   11  A    between atoms: P_18  and  O_28 
REMARK   12  A    between atoms: O_19  and  C_20 
REMARK   13  A    between atoms: N_24  and  C_25 
ROOT
HETATM    1  C           1     -34.491  -2.540 -12.111  0.00  0.00     0.249 C 
HETATM    2  H           1     -36.246  -2.335 -13.189  0.00  0.00     0.163 HD
HETATM    3  O           1     -33.694  -1.977 -11.400  0.00  0.00    -0.271 OA
HETATM    4  N           1     -35.578  -1.862 -12.593  0.00  0.00    -0.343 N 
ENDROOT
BRANCH   1   5
HETATM    5  C           1     -34.288  -3.992 -12.469  0.00  0.00     0.274 C 
BRANCH   5   6
HETATM    6  C           1     -33.307  -4.624 -11.491  0.00  0.00     0.042 C 
BRANCH   6   7
HETATM    7  C           1     -34.077  -5.371 -10.409  0.00  0.00     0.004 C 
BRANCH   7   8
HETATM    8  C           1     -34.576  -6.699 -10.966  0.00  0.00     0.027 C 
BRANCH   8   9
HETATM    9  C           1     -34.567  -7.748  -9.862  0.00  0.00     0.229 C 
BRANCH   9  10
HETATM   10  N           1     -33.631  -8.858 -10.233  0.00  0.00    -0.079 N 
HETATM   11  H           1     -32.828  -8.468 -10.778  0.00  0.00     0.274 HD
HETATM   12  H           1     -34.137  -9.561 -10.817  0.00  0.00     0.274 HD
HETATM   13  H           1     -33.273  -9.318  -9.365  0.00  0.00     0.274 HD
ENDBRANCH   9  10
ENDBRANCH   8   9
ENDBRANCH   7   8
ENDBRANCH   6   7
ENDBRANCH   5   6
BRANCH   5  14
HETATM   14  N           1     -33.742  -4.092 -13.861  0.00  0.00    -0.067 N 
HETATM   15  H           1     -34.039  -4.997 -14.289  0.00  0.00     0.275 HD
HETATM   16  H           1     -32.697  -4.049 -13.830  0.00  0.00     0.275 HD
HETATM   17  H           1     -34.105  -3.298 -14.435  0.00  0.00     0.275 HD
ENDBRANCH   5  14
ENDBRANCH   1   5
BRANCH   4  18
HETATM   18  C           1     -35.774  -0.467 -12.249  0.00  0.00     0.210 C 
BRANCH  18  19
HETATM   19  C           1     -36.777  -0.361 -11.128  0.00  0.00     0.198 C 
HETATM   20  O           1     -36.571   0.420 -10.175  0.00  0.00    -0.646 OA
HETATM   21  O           1     -37.817  -1.056 -11.153  0.00  0.00    -0.646 OA
ENDBRANCH  18  19
BRANCH  18  22
HETATM   22  C           1     -36.291   0.287 -13.468  0.00  0.00     0.217 C 
BRANCH  22  23
HETATM   23  O           1     -36.648  -0.629 -14.468  0.00  0.00    -0.287 OA
BRANCH  23  24
HETATM   24  P           1     -35.619  -0.763 -15.706  0.00  0.00     0.406 P 
HETATM   25  O           1     -35.087  -2.144 -15.758  0.00  0.00    -0.624 OA
HETATM   26  O           1     -34.502   0.189 -15.523  0.00  0.00    -0.624 OA
BRANCH  24  27
HETATM   27  O           1     -36.390  -0.433 -17.085  0.00  0.00    -0.300 OA
HETATM   28  H           1     -35.798  -0.699 -17.766  0.00  0.00     0.223 HD
ENDBRANCH  24  27
ENDBRANCH  23  24
ENDBRANCH  22  23
ENDBRANCH  18  22
ENDBRANCH   4  18
TORSDOF 13
ENDMDL
MODEL 2
REMARK VINA RESULT:      -5.9     13.527     15.460
REMARK  13 active torsions:
REMARK  status: ('A' for Active; 'I' for Inactive)
REMARK    1  A    between atoms: C_7  and  C_8 
REMARK    2  A    between atoms: C_7  and  C_14 
REMARK    3  A    between atoms: C_8  and  C_9 
REMARK    4  A    between atoms: C_8  and  N_23 
REMARK       I    between atoms: C_9  and  N_26 
REMARK    5  A    between atoms: C_10  and  C_12 
REMARK    6  A    between atoms: C_12  and  C_20 
REMARK    7  A    between atoms: C_12  and  N_26 
REMARK    8  A    between atoms: C_13  and  C_14 
REMARK    9  A    between atoms: C_13  and  C_25 
REMARK   10  A    between atoms: P_18  and  O_19 
REMARK   11  A    between atoms: P_18  and  O_28 
REMARK   12  A    between atoms: O_19  and  C_20 
REMARK   13  A    between atoms: N_24  and  C_25 
ROOT
HETATM    1  C           1     -21.203  -6.206  -5.899  0.00  0.00     0.249 C 
HETATM    2  H           1     -21.303  -4.138  -5.894  0.00  0.00     0.163 HD
HETATM    3  O           1     -21.241  -7.197  -6.588  0.00  0.00    -0.271 OA
HETATM    4  N           1     -21.336  -4.969  -6.471  0.00  0.00    -0.343 N 
ENDROOT
BRANCH   1   5
HETATM    5  C           1     -21.011  -6.330  -4.408  0.00  0.00     0.274 C 
BRANCH   5   6
HETATM    6  C           1     -20.506  -7.728  -4.075  0.00  0.00     0.042 C 
BRANCH   6   7
HETATM    7  C           1     -21.270  -8.270  -2.873  0.00  0.00     0.004 C 
BRANCH   7   8
HETATM    8  C           1     -20.361  -8.265  -1.650  0.00  0.00     0.027 C 
BRANCH   8   9
HETATM    9  C           1     -21.211  -8.288  -0.386  0.00  0.00     0.229 C 
BRANCH   9  10
HETATM   10  N           1     -22.281  -7.242  -0.482  0.00  0.00    -0.079 N 
HETATM   11  H           1     -23.086  -7.619  -1.033  0.00  0.00     0.274 HD
HETATM   12  H           1     -21.899  -6.396  -0.961  0.00  0.00     0.274 HD
HETATM   13  H           1     -22.604  -6.984   0.478  0.00  0.00     0.274 HD
ENDBRANCH   9  10
ENDBRANCH   8   9
ENDBRANCH   7   8
ENDBRANCH   6   7
ENDBRANCH   5   6
BRANCH   5  14
HETATM   14  N           1     -22.318  -6.091  -3.714  0.00  0.00    -0.067 N 
HETATM   15  H           1     -22.248  -6.407  -2.720  0.00  0.00     0.275 HD
HETATM   16  H           1     -23.073  -6.630  -4.197  0.00  0.00     0.275 HD
HETATM   17  H           1     -22.546  -5.072  -3.741  0.00  0.00     0.275 HD
ENDBRANCH   5  14
ENDBRANCH   1   5
BRANCH   4  18
HETATM   18  C           1     -21.521  -4.849  -7.905  0.00  0.00     0.210 C 
BRANCH  18  19
HETATM   19  C           1     -20.189  -4.586  -8.563  0.00  0.00     0.198 C 
HETATM   20  O           1     -20.071  -4.698  -9.802  0.00  0.00    -0.646 OA
HETATM   21  O           1     -19.203  -4.256  -7.868  0.00  0.00    -0.646 OA
ENDBRANCH  18  19
BRANCH  18  22
HETATM   22  C           1     -22.470  -3.694  -8.198  0.00  0.00     0.217 C 
BRANCH  22  23
HETATM   23  O           1     -23.636  -4.188  -8.799  0.00  0.00    -0.287 OA
BRANCH  23  24
HETATM   24  P           1     -23.748  -3.988 -10.398  0.00  0.00     0.406 P 
HETATM   25  O           1     -24.992  -3.251 -10.717  0.00  0.00    -0.624 OA
HETATM   26  O           1     -23.775  -5.310 -11.059  0.00  0.00    -0.624 OA
BRANCH  24  27
HETATM   27  O           1     -22.476  -3.146 -10.925  0.00  0.00    -0.300 OA
HETATM   28  H           1     -22.019  -3.731 -11.504  0.00  0.00     0.223 HD
ENDBRANCH  24  27
ENDBRANCH  23  24
ENDBRANCH  22  23
ENDBRANCH  18  22
ENDBRANCH   4  18
TORSDOF 13
ENDMDL
MODEL 3
REMARK VINA RESULT:      -5.8      9.908     11.707
REMARK  13 active torsions:
REMARK  status: ('A' for Active; 'I' for Inactive)
REMARK    1  A    between atoms: C_7  and  C_8 
REMARK    2  A    between atoms: C_7  and  C_14 
REMARK    3  A    between atoms: C_8  and  C_9 
REMARK    4  A    between atoms: C_8  and  N_23 
REMARK       I    between atoms: C_9  and  N_26 
REMARK    5  A    between atoms: C_10  and  C_12 
REMARK    6  A    between atoms: C_12  and  C_20 
REMARK    7  A    between atoms: C_12  and  N_26 
REMARK    8  A    between atoms: C_13  and  C_14 
REMARK    9  A    between atoms: C_13  and  C_25 
REMARK   10  A    between atoms: P_18  and  O_19 
REMARK   11  A    between atoms: P_18  and  O_28 
REMARK   12  A    between atoms: O_19  and  C_20 
REMARK   13  A    between atoms: N_24  and  C_25 
ROOT
HETATM    1  C           1     -27.600  -5.668 -17.820  0.00  0.00     0.249 C 
HETATM    2  H           1     -26.493  -5.544 -16.076  0.00  0.00     0.163 HD
HETATM    3  O           1     -27.710  -6.225 -18.886  0.00  0.00    -0.271 OA
HETATM    4  N           1     -26.584  -6.011 -16.969  0.00  0.00    -0.343 N 
ENDROOT
BRANCH   1   5
HETATM    5  C           1     -28.584  -4.594 -17.426  0.00  0.00     0.274 C 
BRANCH   5   6
HETATM    6  C           1     -29.547  -5.144 -16.382  0.00  0.00     0.042 C 
BRANCH   6   7
HETATM    7  C           1     -30.756  -5.755 -17.079  0.00  0.00     0.004 C 
BRANCH   7   8
HETATM    8  C           1     -30.582  -7.266 -17.165  0.00  0.00     0.027 C 
BRANCH   8   9
HETATM    9  C           1     -30.651  -7.704 -18.622  0.00  0.00     0.229 C 
BRANCH   9  10
HETATM   10  N           1     -29.445  -8.531 -18.954  0.00  0.00    -0.079 N 
HETATM   11  H           1     -28.833  -8.003 -19.618  0.00  0.00     0.274 HD
HETATM   12  H           1     -29.748  -9.427 -19.398  0.00  0.00     0.274 HD
HETATM   13  H           1     -28.913  -8.738 -18.078  0.00  0.00     0.274 HD
ENDBRANCH   9  10
ENDBRANCH   8   9
ENDBRANCH   7   8
ENDBRANCH   6   7
ENDBRANCH   5   6
BRANCH   5  14
HETATM   14  N           1     -29.354  -4.154 -18.635  0.00  0.00    -0.067 N 
HETATM   15  H           1     -30.177  -4.784 -18.772  0.00  0.00     0.275 HD
HETATM   16  H           1     -28.737  -4.201 -19.478  0.00  0.00     0.275 HD
HETATM   17  H           1     -29.684  -3.172 -18.499  0.00  0.00     0.275 HD
ENDBRANCH   5  14
ENDBRANCH   1   5
BRANCH   4  18
HETATM   18  C           1     -25.639  -7.043 -17.348  0.00  0.00     0.210 C 
BRANCH  18  19
HETATM   19  C           1     -24.845  -7.466 -16.137  0.00  0.00     0.198 C 
HETATM   20  O           1     -25.147  -7.027 -15.006  0.00  0.00    -0.646 OA
HETATM   21  O           1     -23.884  -8.256 -16.265  0.00  0.00    -0.646 OA
ENDBRANCH  18  19
BRANCH  18  22
HETATM   22  C           1     -24.693  -6.498 -18.411  0.00  0.00     0.217 C 
BRANCH  22  23
HETATM   23  O           1     -24.379  -7.516 -19.323  0.00  0.00    -0.287 OA
BRANCH  23  24
HETATM   24  P           1     -25.120  -7.436 -20.756  0.00  0.00     0.406 P 
HETATM   25  O           1     -24.306  -8.138 -21.774  0.00  0.00    -0.624 OA
HETATM   26  O           1     -25.283  -6.019 -21.148  0.00  0.00    -0.624 OA
BRANCH  24  27
HETATM   27  O           1     -26.570  -8.138 -20.651  0.00  0.00    -0.300 OA
HETATM   28  H           1     -27.188  -7.450 -20.827  0.00  0.00     0.223 HD
ENDBRANCH  24  27
ENDBRANCH  23  24
ENDBRANCH  22  23
ENDBRANCH  18  22
ENDBRANCH   4  18
TORSDOF 13
ENDMDL
MODEL 4
REMARK VINA RESULT:      -5.7      9.514     11.535
REMARK  13 active torsions:
REMARK  status: ('A' for Active; 'I' for Inactive)
REMARK    1  A    between atoms: C_7  and  C_8 
REMARK    2  A    between atoms: C_7  and  C_14 
REMARK    3  A    between atoms: C_8  and  C_9 
REMARK    4  A    between atoms: C_8  and  N_23 
REMARK       I    between atoms: C_9  and  N_26 
REMARK    5  A    between atoms: C_10  and  C_12 
REMARK    6  A    between atoms: C_12  and  C_20 
REMARK    7  A    between atoms: C_12  and  N_26 
REMARK    8  A    between atoms: C_13  and  C_14 
REMARK    9  A    between atoms: C_13  and  C_25 
REMARK   10  A    between atoms: P_18  and  O_19 
REMARK   11  A    between atoms: P_18  and  O_28 
REMARK   12  A    between atoms: O_19  and  C_20 
REMARK   13  A    between atoms: N_24  and  C_25 
ROOT
HETATM    1  C           1     -27.833  -5.888 -17.382  0.00  0.00     0.249 C 
HETATM    2  H           1     -26.123  -5.063 -16.558  0.00  0.00     0.163 HD
HETATM    3  O           1     -28.291  -6.844 -17.961  0.00  0.00    -0.271 OA
HETATM    4  N           1     -26.506  -5.863 -17.045  0.00  0.00    -0.343 N 
ENDROOT
BRANCH   1   5
HETATM    5  C           1     -28.723  -4.722 -17.029  0.00  0.00     0.274 C 
BRANCH   5   6
HETATM    6  C           1     -29.637  -4.406 -18.205  0.00  0.00     0.042 C 
BRANCH   6   7
HETATM    7  C           1     -30.908  -3.737 -17.696  0.00  0.00     0.004 C 
BRANCH   7   8
HETATM    8  C           1     -31.583  -4.642 -16.674  0.00  0.00     0.027 C 
BRANCH   8   9
HETATM    9  C           1     -33.072  -4.326 -16.620  0.00  0.00     0.229 C 
BRANCH   9  10
HETATM   10  N           1     -33.347  -3.077 -17.403  0.00  0.00    -0.079 N 
HETATM   11  H           1     -34.366  -3.029 -17.634  0.00  0.00     0.274 HD
HETATM   12  H           1     -32.790  -3.090 -18.287  0.00  0.00     0.274 HD
HETATM   13  H           1     -33.079  -2.242 -16.833  0.00  0.00     0.274 HD
ENDBRANCH   9  10
ENDBRANCH   8   9
ENDBRANCH   7   8
ENDBRANCH   6   7
ENDBRANCH   5   6
BRANCH   5  14
HETATM   14  N           1     -27.877  -3.524 -16.717  0.00  0.00    -0.067 N 
HETATM   15  H           1     -28.172  -3.118 -15.801  0.00  0.00     0.275 HD
HETATM   16  H           1     -27.996  -2.808 -17.470  0.00  0.00     0.275 HD
HETATM   17  H           1     -26.873  -3.811 -16.666  0.00  0.00     0.275 HD
ENDBRANCH   5  14
ENDBRANCH   1   5
BRANCH   4  18
HETATM   18  C           1     -25.651  -6.984 -17.383  0.00  0.00     0.210 C 
BRANCH  18  19
HETATM   19  C           1     -24.910  -7.441 -16.151  0.00  0.00     0.198 C 
HETATM   20  O           1     -23.938  -8.219 -16.258  0.00  0.00    -0.646 OA
HETATM   21  O           1     -25.269  -7.041 -15.022  0.00  0.00    -0.646 OA
ENDBRANCH  18  19
BRANCH  18  22
HETATM   22  C           1     -24.650  -6.553 -18.448  0.00  0.00     0.217 C 
BRANCH  22  23
HETATM   23  O           1     -24.531  -7.562 -19.414  0.00  0.00    -0.287 OA
BRANCH  23  24
HETATM   24  P           1     -25.397  -7.356 -20.763  0.00  0.00     0.406 P 
HETATM   25  O           1     -24.843  -8.208 -21.840  0.00  0.00    -0.624 OA
HETATM   26  O           1     -25.335  -5.937 -21.176  0.00  0.00    -0.624 OA
BRANCH  24  27
HETATM   27  O           1     -26.932  -7.772 -20.485  0.00  0.00    -0.300 OA
HETATM   28  H           1     -27.136  -7.405 -19.643  0.00  0.00     0.223 HD
ENDBRANCH  24  27
ENDBRANCH  23  24
ENDBRANCH  22  23
ENDBRANCH  18  22
ENDBRANCH   4  18
TORSDOF 13
ENDMDL
MODEL 5
REMARK VINA RESULT:      -5.7     13.769     15.800
REMARK  13 active torsions:
REMARK  status: ('A' for Active; 'I' for Inactive)
REMARK    1  A    between atoms: C_7  and  C_8 
REMARK    2  A    between atoms: C_7  and  C_14 
REMARK    3  A    between atoms: C_8  and  C_9 
REMARK    4  A    between atoms: C_8  and  N_23 
REMARK       I    between atoms: C_9  and  N_26 
REMARK    5  A    between atoms: C_10  and  C_12 
REMARK    6  A    between atoms: C_12  and  C_20 
REMARK    7  A    between atoms: C_12  and  N_26 
REMARK    8  A    between atoms: C_13  and  C_14 
REMARK    9  A    between atoms: C_13  and  C_25 
REMARK   10  A    between atoms: P_18  and  O_19 
REMARK   11  A    between atoms: P_18  and  O_28 
REMARK   12  A    between atoms: O_19  and  C_20 
REMARK   13  A    between atoms: N_24  and  C_25 
ROOT
HETATM    1  C           1     -21.376  -7.303  -5.425  0.00  0.00     0.249 C 
HETATM    2  H           1     -22.375  -5.504  -5.202  0.00  0.00     0.163 HD
HETATM    3  O           1     -20.628  -7.940  -6.128  0.00  0.00    -0.271 OA
HETATM    4  N           1     -21.749  -6.038  -5.792  0.00  0.00    -0.343 N 
ENDROOT
BRANCH   1   5
HETATM    5  C           1     -21.899  -7.902  -4.143  0.00  0.00     0.274 C 
BRANCH   5   6
HETATM    6  C           1     -21.173  -7.281  -2.957  0.00  0.00     0.042 C 
BRANCH   6   7
HETATM    7  C           1     -22.128  -6.368  -2.198  0.00  0.00     0.004 C 
BRANCH   7   8
HETATM    8  C           1     -22.344  -6.915  -0.793  0.00  0.00     0.027 C 
BRANCH   8   9
HETATM    9  C           1     -21.445  -8.127  -0.576  0.00  0.00     0.229 C 
BRANCH   9  10
HETATM   10  N           1     -21.315  -8.396   0.894  0.00  0.00    -0.079 N 
HETATM   11  H           1     -21.552  -9.396   1.086  0.00  0.00     0.274 HD
HETATM   12  H           1     -21.970  -7.775   1.421  0.00  0.00     0.274 HD
HETATM   13  H           1     -20.333  -8.205   1.197  0.00  0.00     0.274 HD
ENDBRANCH   9  10
ENDBRANCH   8   9
ENDBRANCH   7   8
ENDBRANCH   6   7
ENDBRANCH   5   6
BRANCH   5  14
HETATM   14  N           1     -21.666  -9.383  -4.152  0.00  0.00    -0.067 N 
HETATM   15  H           1     -21.870  -9.774  -3.205  0.00  0.00     0.275 HD
HETATM   16  H           1     -20.669  -9.578  -4.401  0.00  0.00     0.275 HD
HETATM   17  H           1     -22.294  -9.830  -4.858  0.00  0.00     0.275 HD
ENDBRANCH   5  14
ENDBRANCH   1   5
BRANCH   4  18
HETATM   18  C           1     -21.246  -5.462  -7.024  0.00  0.00     0.210 C 
BRANCH  18  19
HETATM   19  C           1     -19.950  -4.740  -6.749  0.00  0.00     0.198 C 
HETATM   20  O           1     -19.655  -4.408  -5.580  0.00  0.00    -0.646 OA
HETATM   21  O           1     -19.171  -4.474  -7.690  0.00  0.00    -0.646 OA
ENDBRANCH  18  19
BRANCH  18  22
HETATM   22  C           1     -22.269  -4.477  -7.577  0.00  0.00     0.217 C 
BRANCH  22  23
HETATM   23  O           1     -22.094  -4.350  -8.962  0.00  0.00    -0.287 OA
BRANCH  23  24
HETATM   24  P           1     -23.427  -4.038  -9.819  0.00  0.00     0.406 P 
HETATM   25  O           1     -23.956  -5.299 -10.387  0.00  0.00    -0.624 OA
HETATM   26  O           1     -23.099  -3.103 -10.917  0.00  0.00    -0.624 OA
BRANCH  24  27
HETATM   27  O           1     -24.541  -3.374  -8.858  0.00  0.00    -0.300 OA
HETATM   28  H           1     -24.086  -3.174  -8.059  0.00  0.00     0.223 HD
ENDBRANCH  24  27
ENDBRANCH  23  24
ENDBRANCH  22  23
ENDBRANCH  18  22
ENDBRANCH   4  18
TORSDOF 13
ENDMDL
MODEL 6
REMARK VINA RESULT:      -5.6     14.653     17.176
REMARK  13 active torsions:
REMARK  status: ('A' for Active; 'I' for Inactive)
REMARK    1  A    between atoms: C_7  and  C_8 
REMARK    2  A    between atoms: C_7  and  C_14 
REMARK    3  A    between atoms: C_8  and  C_9 
REMARK    4  A    between atoms: C_8  and  N_23 
REMARK       I    between atoms: C_9  and  N_26 
REMARK    5  A    between atoms: C_10  and  C_12 
REMARK    6  A    between atoms: C_12  and  C_20 
REMARK    7  A    between atoms: C_12  and  N_26 
REMARK    8  A    between atoms: C_13  and  C_14 
REMARK    9  A    between atoms: C_13  and  C_25 
REMARK   10  A    between atoms: P_18  and  O_19 
REMARK   11  A    between atoms: P_18  and  O_28 
REMARK   12  A    between atoms: O_19  and  C_20 
REMARK   13  A    between atoms: N_24  and  C_25 
ROOT
HETATM    1  C           1     -21.463  -5.384  -6.042  0.00  0.00     0.249 C 
HETATM    2  H           1     -22.815  -6.774  -5.316  0.00  0.00     0.163 HD
HETATM    3  O           1     -20.382  -4.873  -5.873  0.00  0.00    -0.271 OA
HETATM    4  N           1     -21.909  -6.345  -5.174  0.00  0.00    -0.343 N 
ENDROOT
BRANCH   1   5
HETATM    5  C           1     -22.322  -4.964  -7.209  0.00  0.00     0.274 C 
BRANCH   5   6
HETATM    6  C           1     -21.637  -3.833  -7.964  0.00  0.00     0.042 C 
BRANCH   6   7
HETATM    7  C           1     -21.529  -4.199  -9.439  0.00  0.00     0.004 C 
BRANCH   7   8
HETATM    8  C           1     -22.693  -3.579 -10.202  0.00  0.00     0.027 C 
BRANCH   8   9
HETATM    9  C           1     -23.680  -4.670 -10.597  0.00  0.00     0.229 C 
BRANCH   9  10
HETATM   10  N           1     -24.943  -4.513  -9.803  0.00  0.00    -0.079 N 
HETATM   11  H           1     -24.809  -4.926  -8.852  0.00  0.00     0.274 HD
HETATM   12  H           1     -25.725  -5.006 -10.290  0.00  0.00     0.274 HD
HETATM   13  H           1     -25.174  -3.497  -9.713  0.00  0.00     0.274 HD
ENDBRANCH   9  10
ENDBRANCH   8   9
ENDBRANCH   7   8
ENDBRANCH   6   7
ENDBRANCH   5   6
BRANCH   5  14
HETATM   14  N           1     -23.654  -4.494  -6.704  0.00  0.00    -0.067 N 
HETATM   15  H           1     -23.901  -5.017  -5.834  0.00  0.00     0.275 HD
HETATM   16  H           1     -24.384  -4.668  -7.433  0.00  0.00     0.275 HD
HETATM   17  H           1     -23.606  -3.471  -6.497  0.00  0.00     0.275 HD
ENDBRANCH   5  14
ENDBRANCH   1   5
BRANCH   4  18
HETATM   18  C           1     -21.083  -6.749  -4.053  0.00  0.00     0.210 C 
BRANCH  18  19
HETATM   19  C           1     -20.687  -8.196  -4.216  0.00  0.00     0.198 C 
HETATM   20  O           1     -19.480  -8.508  -4.300  0.00  0.00    -0.646 OA
HETATM   21  O           1     -21.568  -9.082  -4.267  0.00  0.00    -0.646 OA
ENDBRANCH  18  19
BRANCH  18  22
HETATM   22  C           1     -21.869  -6.580  -2.759  0.00  0.00     0.217 C 
BRANCH  22  23
HETATM   23  O           1     -21.131  -7.110  -1.691  0.00  0.00    -0.287 OA
BRANCH  23  24
HETATM   24  P           1     -21.960  -8.005  -0.633  0.00  0.00     0.406 P 
HETATM   25  O           1     -23.177  -7.274  -0.214  0.00  0.00    -0.624 OA
HETATM   26  O           1     -21.116  -8.275   0.552  0.00  0.00    -0.624 OA
BRANCH  24  27
HETATM   27  O           1     -22.384  -9.401  -1.324  0.00  0.00    -0.300 OA
HETATM   28  H           1     -21.684  -9.997  -1.120  0.00  0.00     0.223 HD
ENDBRANCH  24  27
ENDBRANCH  23  24
ENDBRANCH  22  23
ENDBRANCH  18  22
ENDBRANCH   4  18
TORSDOF 13
ENDMDL
MODEL 7
REMARK VINA RESULT:      -5.4     15.160     17.585
REMARK  13 active torsions:
REMARK  status: ('A' for Active; 'I' for Inactive)
REMARK    1  A    between atoms: C_7  and  C_8 
REMARK    2  A    between atoms: C_7  and  C_14 
REMARK    3  A    between atoms: C_8  and  C_9 
REMARK    4  A    between atoms: C_8  and  N_23 
REMARK       I    between atoms: C_9  and  N_26 
REMARK    5  A    between atoms: C_10  and  C_12 
REMARK    6  A    between atoms: C_12  and  C_20 
REMARK    7  A    between atoms: C_12  and  N_26 
REMARK    8  A    between atoms: C_13  and  C_14 
REMARK    9  A    between atoms: C_13  and  C_25 
REMARK   10  A    between atoms: P_18  and  O_19 
REMARK   11  A    between atoms: P_18  and  O_28 
REMARK   12  A    between atoms: O_19  and  C_20 
REMARK   13  A    between atoms: N_24  and  C_25 
ROOT
HETATM    1  C           1     -21.414  -5.987  -5.271  0.00  0.00     0.249 C 
HETATM    2  H           1     -19.814  -6.747  -4.201  0.00  0.00     0.163 HD
HETATM    3  O           1     -22.617  -5.984  -5.386  0.00  0.00    -0.271 OA
HETATM    4  N           1     -20.821  -6.746  -4.298  0.00  0.00    -0.343 N 
ENDROOT
BRANCH   1   5
HETATM    5  C           1     -20.566  -5.154  -6.200  0.00  0.00     0.274 C 
BRANCH   5   6
HETATM    6  C           1     -21.447  -4.152  -6.933  0.00  0.00     0.042 C 
BRANCH   6   7
HETATM    7  C           1     -20.973  -4.017  -8.374  0.00  0.00     0.004 C 
BRANCH   7   8
HETATM    8  C           1     -22.177  -4.007  -9.307  0.00  0.00     0.027 C 
BRANCH   8   9
HETATM    9  C           1     -23.451  -4.202  -8.494  0.00  0.00     0.229 C 
BRANCH   9  10
HETATM   10  N           1     -24.528  -3.306  -9.028  0.00  0.00    -0.079 N 
HETATM   11  H           1     -24.501  -2.391  -8.524  0.00  0.00     0.274 HD
HETATM   12  H           1     -25.460  -3.756  -8.883  0.00  0.00     0.274 HD
HETATM   13  H           1     -24.373  -3.146 -10.050  0.00  0.00     0.274 HD
ENDBRANCH   9  10
ENDBRANCH   8   9
ENDBRANCH   7   8
ENDBRANCH   6   7
ENDBRANCH   5   6
BRANCH   5  14
HETATM   14  N           1     -19.891  -6.050  -7.197  0.00  0.00    -0.067 N 
HETATM   15  H           1     -20.560  -6.788  -7.510  0.00  0.00     0.275 HD
HETATM   16  H           1     -19.059  -6.501  -6.753  0.00  0.00     0.275 HD
HETATM   17  H           1     -19.583  -5.484  -8.020  0.00  0.00     0.275 HD
ENDBRANCH   5  14
ENDBRANCH   1   5
BRANCH   4  18
HETATM   18  C           1     -21.637  -7.545  -3.404  0.00  0.00     0.210 C 
BRANCH  18  19
HETATM   19  C           1     -21.797  -6.824  -2.089  0.00  0.00     0.198 C 
HETATM   20  O           1     -22.159  -5.627  -2.072  0.00  0.00    -0.646 OA
HETATM   21  O           1     -21.569  -7.423  -1.016  0.00  0.00    -0.646 OA
ENDBRANCH  18  19
BRANCH  18  22
HETATM   22  C           1     -20.960  -8.889  -3.168  0.00  0.00     0.217 C 
BRANCH  22  23
HETATM   23  O           1     -19.570  -8.738  -3.275  0.00  0.00    -0.287 OA
BRANCH  23  24
HETATM   24  P           1     -18.859  -9.554  -4.474  0.00  0.00     0.406 P 
HETATM   25  O           1     -19.443 -10.911  -4.562  0.00  0.00    -0.624 OA
HETATM   26  O           1     -17.408  -9.659  -4.205  0.00  0.00    -0.624 OA
BRANCH  24  27
HETATM   27  O           1     -19.095  -8.776  -5.868  0.00  0.00    -0.300 OA
HETATM   28  H           1     -19.814  -8.192  -5.704  0.00  0.00     0.223 HD
ENDBRANCH  24  27
ENDBRANCH  23  24
ENDBRANCH  22  23
ENDBRANCH  18  22
ENDBRANCH   4  18
TORSDOF 13
ENDMDL
MODEL 8
REMARK VINA RESULT:      -5.3     14.722     17.277
REMARK  13 active torsions:
REMARK  status: ('A' for Active; 'I' for Inactive)
REMARK    1  A    between atoms: C_7  and  C_8 
REMARK    2  A    between atoms: C_7  and  C_14 
REMARK    3  A    between atoms: C_8  and  C_9 
REMARK    4  A    between atoms: C_8  and  N_23 
REMARK       I    between atoms: C_9  and  N_26 
REMARK    5  A    between atoms: C_10  and  C_12 
REMARK    6  A    between atoms: C_12  and  C_20 
REMARK    7  A    between atoms: C_12  and  N_26 
REMARK    8  A    between atoms: C_13  and  C_14 
REMARK    9  A    between atoms: C_13  and  C_25 
REMARK   10  A    between atoms: P_18  and  O_19 
REMARK   11  A    between atoms: P_18  and  O_28 
REMARK   12  A    between atoms: O_19  and  C_20 
REMARK   13  A    between atoms: N_24  and  C_25 
ROOT
HETATM    1  C           1     -21.562  -5.821  -5.716  0.00  0.00     0.249 C 
HETATM    2  H           1     -19.902  -6.794  -4.953  0.00  0.00     0.163 HD
HETATM    3  O           1     -22.763  -5.713  -5.650  0.00  0.00    -0.271 OA
HETATM    4  N           1     -20.909  -6.704  -4.899  0.00  0.00    -0.343 N 
ENDROOT
BRANCH   1   5
HETATM    5  C           1     -20.782  -4.982  -6.698  0.00  0.00     0.274 C 
BRANCH   5   6
HETATM    6  C           1     -21.743  -4.121  -7.507  0.00  0.00     0.042 C 
BRANCH   6   7
HETATM    7  C           1     -21.414  -4.249  -8.989  0.00  0.00     0.004 C 
BRANCH   7   8
HETATM    8  C           1     -22.692  -4.105  -9.806  0.00  0.00     0.027 C 
BRANCH   8   9
HETATM    9  C           1     -23.891  -4.044  -8.869  0.00  0.00     0.229 C 
BRANCH   9  10
HETATM   10  N           1     -25.128  -3.737  -9.658  0.00  0.00    -0.079 N 
HETATM   11  H           1     -25.574  -4.631  -9.967  0.00  0.00     0.274 HD
HETATM   12  H           1     -24.875  -3.168 -10.497  0.00  0.00     0.274 HD
HETATM   13  H           1     -25.798  -3.201  -9.061  0.00  0.00     0.274 HD
ENDBRANCH   9  10
ENDBRANCH   8   9
ENDBRANCH   7   8
ENDBRANCH   6   7
ENDBRANCH   5   6
BRANCH   5  14
HETATM   14  N           1     -20.016  -5.880  -7.622  0.00  0.00    -0.067 N 
HETATM   15  H           1     -20.321  -6.869  -7.481  0.00  0.00     0.275 HD
HETATM   16  H           1     -18.993  -5.800  -7.418  0.00  0.00     0.275 HD
HETATM   17  H           1     -20.196  -5.597  -8.612  0.00  0.00     0.275 HD
ENDBRANCH   5  14
ENDBRANCH   1   5
BRANCH   4  18
HETATM   18  C           1     -21.659  -7.510  -3.955  0.00  0.00     0.210 C 
BRANCH  18  19
HETATM   19  C           1     -21.572  -6.888  -2.583  0.00  0.00     0.198 C 
HETATM   20  O           1     -20.771  -7.344  -1.739  0.00  0.00    -0.646 OA
HETATM   21  O           1     -22.301  -5.915  -2.291  0.00  0.00    -0.646 OA
ENDBRANCH  18  19
BRANCH  18  22
HETATM   22  C           1     -21.074  -8.916  -3.913  0.00  0.00     0.217 C 
BRANCH  22  23
HETATM   23  O           1     -22.099  -9.842  -3.674  0.00  0.00    -0.287 OA
BRANCH  23  24
HETATM   24  P           1     -21.950 -10.735  -2.336  0.00  0.00     0.406 P 
HETATM   25  O           1     -21.987 -12.171  -2.694  0.00  0.00    -0.624 OA
HETATM   26  O           1     -23.064 -10.428  -1.413  0.00  0.00    -0.624 OA
BRANCH  24  27
HETATM   27  O           1     -20.544 -10.397  -1.618  0.00  0.00    -0.300 OA
HETATM   28  H           1     -20.211  -9.644  -2.075  0.00  0.00     0.223 HD
ENDBRANCH  24  27
ENDBRANCH  23  24
ENDBRANCH  22  23
ENDBRANCH  18  22
ENDBRANCH   4  18
TORSDOF 13
ENDMDL
MODEL 9
REMARK VINA RESULT:      -5.2     15.438     18.058
REMARK  13 active torsions:
REMARK  status: ('A' for Active; 'I' for Inactive)
REMARK    1  A    between atoms: C_7  and  C_8 
REMARK    2  A    between atoms: C_7  and  C_14 
REMARK    3  A    between atoms: C_8  and  C_9 
REMARK    4  A    between atoms: C_8  and  N_23 
REMARK       I    between atoms: C_9  and  N_26 
REMARK    5  A    between atoms: C_10  and  C_12 
REMARK    6  A    between atoms: C_12  and  C_20 
REMARK    7  A    between atoms: C_12  and  N_26 
REMARK    8  A    between atoms: C_13  and  C_14 
REMARK    9  A    between atoms: C_13  and  C_25 
REMARK   10  A    between atoms: P_18  and  O_19 
REMARK   11  A    between atoms: P_18  and  O_28 
REMARK   12  A    between atoms: O_19  and  C_20 
REMARK   13  A    between atoms: N_24  and  C_25 
ROOT
HETATM    1  C           1     -20.387  -7.039  -5.406  0.00  0.00     0.249 C 
HETATM    2  H           1     -21.339  -7.086  -3.569  0.00  0.00     0.163 HD
HETATM    3  O           1     -19.609  -7.609  -6.133  0.00  0.00    -0.271 OA
HETATM    4  N           1     -20.687  -7.563  -4.177  0.00  0.00    -0.343 N 
ENDROOT
BRANCH   1   5
HETATM    5  C           1     -21.028  -5.748  -5.852  0.00  0.00     0.274 C 
BRANCH   5   6
HETATM    6  C           1     -21.135  -5.731  -7.371  0.00  0.00     0.042 C 
BRANCH   6   7
HETATM    7  C           1     -21.887  -4.481  -7.813  0.00  0.00     0.004 C 
BRANCH   7   8
HETATM    8  C           1     -21.939  -4.432  -9.335  0.00  0.00     0.027 C 
BRANCH   8   9
HETATM    9  C           1     -23.202  -3.704  -9.776  0.00  0.00     0.229 C 
BRANCH   9  10
HETATM   10  N           1     -24.189  -3.683  -8.647  0.00  0.00    -0.079 N 
HETATM   11  H           1     -23.755  -4.112  -7.798  0.00  0.00     0.274 HD
HETATM   12  H           1     -25.038  -4.229  -8.917  0.00  0.00     0.274 HD
HETATM   13  H           1     -24.460  -2.696  -8.440  0.00  0.00     0.274 HD
ENDBRANCH   9  10
ENDBRANCH   8   9
ENDBRANCH   7   8
ENDBRANCH   6   7
ENDBRANCH   5   6
BRANCH   5  14
HETATM   14  N           1     -20.189  -4.591  -5.397  0.00  0.00    -0.067 N 
HETATM   15  H           1     -20.107  -4.609  -4.355  0.00  0.00     0.275 HD
HETATM   16  H           1     -20.639  -3.695  -5.695  0.00  0.00     0.275 HD
HETATM   17  H           1     -19.238  -4.661  -5.824  0.00  0.00     0.275 HD
ENDBRANCH   5  14
ENDBRANCH   1   5
BRANCH   4  18
HETATM   18  C           1     -20.071  -8.805  -3.749  0.00  0.00     0.210 C 
BRANCH  18  19
HETATM   19  C           1     -20.927  -9.967  -4.188  0.00  0.00     0.198 C 
HETATM   20  O           1     -22.148  -9.979  -3.925  0.00  0.00    -0.646 OA
HETATM   21  O           1     -20.413 -10.919  -4.815  0.00  0.00    -0.646 OA
ENDBRANCH  18  19
BRANCH  18  22
HETATM   22  C           1     -19.947  -8.810  -2.231  0.00  0.00     0.217 C 
BRANCH  22  23
HETATM   23  O           1     -20.665  -7.730  -1.699  0.00  0.00    -0.287 OA
BRANCH  23  24
HETATM   24  P           1     -21.804  -8.101  -0.615  0.00  0.00     0.406 P 
HETATM   25  O           1     -22.797  -7.006  -0.546  0.00  0.00    -0.624 OA
HETATM   26  O           1     -21.178  -8.283   0.713  0.00  0.00    -0.624 OA
BRANCH  24  27
HETATM   27  O           1     -22.541  -9.468  -1.057  0.00  0.00    -0.300 OA
HETATM   28  H           1     -23.063  -9.233  -1.804  0.00  0.00     0.223 HD
ENDBRANCH  24  27
ENDBRANCH  23  24
ENDBRANCH  22  23
ENDBRANCH  18  22
ENDBRANCH   4  18
TORSDOF 13
ENDMDL
