MODEL 1
REMARK VINA RESULT:      -5.8      0.000      0.000
REMARK  5 active torsions:
REMARK  status: ('A' for Active; 'I' for Inactive)
REMARK    1  A    between atoms: C_1  and  C_3 
REMARK    2  A    between atoms: C_1  and  C_4 
REMARK    3  A    between atoms: C_1  and  N_13 
REMARK       I    between atoms: C_3  and  N_11 
REMARK    4  A    between atoms: C_7  and  C_12 
REMARK    5  A    between atoms: N_11  and  C_12 
ROOT
HETATM    1  C           1     -34.444  -1.777 -11.806  0.00  0.00     0.278 C 
ENDROOT
BRANCH   1   2
HETATM    2  C           1     -35.403  -1.231 -12.836  0.00  0.00     0.249 C 
HETATM    3  N           1     -34.925  -0.710 -14.008  0.00  0.00    -0.349 N 
HETATM    4  H           1     -33.929  -0.690 -14.184  0.00  0.00     0.163 HD
HETATM    5  O           1     -36.593  -1.254 -12.626  0.00  0.00    -0.271 OA
BRANCH   3   6
HETATM    6  C           1     -35.847  -0.185 -14.997  0.00  0.00     0.235 C 
BRANCH   6   7
HETATM    7  C           1     -35.803  -1.048 -16.234  0.00  0.00     0.191 C 
HETATM    8  O           1     -35.068  -2.060 -16.265  0.00  0.00    -0.647 OA
HETATM    9  O           1     -36.501  -0.752 -17.228  0.00  0.00    -0.647 OA
ENDBRANCH   6   7
ENDBRANCH   3   6
ENDBRANCH   1   2
BRANCH   1  10
HETATM   10  C           1     -34.320  -3.285 -11.976  0.00  0.00     0.017 C 
HETATM   11  C           1     -32.890  -3.715 -11.676  0.00  0.00     0.012 C 
HETATM   12  C           1     -35.272  -3.984 -11.013  0.00  0.00     0.012 C 
ENDBRANCH   1  10
BRANCH   1  13
HETATM   13  N           1     -34.960  -1.470 -10.432  0.00  0.00    -0.066 N 
HETATM   14  H           1     -35.373  -2.334 -10.013  0.00  0.00     0.275 HD
HETATM   15  H           1     -34.175  -1.133  -9.831  0.00  0.00     0.275 HD
HETATM   16  H           1     -35.694  -0.728 -10.493  0.00  0.00     0.275 HD
ENDBRANCH   1  13
TORSDOF 5
ENDMDL
MODEL 2
REMARK VINA RESULT:      -5.8      9.160     10.679
REMARK  5 active torsions:
REMARK  status: ('A' for Active; 'I' for Inactive)
REMARK    1  A    between atoms: C_1  and  C_3 
REMARK    2  A    between atoms: C_1  and  C_4 
REMARK    3  A    between atoms: C_1  and  N_13 
REMARK       I    between atoms: C_3  and  N_11 
REMARK    4  A    between atoms: C_7  and  C_12 
REMARK    5  A    between atoms: N_11  and  C_12 
ROOT
HETATM    1  C           1     -28.871  -5.963 -17.883  0.00  0.00     0.278 C 
ENDROOT
BRANCH   1   2
HETATM    2  C           1     -27.613  -5.831 -17.061  0.00  0.00     0.249 C 
HETATM    3  N           1     -27.014  -6.946 -16.540  0.00  0.00    -0.349 N 
HETATM    4  H           1     -27.415  -7.860 -16.707  0.00  0.00     0.163 HD
HETATM    5  O           1     -27.133  -4.739 -16.862  0.00  0.00    -0.271 OA
BRANCH   3   6
HETATM    6  C           1     -25.805  -6.818 -15.750  0.00  0.00     0.235 C 
BRANCH   6   7
HETATM    7  C           1     -24.635  -7.375 -16.524  0.00  0.00     0.191 C 
HETATM    8  O           1     -24.216  -6.778 -17.539  0.00  0.00    -0.647 OA
HETATM    9  O           1     -24.086  -8.434 -16.150  0.00  0.00    -0.647 OA
ENDBRANCH   6   7
ENDBRANCH   3   6
ENDBRANCH   1   2
BRANCH   1  10
HETATM   10  C           1     -30.085  -5.946 -16.962  0.00  0.00     0.017 C 
HETATM   11  C           1     -30.722  -4.563 -16.988  0.00  0.00     0.012 C 
HETATM   12  C           1     -31.097  -6.980 -17.439  0.00  0.00     0.012 C 
ENDBRANCH   1  10
BRANCH   1  13
HETATM   13  N           1     -28.838  -7.257 -18.641  0.00  0.00    -0.066 N 
HETATM   14  H           1     -28.860  -7.061 -19.667  0.00  0.00     0.275 HD
HETATM   15  H           1     -27.963  -7.777 -18.405  0.00  0.00     0.275 HD
HETATM   16  H           1     -29.668  -7.835 -18.378  0.00  0.00     0.275 HD
ENDBRANCH   1  13
TORSDOF 5
ENDMDL
MODEL 3
REMARK VINA RESULT:      -5.7      2.270      3.829
REMARK  5 active torsions:
REMARK  status: ('A' for Active; 'I' for Inactive)
REMARK    1  A    between atoms: C_1  and  C_3 
REMARK    2  A    between atoms: C_1  and  C_4 
REMARK    3  A    between atoms: C_1  and  N_13 
REMARK       I    between atoms: C_3  and  N_11 
REMARK    4  A    between atoms: C_7  and  C_12 
REMARK    5  A    between atoms: N_11  and  C_12 
ROOT
HETATM    1  C           1     -34.479  -3.677 -12.719  0.00  0.00     0.278 C 
ENDROOT
BRANCH   1   2
HETATM    2  C           1     -34.965  -2.251 -12.805  0.00  0.00     0.249 C 
HETATM    3  N           1     -35.361  -1.593 -11.672  0.00  0.00    -0.349 N 
HETATM    4  H           1     -35.328  -2.063 -10.776  0.00  0.00     0.163 HD
HETATM    5  O           1     -35.004  -1.689 -13.874  0.00  0.00    -0.271 OA
BRANCH   3   6
HETATM    6  C           1     -35.827  -0.222 -11.754  0.00  0.00     0.235 C 
BRANCH   6   7
HETATM    7  C           1     -37.208  -0.122 -11.154  0.00  0.00     0.191 C 
HETATM    8  O           1     -38.074  -0.979 -11.433  0.00  0.00    -0.647 OA
HETATM    9  O           1     -37.485   0.817 -10.377  0.00  0.00    -0.647 OA
ENDBRANCH   6   7
ENDBRANCH   3   6
ENDBRANCH   1   2
BRANCH   1  10
HETATM   10  C           1     -33.488  -3.809 -11.569  0.00  0.00     0.017 C 
HETATM   11  C           1     -34.083  -4.696 -10.484  0.00  0.00     0.012 C 
HETATM   12  C           1     -32.197  -4.432 -12.083  0.00  0.00     0.012 C 
ENDBRANCH   1  10
BRANCH   1  13
HETATM   13  N           1     -33.806  -4.054 -14.004  0.00  0.00    -0.066 N 
HETATM   14  H           1     -33.737  -5.094 -14.071  0.00  0.00     0.275 HD
HETATM   15  H           1     -34.363  -3.689 -14.810  0.00  0.00     0.275 HD
HETATM   16  H           1     -32.847  -3.639 -14.029  0.00  0.00     0.275 HD
ENDBRANCH   1  13
TORSDOF 5
ENDMDL
MODEL 4
REMARK VINA RESULT:      -5.7      9.081     10.559
REMARK  5 active torsions:
REMARK  status: ('A' for Active; 'I' for Inactive)
REMARK    1  A    between atoms: C_1  and  C_3 
REMARK    2  A    between atoms: C_1  and  C_4 
REMARK    3  A    between atoms: C_1  and  N_13 
REMARK       I    between atoms: C_3  and  N_11 
REMARK    4  A    between atoms: C_7  and  C_12 
REMARK    5  A    between atoms: N_11  and  C_12 
ROOT
HETATM    1  C           1     -29.098  -6.113 -16.598  0.00  0.00     0.278 C 
ENDROOT
BRANCH   1   2
HETATM    2  C           1     -27.857  -6.621 -15.905  0.00  0.00     0.249 C 
HETATM    3  N           1     -26.629  -6.122 -16.246  0.00  0.00    -0.349 N 
HETATM    4  H           1     -26.552  -5.412 -16.963  0.00  0.00     0.163 HD
HETATM    5  O           1     -27.948  -7.469 -15.049  0.00  0.00    -0.271 OA
BRANCH   3   6
HETATM    6  C           1     -25.437  -6.610 -15.579  0.00  0.00     0.235 C 
BRANCH   6   7
HETATM    7  C           1     -24.565  -7.336 -16.574  0.00  0.00     0.191 C 
HETATM    8  O           1     -24.326  -6.822 -17.688  0.00  0.00    -0.647 OA
HETATM    9  O           1     -24.082  -8.452 -16.284  0.00  0.00    -0.647 OA
ENDBRANCH   6   7
ENDBRANCH   3   6
ENDBRANCH   1   2
BRANCH   1  10
HETATM   10  C           1     -28.722  -4.984 -17.549  0.00  0.00     0.017 C 
HETATM   11  C           1     -28.625  -5.526 -18.969  0.00  0.00     0.012 C 
HETATM   12  C           1     -29.790  -3.899 -17.493  0.00  0.00     0.012 C 
ENDBRANCH   1  10
BRANCH   1  13
HETATM   13  N           1     -30.068  -5.603 -15.575  0.00  0.00    -0.066 N 
HETATM   14  H           1     -29.579  -5.486 -14.659  0.00  0.00     0.275 HD
HETATM   15  H           1     -30.450  -4.682 -15.886  0.00  0.00     0.275 HD
HETATM   16  H           1     -30.851  -6.287 -15.467  0.00  0.00     0.275 HD
ENDBRANCH   1  13
TORSDOF 5
ENDMDL
MODEL 5
REMARK VINA RESULT:      -5.7      1.892      2.542
REMARK  5 active torsions:
REMARK  status: ('A' for Active; 'I' for Inactive)
REMARK    1  A    between atoms: C_1  and  C_3 
REMARK    2  A    between atoms: C_1  and  C_4 
REMARK    3  A    between atoms: C_1  and  N_13 
REMARK       I    between atoms: C_3  and  N_11 
REMARK    4  A    between atoms: C_7  and  C_12 
REMARK    5  A    between atoms: N_11  and  C_12 
ROOT
HETATM    1  C           1     -34.520  -3.869 -12.539  0.00  0.00     0.278 C 
ENDROOT
BRANCH   1   2
HETATM    2  C           1     -35.115  -2.489 -12.405  0.00  0.00     0.249 C 
HETATM    3  N           1     -34.862  -1.539 -13.357  0.00  0.00    -0.349 N 
HETATM    4  H           1     -34.276  -1.761 -14.152  0.00  0.00     0.163 HD
HETATM    5  O           1     -35.815  -2.222 -11.457  0.00  0.00    -0.271 OA
BRANCH   3   6
HETATM    6  C           1     -35.435  -0.212 -13.228  0.00  0.00     0.235 C 
BRANCH   6   7
HETATM    7  C           1     -36.628  -0.087 -14.142  0.00  0.00     0.191 C 
HETATM    8  O           1     -37.700  -0.662 -13.853  0.00  0.00    -0.647 OA
HETATM    9  O           1     -36.546   0.592 -15.189  0.00  0.00    -0.647 OA
ENDBRANCH   6   7
ENDBRANCH   3   6
ENDBRANCH   1   2
BRANCH   1  10
HETATM   10  C           1     -33.509  -4.097 -11.423  0.00  0.00     0.017 C 
HETATM   11  C           1     -34.018  -5.188 -10.490  0.00  0.00     0.012 C 
HETATM   12  C           1     -32.177  -4.527 -12.026  0.00  0.00     0.012 C 
ENDBRANCH   1  10
BRANCH   1  13
HETATM   13  N           1     -33.834  -3.990 -13.867  0.00  0.00    -0.066 N 
HETATM   14  H           1     -34.270  -3.326 -14.546  0.00  0.00     0.275 HD
HETATM   15  H           1     -32.821  -3.761 -13.758  0.00  0.00     0.275 HD
HETATM   16  H           1     -33.934  -4.968 -14.223  0.00  0.00     0.275 HD
ENDBRANCH   1  13
TORSDOF 5
ENDMDL
MODEL 6
REMARK VINA RESULT:      -5.3      8.933     10.475
REMARK  5 active torsions:
REMARK  status: ('A' for Active; 'I' for Inactive)
REMARK    1  A    between atoms: C_1  and  C_3 
REMARK    2  A    between atoms: C_1  and  C_4 
REMARK    3  A    between atoms: C_1  and  N_13 
REMARK       I    between atoms: C_3  and  N_11 
REMARK    4  A    between atoms: C_7  and  C_12 
REMARK    5  A    between atoms: N_11  and  C_12 
ROOT
HETATM    1  C           1     -29.389  -5.691 -17.584  0.00  0.00     0.278 C 
ENDROOT
BRANCH   1   2
HETATM    2  C           1     -27.968  -6.034 -17.959  0.00  0.00     0.249 C 
HETATM    3  N           1     -27.048  -6.303 -16.983  0.00  0.00    -0.349 N 
HETATM    4  H           1     -27.319  -6.272 -16.008  0.00  0.00     0.163 HD
HETATM    5  O           1     -27.643  -6.072 -19.122  0.00  0.00    -0.271 OA
BRANCH   3   6
HETATM    6  C           1     -25.682  -6.632 -17.344  0.00  0.00     0.235 C 
BRANCH   6   7
HETATM    7  C           1     -24.999  -7.301 -16.176  0.00  0.00     0.191 C 
HETATM    8  O           1     -24.082  -8.127 -16.378  0.00  0.00    -0.647 OA
HETATM    9  O           1     -25.350  -7.030 -15.008  0.00  0.00    -0.647 OA
ENDBRANCH   6   7
ENDBRANCH   3   6
ENDBRANCH   1   2
BRANCH   1  10
HETATM   10  C           1     -29.663  -4.229 -17.912  0.00  0.00     0.017 C 
HETATM   11  C           1     -31.080  -3.870 -17.486  0.00  0.00     0.012 C 
HETATM   12  C           1     -28.670  -3.348 -17.164  0.00  0.00     0.012 C 
ENDBRANCH   1  10
BRANCH   1  13
HETATM   13  N           1     -29.586  -5.919 -16.115  0.00  0.00    -0.066 N 
HETATM   14  H           1     -28.762  -6.431 -15.728  0.00  0.00     0.275 HD
HETATM   15  H           1     -29.683  -4.999 -15.629  0.00  0.00     0.275 HD
HETATM   16  H           1     -30.451  -6.485 -15.963  0.00  0.00     0.275 HD
ENDBRANCH   1  13
TORSDOF 5
ENDMDL
MODEL 7
REMARK VINA RESULT:      -5.3     12.949     14.548
REMARK  5 active torsions:
REMARK  status: ('A' for Active; 'I' for Inactive)
REMARK    1  A    between atoms: C_1  and  C_3 
REMARK    2  A    between atoms: C_1  and  C_4 
REMARK    3  A    between atoms: C_1  and  N_13 
REMARK       I    between atoms: C_3  and  N_11 
REMARK    4  A    between atoms: C_7  and  C_12 
REMARK    5  A    between atoms: N_11  and  C_12 
ROOT
HETATM    1  C           1     -21.199  -5.915  -7.265  0.00  0.00     0.278 C 
ENDROOT
BRANCH   1   2
HETATM    2  C           1     -21.526  -4.872  -8.305  0.00  0.00     0.249 C 
HETATM    3  N           1     -22.805  -4.400  -8.424  0.00  0.00    -0.349 N 
HETATM    4  H           1     -23.533  -4.751  -7.814  0.00  0.00     0.163 HD
HETATM    5  O           1     -20.658  -4.452  -9.033  0.00  0.00    -0.271 OA
BRANCH   3   6
HETATM    6  C           1     -23.119  -3.397  -9.424  0.00  0.00     0.235 C 
BRANCH   6   7
HETATM    7  C           1     -24.102  -3.966 -10.417  0.00  0.00     0.191 C 
HETATM    8  O           1     -23.993  -5.153 -10.793  0.00  0.00    -0.647 OA
HETATM    9  O           1     -25.023  -3.251 -10.864  0.00  0.00    -0.647 OA
ENDBRANCH   6   7
ENDBRANCH   3   6
ENDBRANCH   1   2
BRANCH   1  10
HETATM   10  C           1     -21.424  -5.335  -5.874  0.00  0.00     0.017 C 
HETATM   11  C           1     -21.834  -6.447  -4.919  0.00  0.00     0.012 C 
HETATM   12  C           1     -20.134  -4.691  -5.380  0.00  0.00     0.012 C 
ENDBRANCH   1  10
BRANCH   1  13
HETATM   13  N           1     -19.766  -6.330  -7.407  0.00  0.00    -0.066 N 
HETATM   14  H           1     -19.704  -7.373  -7.418  0.00  0.00     0.275 HD
HETATM   15  H           1     -19.379  -5.949  -8.300  0.00  0.00     0.275 HD
HETATM   16  H           1     -19.214  -5.956  -6.602  0.00  0.00     0.275 HD
ENDBRANCH   1  13
TORSDOF 5
ENDMDL
MODEL 8
REMARK VINA RESULT:      -5.3     10.112     11.212
REMARK  5 active torsions:
REMARK  status: ('A' for Active; 'I' for Inactive)
REMARK    1  A    between atoms: C_1  and  C_3 
REMARK    2  A    between atoms: C_1  and  C_4 
REMARK    3  A    between atoms: C_1  and  N_13 
REMARK       I    between atoms: C_3  and  N_11 
REMARK    4  A    between atoms: C_7  and  C_12 
REMARK    5  A    between atoms: N_11  and  C_12 
ROOT
HETATM    1  C           1     -29.088  -6.621 -18.321  0.00  0.00     0.278 C 
ENDROOT
BRANCH   1   2
HETATM    2  C           1     -27.608  -6.510 -18.597  0.00  0.00     0.249 C 
HETATM    3  N           1     -27.114  -6.845 -19.828  0.00  0.00    -0.349 N 
HETATM    4  H           1     -27.741  -7.166 -20.555  0.00  0.00     0.163 HD
HETATM    5  O           1     -26.859  -6.126 -17.730  0.00  0.00    -0.271 OA
BRANCH   3   6
HETATM    6  C           1     -25.692  -6.738 -20.093  0.00  0.00     0.235 C 
BRANCH   6   7
HETATM    7  C           1     -25.255  -7.884 -20.973  0.00  0.00     0.191 C 
HETATM    8  O           1     -24.038  -8.124 -21.128  0.00  0.00    -0.647 OA
HETATM    9  O           1     -26.110  -8.593 -21.545  0.00  0.00    -0.647 OA
ENDBRANCH   6   7
ENDBRANCH   3   6
ENDBRANCH   1   2
BRANCH   1  10
HETATM   10  C           1     -29.516  -5.497 -17.387  0.00  0.00     0.017 C 
HETATM   11  C           1     -29.566  -4.185 -18.158  0.00  0.00     0.012 C 
HETATM   12  C           1     -30.897  -5.806 -16.823  0.00  0.00     0.012 C 
ENDBRANCH   1  10
BRANCH   1  13
HETATM   13  N           1     -29.378  -7.943 -17.678  0.00  0.00    -0.066 N 
HETATM   14  H           1     -28.823  -8.691 -18.152  0.00  0.00     0.275 HD
HETATM   15  H           1     -29.117  -7.904 -16.667  0.00  0.00     0.275 HD
HETATM   16  H           1     -30.398  -8.157 -17.766  0.00  0.00     0.275 HD
ENDBRANCH   1  13
TORSDOF 5
ENDMDL
MODEL 9
REMARK VINA RESULT:      -5.2     12.778     14.344
REMARK  5 active torsions:
REMARK  status: ('A' for Active; 'I' for Inactive)
REMARK    1  A    between atoms: C_1  and  C_3 
REMARK    2  A    between atoms: C_1  and  C_4 
REMARK    3  A    between atoms: C_1  and  N_13 
REMARK       I    between atoms: C_3  and  N_11 
REMARK    4  A    between atoms: C_7  and  C_12 
REMARK    5  A    between atoms: N_11  and  C_12 
ROOT
HETATM    1  C           1     -21.226  -4.513  -6.475  0.00  0.00     0.278 C 
ENDROOT
BRANCH   1   2
HETATM    2  C           1     -22.612  -4.441  -7.069  0.00  0.00     0.249 C 
HETATM    3  N           1     -22.803  -3.859  -8.292  0.00  0.00    -0.349 N 
HETATM    4  H           1     -22.015  -3.476  -8.800  0.00  0.00     0.163 HD
HETATM    5  O           1     -23.552  -4.897  -6.463  0.00  0.00    -0.271 OA
BRANCH   3   6
HETATM    6  C           1     -24.135  -3.790  -8.862  0.00  0.00     0.235 C 
BRANCH   6   7
HETATM    7  C           1     -24.039  -3.435 -10.326  0.00  0.00     0.191 C 
HETATM    8  O           1     -22.923  -3.387 -10.885  0.00  0.00    -0.647 OA
HETATM    9  O           1     -25.077  -3.191 -10.979  0.00  0.00    -0.647 OA
ENDBRANCH   6   7
ENDBRANCH   3   6
ENDBRANCH   1   2
BRANCH   1  10
HETATM   10  C           1     -20.292  -5.223  -7.448  0.00  0.00     0.017 C 
HETATM   11  C           1     -19.161  -4.283  -7.844  0.00  0.00     0.012 C 
HETATM   12  C           1     -19.712  -6.463  -6.780  0.00  0.00     0.012 C 
ENDBRANCH   1  10
BRANCH   1  13
HETATM   13  N           1     -21.274  -5.274  -5.185  0.00  0.00    -0.066 N 
HETATM   14  H           1     -21.618  -4.648  -4.423  0.00  0.00     0.275 HD
HETATM   15  H           1     -21.921  -6.088  -5.284  0.00  0.00     0.275 HD
HETATM   16  H           1     -20.316  -5.618  -4.947  0.00  0.00     0.275 HD
ENDBRANCH   1  13
TORSDOF 5
ENDMDL
