MODEL 1
REMARK VINA RESULT:      -5.9      0.000      0.000
REMARK  8 active torsions:
REMARK  status: ('A' for Active; 'I' for Inactive)
REMARK    1  A    between atoms: C_2  and  C_17 
REMARK    2  A    between atoms: C_2  and  C_10 
REMARK       I    between atoms: C_9  and  N_13 
REMARK    3  A    between atoms: C_9  and  C_16 
REMARK    4  A    between atoms: C_10  and  N_11 
REMARK    5  A    between atoms: C_12  and  C_18 
REMARK    6  A    between atoms: C_12  and  N_13 
REMARK    7  A    between atoms: N_14  and  C_16 
REMARK    8  A    between atoms: C_16  and  C_17 
ROOT
HETATM    1  C           1     -29.251  -6.587 -16.852  0.00  0.00     0.274 C 
ENDROOT
BRANCH   1   2
HETATM    2  C           1     -27.992  -6.855 -16.064  0.00  0.00     0.248 C 
HETATM    3  O           1     -28.047  -7.484 -15.033  0.00  0.00    -0.271 OA
HETATM    4  N           1     -26.788  -6.387 -16.516  0.00  0.00    -0.349 N 
HETATM    5  H           1     -26.742  -5.860 -17.379  0.00  0.00     0.163 HD
BRANCH   4   6
HETATM    6  C           1     -25.578  -6.644 -15.759  0.00  0.00     0.235 C 
BRANCH   6   7
HETATM    7  C           1     -24.577  -7.354 -16.636  0.00  0.00     0.191 C 
HETATM    8  O           1     -24.071  -8.434 -16.259  0.00  0.00    -0.647 OA
HETATM    9  O           1     -24.254  -6.864 -17.739  0.00  0.00    -0.647 OA
ENDBRANCH   6   7
ENDBRANCH   4   6
ENDBRANCH   1   2
BRANCH   1  10
HETATM   10  N           1     -30.252  -5.898 -15.973  0.00  0.00    -0.067 N 
HETATM   11  H           1     -31.218  -6.139 -16.293  0.00  0.00     0.275 HD
HETATM   12  H           1     -30.124  -6.213 -14.985  0.00  0.00     0.275 HD
HETATM   13  H           1     -30.114  -4.864 -16.030  0.00  0.00     0.275 HD
ENDBRANCH   1  10
BRANCH   1  14
HETATM   14  C           1     -28.925  -5.696 -18.043  0.00  0.00     0.044 C 
BRANCH  14  15
HETATM   15  C           1     -29.688  -4.385 -17.921  0.00  0.00     0.030 C 
BRANCH  15  16
HETATM   16  C           1     -28.778  -3.319 -17.324  0.00  0.00     0.230 C 
BRANCH  16  17
HETATM   17  N           1     -29.451  -1.981 -17.411  0.00  0.00    -0.079 N 
HETATM   18  H           1     -28.783  -1.235 -17.113  0.00  0.00     0.274 HD
HETATM   19  H           1     -29.753  -1.806 -18.395  0.00  0.00     0.274 HD
HETATM   20  H           1     -30.287  -1.971 -16.783  0.00  0.00     0.274 HD
ENDBRANCH  16  17
ENDBRANCH  15  16
ENDBRANCH  14  15
ENDBRANCH   1  14
TORSDOF 8
ENDMDL
MODEL 2
REMARK VINA RESULT:      -5.7      9.050     10.591
REMARK  8 active torsions:
REMARK  status: ('A' for Active; 'I' for Inactive)
REMARK    1  A    between atoms: C_2  and  C_17 
REMARK    2  A    between atoms: C_2  and  C_10 
REMARK       I    between atoms: C_9  and  N_13 
REMARK    3  A    between atoms: C_9  and  C_16 
REMARK    4  A    between atoms: C_10  and  N_11 
REMARK    5  A    between atoms: C_12  and  C_18 
REMARK    6  A    between atoms: C_12  and  N_13 
REMARK    7  A    between atoms: N_14  and  C_16 
REMARK    8  A    between atoms: C_16  and  C_17 
ROOT
HETATM    1  C           1     -34.517  -1.561 -11.941  0.00  0.00     0.274 C 
ENDROOT
BRANCH   1   2
HETATM    2  C           1     -35.473  -0.967 -12.947  0.00  0.00     0.248 C 
HETATM    3  O           1     -36.666  -1.058 -12.773  0.00  0.00    -0.271 OA
HETATM    4  N           1     -34.990  -0.326 -14.056  0.00  0.00    -0.349 N 
HETATM    5  H           1     -33.991  -0.250 -14.200  0.00  0.00     0.163 HD
BRANCH   4   6
HETATM    6  C           1     -35.909   0.244 -15.022  0.00  0.00     0.235 C 
BRANCH   6   7
HETATM    7  C           1     -36.024  -0.677 -16.211  0.00  0.00     0.191 C 
HETATM    8  O           1     -35.074  -1.434 -16.509  0.00  0.00    -0.647 OA
HETATM    9  O           1     -37.067  -0.683 -16.899  0.00  0.00    -0.647 OA
ENDBRANCH   6   7
ENDBRANCH   4   6
ENDBRANCH   1   2
BRANCH   1  10
HETATM   10  N           1     -35.099  -1.433 -10.564  0.00  0.00    -0.067 N 
HETATM   11  H           1     -34.662  -0.618 -10.077  0.00  0.00     0.275 HD
HETATM   12  H           1     -36.131  -1.286 -10.634  0.00  0.00     0.275 HD
HETATM   13  H           1     -34.907  -2.305 -10.023  0.00  0.00     0.275 HD
ENDBRANCH   1  10
BRANCH   1  14
HETATM   14  C           1     -34.292  -3.033 -12.262  0.00  0.00     0.044 C 
BRANCH  14  15
HETATM   15  C           1     -33.308  -3.625 -11.263  0.00  0.00     0.030 C 
BRANCH  15  16
HETATM   16  C           1     -33.950  -4.814 -10.559  0.00  0.00     0.230 C 
BRANCH  16  17
HETATM   17  N           1     -33.577  -6.079 -11.274  0.00  0.00    -0.079 N 
HETATM   18  H           1     -33.687  -5.941 -12.304  0.00  0.00     0.274 HD
HETATM   19  H           1     -32.584  -6.321 -11.059  0.00  0.00     0.274 HD
HETATM   20  H           1     -34.202  -6.854 -10.957  0.00  0.00     0.274 HD
ENDBRANCH  16  17
ENDBRANCH  15  16
ENDBRANCH  14  15
ENDBRANCH   1  14
TORSDOF 8
ENDMDL
MODEL 3
REMARK VINA RESULT:      -5.7      9.083     10.494
REMARK  8 active torsions:
REMARK  status: ('A' for Active; 'I' for Inactive)
REMARK    1  A    between atoms: C_2  and  C_17 
REMARK    2  A    between atoms: C_2  and  C_10 
REMARK       I    between atoms: C_9  and  N_13 
REMARK    3  A    between atoms: C_9  and  C_16 
REMARK    4  A    between atoms: C_10  and  N_11 
REMARK    5  A    between atoms: C_12  and  C_18 
REMARK    6  A    between atoms: C_12  and  N_13 
REMARK    7  A    between atoms: N_14  and  C_16 
REMARK    8  A    between atoms: C_16  and  C_17 
ROOT
HETATM    1  C           1     -34.096  -4.936 -11.839  0.00  0.00     0.274 C 
ENDROOT
BRANCH   1   2
HETATM    2  C           1     -34.807  -3.615 -11.673  0.00  0.00     0.248 C 
HETATM    3  O           1     -35.851  -3.564 -11.066  0.00  0.00    -0.271 OA
HETATM    4  N           1     -34.270  -2.477 -12.210  0.00  0.00    -0.349 N 
HETATM    5  H           1     -33.396  -2.521 -12.718  0.00  0.00     0.163 HD
BRANCH   4   6
HETATM    6  C           1     -34.954  -1.207 -12.051  0.00  0.00     0.235 C 
BRANCH   6   7
HETATM    7  C           1     -35.581  -0.806 -13.363  0.00  0.00     0.191 C 
HETATM    8  O           1     -34.871  -0.327 -14.274  0.00  0.00    -0.647 OA
HETATM    9  O           1     -36.810  -0.951 -13.539  0.00  0.00    -0.647 OA
ENDBRANCH   6   7
ENDBRANCH   4   6
ENDBRANCH   1   2
BRANCH   1  10
HETATM   10  N           1     -32.655  -4.688 -12.176  0.00  0.00    -0.067 N 
HETATM   11  H           1     -32.479  -3.658 -12.212  0.00  0.00     0.275 HD
HETATM   12  H           1     -32.047  -5.121 -11.446  0.00  0.00     0.275 HD
HETATM   13  H           1     -32.437  -5.111 -13.106  0.00  0.00     0.275 HD
ENDBRANCH   1  10
BRANCH   1  14
HETATM   14  C           1     -34.183  -5.727 -10.541  0.00  0.00     0.044 C 
BRANCH  14  15
HETATM   15  C           1     -34.815  -7.085 -10.815  0.00  0.00     0.030 C 
BRANCH  15  16
HETATM   16  C           1     -34.430  -8.059  -9.708  0.00  0.00     0.230 C 
BRANCH  16  17
HETATM   17  N           1     -33.462  -9.070 -10.246  0.00  0.00    -0.079 N 
HETATM   18  H           1     -32.654  -8.578 -10.689  0.00  0.00     0.274 HD
HETATM   19  H           1     -33.117  -9.672  -9.465  0.00  0.00     0.274 HD
HETATM   20  H           1     -33.941  -9.665 -10.959  0.00  0.00     0.274 HD
ENDBRANCH  16  17
ENDBRANCH  15  16
ENDBRANCH  14  15
ENDBRANCH   1  14
TORSDOF 8
ENDMDL
MODEL 4
REMARK VINA RESULT:      -5.6      8.900     10.386
REMARK  8 active torsions:
REMARK  status: ('A' for Active; 'I' for Inactive)
REMARK    1  A    between atoms: C_2  and  C_17 
REMARK    2  A    between atoms: C_2  and  C_10 
REMARK       I    between atoms: C_9  and  N_13 
REMARK    3  A    between atoms: C_9  and  C_16 
REMARK    4  A    between atoms: C_10  and  N_11 
REMARK    5  A    between atoms: C_12  and  C_18 
REMARK    6  A    between atoms: C_12  and  N_13 
REMARK    7  A    between atoms: N_14  and  C_16 
REMARK    8  A    between atoms: C_16  and  C_17 
ROOT
HETATM    1  C           1     -34.386  -3.720 -12.102  0.00  0.00     0.274 C 
ENDROOT
BRANCH   1   2
HETATM    2  C           1     -34.532  -2.225 -11.952  0.00  0.00     0.248 C 
HETATM    3  O           1     -33.920  -1.643 -11.088  0.00  0.00    -0.271 OA
HETATM    4  N           1     -35.357  -1.530 -12.794  0.00  0.00    -0.349 N 
HETATM    5  H           1     -35.870  -2.019 -13.517  0.00  0.00     0.163 HD
BRANCH   4   6
HETATM    6  C           1     -35.498  -0.094 -12.650  0.00  0.00     0.235 C 
BRANCH   6   7
HETATM    7  C           1     -34.894   0.593 -13.850  0.00  0.00     0.191 C 
HETATM    8  O           1     -34.745  -0.035 -14.920  0.00  0.00    -0.647 OA
HETATM    9  O           1     -34.543   1.791 -13.775  0.00  0.00    -0.647 OA
ENDBRANCH   6   7
ENDBRANCH   4   6
ENDBRANCH   1   2
BRANCH   1  10
HETATM   10  N           1     -33.592  -4.022 -13.338  0.00  0.00    -0.067 N 
HETATM   11  H           1     -33.708  -5.030 -13.588  0.00  0.00     0.275 HD
HETATM   12  H           1     -33.931  -3.426 -14.125  0.00  0.00     0.275 HD
HETATM   13  H           1     -32.582  -3.822 -13.161  0.00  0.00     0.275 HD
ENDBRANCH   1  10
BRANCH   1  14
HETATM   14  C           1     -33.665  -4.285 -10.885  0.00  0.00     0.044 C 
BRANCH  14  15
HETATM   15  C           1     -33.461  -5.782 -11.066  0.00  0.00     0.030 C 
BRANCH  15  16
HETATM   16  C           1     -34.533  -6.540 -10.292  0.00  0.00     0.230 C 
BRANCH  16  17
HETATM   17  N           1     -34.838  -7.830 -10.993  0.00  0.00    -0.079 N 
HETATM   18  H           1     -34.255  -7.903 -11.857  0.00  0.00     0.274 HD
HETATM   19  H           1     -34.621  -8.631 -10.358  0.00  0.00     0.274 HD
HETATM   20  H           1     -35.850  -7.855 -11.252  0.00  0.00     0.274 HD
ENDBRANCH  16  17
ENDBRANCH  15  16
ENDBRANCH  14  15
ENDBRANCH   1  14
TORSDOF 8
ENDMDL
MODEL 5
REMARK VINA RESULT:      -5.5      2.906      3.269
REMARK  8 active torsions:
REMARK  status: ('A' for Active; 'I' for Inactive)
REMARK    1  A    between atoms: C_2  and  C_17 
REMARK    2  A    between atoms: C_2  and  C_10 
REMARK       I    between atoms: C_9  and  N_13 
REMARK    3  A    between atoms: C_9  and  C_16 
REMARK    4  A    between atoms: C_10  and  N_11 
REMARK    5  A    between atoms: C_12  and  C_18 
REMARK    6  A    between atoms: C_12  and  N_13 
REMARK    7  A    between atoms: N_14  and  C_16 
REMARK    8  A    between atoms: C_16  and  C_17 
ROOT
HETATM    1  C           1     -28.982  -6.478 -18.063  0.00  0.00     0.274 C 
ENDROOT
BRANCH   1   2
HETATM    2  C           1     -27.533  -6.380 -18.474  0.00  0.00     0.248 C 
HETATM    3  O           1     -26.724  -5.888 -17.722  0.00  0.00    -0.271 OA
HETATM    4  N           1     -27.135  -6.848 -19.697  0.00  0.00    -0.349 N 
HETATM    5  H           1     -27.813  -7.259 -20.326  0.00  0.00     0.163 HD
BRANCH   4   6
HETATM    6  C           1     -25.743  -6.753 -20.092  0.00  0.00     0.235 C 
BRANCH   6   7
HETATM    7  C           1     -25.408  -7.887 -21.029  0.00  0.00     0.191 C 
HETATM    8  O           1     -24.219  -8.101 -21.351  0.00  0.00    -0.647 OA
HETATM    9  O           1     -26.319  -8.612 -21.485  0.00  0.00    -0.647 OA
ENDBRANCH   6   7
ENDBRANCH   4   6
ENDBRANCH   1   2
BRANCH   1  10
HETATM   10  N           1     -29.393  -7.920 -18.024  0.00  0.00    -0.067 N 
HETATM   11  H           1     -30.435  -7.985 -18.060  0.00  0.00     0.275 HD
HETATM   12  H           1     -28.984  -8.421 -18.844  0.00  0.00     0.275 HD
HETATM   13  H           1     -29.047  -8.358 -17.141  0.00  0.00     0.275 HD
ENDBRANCH   1  10
BRANCH   1  14
HETATM   14  C           1     -29.161  -5.863 -16.681  0.00  0.00     0.044 C 
BRANCH  14  15
HETATM   15  C           1     -30.452  -5.058 -16.646  0.00  0.00     0.030 C 
BRANCH  15  16
HETATM   16  C           1     -30.344  -3.879 -17.605  0.00  0.00     0.230 C 
BRANCH  16  17
HETATM   17  N           1     -31.645  -3.134 -17.630  0.00  0.00    -0.079 N 
HETATM   18  H           1     -31.727  -2.548 -16.768  0.00  0.00     0.274 HD
HETATM   19  H           1     -31.679  -2.519 -18.474  0.00  0.00     0.274 HD
HETATM   20  H           1     -32.436  -3.816 -17.664  0.00  0.00     0.274 HD
ENDBRANCH  16  17
ENDBRANCH  15  16
ENDBRANCH  14  15
ENDBRANCH   1  14
TORSDOF 8
ENDMDL
MODEL 6
REMARK VINA RESULT:      -5.3      9.805     11.780
REMARK  8 active torsions:
REMARK  status: ('A' for Active; 'I' for Inactive)
REMARK    1  A    between atoms: C_2  and  C_17 
REMARK    2  A    between atoms: C_2  and  C_10 
REMARK       I    between atoms: C_9  and  N_13 
REMARK    3  A    between atoms: C_9  and  C_16 
REMARK    4  A    between atoms: C_10  and  N_11 
REMARK    5  A    between atoms: C_12  and  C_18 
REMARK    6  A    between atoms: C_12  and  N_13 
REMARK    7  A    between atoms: N_14  and  C_16 
REMARK    8  A    between atoms: C_16  and  C_17 
ROOT
HETATM    1  C           1     -20.654  -5.184  -7.384  0.00  0.00     0.274 C 
ENDROOT
BRANCH   1   2
HETATM    2  C           1     -22.077  -4.718  -7.577  0.00  0.00     0.248 C 
HETATM    3  O           1     -22.823  -4.652  -6.630  0.00  0.00    -0.271 OA
HETATM    4  N           1     -22.520  -4.372  -8.825  0.00  0.00    -0.349 N 
HETATM    5  H           1     -21.894  -4.428  -9.618  0.00  0.00     0.163 HD
BRANCH   4   6
HETATM    6  C           1     -23.887  -3.924  -9.010  0.00  0.00     0.235 C 
BRANCH   6   7
HETATM    7  C           1     -24.176  -3.788 -10.485  0.00  0.00     0.191 C 
HETATM    8  O           1     -25.196  -3.173 -10.867  0.00  0.00    -0.647 OA
HETATM    9  O           1     -23.397  -4.288 -11.324  0.00  0.00    -0.647 OA
ENDBRANCH   6   7
ENDBRANCH   4   6
ENDBRANCH   1   2
BRANCH   1  10
HETATM   10  N           1     -19.711  -4.126  -7.876  0.00  0.00    -0.067 N 
HETATM   11  H           1     -18.727  -4.461  -7.767  0.00  0.00     0.275 HD
HETATM   12  H           1     -19.904  -3.928  -8.882  0.00  0.00     0.275 HD
HETATM   13  H           1     -19.845  -3.253  -7.317  0.00  0.00     0.275 HD
ENDBRANCH   1  10
BRANCH   1  14
HETATM   14  C           1     -20.400  -5.442  -5.905  0.00  0.00     0.044 C 
BRANCH  14  15
HETATM   15  C           1     -20.281  -6.940  -5.663  0.00  0.00     0.030 C 
BRANCH  15  16
HETATM   16  C           1     -21.269  -7.363  -4.583  0.00  0.00     0.230 C 
BRANCH  16  17
HETATM   17  N           1     -22.111  -6.186  -4.189  0.00  0.00    -0.079 N 
HETATM   18  H           1     -23.038  -6.521  -3.840  0.00  0.00     0.274 HD
HETATM   19  H           1     -21.629  -5.650  -3.433  0.00  0.00     0.274 HD
HETATM   20  H           1     -22.254  -5.567  -5.018  0.00  0.00     0.274 HD
ENDBRANCH  16  17
ENDBRANCH  15  16
ENDBRANCH  14  15
ENDBRANCH   1  14
TORSDOF 8
ENDMDL
MODEL 7
REMARK VINA RESULT:      -5.2     11.571     13.011
REMARK  8 active torsions:
REMARK  status: ('A' for Active; 'I' for Inactive)
REMARK    1  A    between atoms: C_2  and  C_17 
REMARK    2  A    between atoms: C_2  and  C_10 
REMARK       I    between atoms: C_9  and  N_13 
REMARK    3  A    between atoms: C_9  and  C_16 
REMARK    4  A    between atoms: C_10  and  N_11 
REMARK    5  A    between atoms: C_12  and  C_18 
REMARK    6  A    between atoms: C_12  and  N_13 
REMARK    7  A    between atoms: N_14  and  C_16 
REMARK    8  A    between atoms: C_16  and  C_17 
ROOT
HETATM    1  C           1     -20.540  -4.642  -6.477  0.00  0.00     0.274 C 
ENDROOT
BRANCH   1   2
HETATM    2  C           1     -21.381  -5.587  -5.654  0.00  0.00     0.248 C 
HETATM    3  O           1     -22.584  -5.574  -5.762  0.00  0.00    -0.271 OA
HETATM    4  N           1     -20.780  -6.459  -4.787  0.00  0.00    -0.349 N 
HETATM    5  H           1     -19.772  -6.469  -4.697  0.00  0.00     0.163 HD
BRANCH   4   6
HETATM    6  C           1     -21.588  -7.368  -3.996  0.00  0.00     0.235 C 
BRANCH   6   7
HETATM    7  C           1     -21.643  -6.880  -2.570  0.00  0.00     0.191 C 
HETATM    8  O           1     -20.932  -7.422  -1.696  0.00  0.00    -0.647 OA
HETATM    9  O           1     -22.400  -5.933  -2.261  0.00  0.00    -0.647 OA
ENDBRANCH   6   7
ENDBRANCH   4   6
ENDBRANCH   1   2
BRANCH   1  10
HETATM   10  N           1     -19.699  -5.429  -7.438  0.00  0.00    -0.067 N 
HETATM   11  H           1     -19.659  -6.427  -7.128  0.00  0.00     0.275 HD
HETATM   12  H           1     -20.119  -5.377  -8.392  0.00  0.00     0.275 HD
HETATM   13  H           1     -18.732  -5.034  -7.461  0.00  0.00     0.275 HD
ENDBRANCH   1  10
BRANCH   1  14
HETATM   14  C           1     -21.449  -3.698  -7.254  0.00  0.00     0.044 C 
BRANCH  14  15
HETATM   15  C           1     -21.448  -4.090  -8.726  0.00  0.00     0.030 C 
BRANCH  15  16
HETATM   16  C           1     -22.882  -4.292  -9.200  0.00  0.00     0.230 C 
BRANCH  16  17
HETATM   17  N           1     -23.825  -4.036  -8.062  0.00  0.00    -0.079 N 
HETATM   18  H           1     -23.498  -4.553  -7.215  0.00  0.00     0.274 HD
HETATM   19  H           1     -23.853  -3.012  -7.856  0.00  0.00     0.274 HD
HETATM   20  H           1     -24.782  -4.365  -8.323  0.00  0.00     0.274 HD
ENDBRANCH  16  17
ENDBRANCH  15  16
ENDBRANCH  14  15
ENDBRANCH   1  14
TORSDOF 8
ENDMDL
MODEL 8
REMARK VINA RESULT:      -5.2      9.835     11.739
REMARK  8 active torsions:
REMARK  status: ('A' for Active; 'I' for Inactive)
REMARK    1  A    between atoms: C_2  and  C_17 
REMARK    2  A    between atoms: C_2  and  C_10 
REMARK       I    between atoms: C_9  and  N_13 
REMARK    3  A    between atoms: C_9  and  C_16 
REMARK    4  A    between atoms: C_10  and  N_11 
REMARK    5  A    between atoms: C_12  and  C_18 
REMARK    6  A    between atoms: C_12  and  N_13 
REMARK    7  A    between atoms: N_14  and  C_16 
REMARK    8  A    between atoms: C_16  and  C_17 
ROOT
HETATM    1  C           1     -34.249  -3.781 -11.288  0.00  0.00     0.274 C 
ENDROOT
BRANCH   1   2
HETATM    2  C           1     -35.543  -3.050 -11.020  0.00  0.00     0.248 C 
HETATM    3  O           1     -36.499  -3.654 -10.594  0.00  0.00    -0.271 OA
HETATM    4  N           1     -35.632  -1.706 -11.259  0.00  0.00    -0.349 N 
HETATM    5  H           1     -34.831  -1.201 -11.616  0.00  0.00     0.163 HD
BRANCH   4   6
HETATM    6  C           1     -36.876  -1.005 -11.001  0.00  0.00     0.235 C 
BRANCH   6   7
HETATM    7  C           1     -36.742  -0.194  -9.736  0.00  0.00     0.191 C 
HETATM    8  O           1     -37.126  -0.670  -8.645  0.00  0.00    -0.647 OA
HETATM    9  O           1     -36.249   0.954  -9.778  0.00  0.00    -0.647 OA
ENDBRANCH   6   7
ENDBRANCH   4   6
ENDBRANCH   1   2
BRANCH   1  10
HETATM   10  N           1     -33.095  -2.847 -11.072  0.00  0.00    -0.067 N 
HETATM   11  H           1     -32.219  -3.290 -11.428  0.00  0.00     0.275 HD
HETATM   12  H           1     -33.268  -1.954 -11.585  0.00  0.00     0.275 HD
HETATM   13  H           1     -32.995  -2.648 -10.051  0.00  0.00     0.275 HD
ENDBRANCH   1  10
BRANCH   1  14
HETATM   14  C           1     -34.128  -4.965 -10.339  0.00  0.00     0.044 C 
BRANCH  14  15
HETATM   15  C           1     -34.268  -6.262 -11.124  0.00  0.00     0.030 C 
BRANCH  15  16
HETATM   16  C           1     -34.621  -7.398 -10.172  0.00  0.00     0.230 C 
BRANCH  16  17
HETATM   17  N           1     -33.635  -8.516 -10.342  0.00  0.00    -0.079 N 
HETATM   18  H           1     -33.631  -8.829 -11.338  0.00  0.00     0.274 HD
HETATM   19  H           1     -32.680  -8.182 -10.079  0.00  0.00     0.274 HD
HETATM   20  H           1     -33.906  -9.316  -9.726  0.00  0.00     0.274 HD
ENDBRANCH  16  17
ENDBRANCH  15  16
ENDBRANCH  14  15
ENDBRANCH   1  14
TORSDOF 8
ENDMDL
MODEL 9
REMARK VINA RESULT:      -5.1     12.684     14.202
REMARK  8 active torsions:
REMARK  status: ('A' for Active; 'I' for Inactive)
REMARK    1  A    between atoms: C_2  and  C_17 
REMARK    2  A    between atoms: C_2  and  C_10 
REMARK       I    between atoms: C_9  and  N_13 
REMARK    3  A    between atoms: C_9  and  C_16 
REMARK    4  A    between atoms: C_10  and  N_11 
REMARK    5  A    between atoms: C_12  and  C_18 
REMARK    6  A    between atoms: C_12  and  N_13 
REMARK    7  A    between atoms: N_14  and  C_16 
REMARK    8  A    between atoms: C_16  and  C_17 
ROOT
HETATM    1  C           1     -20.475  -6.388  -5.359  0.00  0.00     0.274 C 
ENDROOT
BRANCH   1   2
HETATM    2  C           1     -21.568  -6.232  -4.329  0.00  0.00     0.248 C 
HETATM    3  O           1     -22.714  -6.084  -4.684  0.00  0.00    -0.271 OA
HETATM    4  N           1     -21.262  -6.258  -2.996  0.00  0.00    -0.349 N 
HETATM    5  H           1     -20.302  -6.382  -2.700  0.00  0.00     0.163 HD
BRANCH   4   6
HETATM    6  C           1     -22.312  -6.108  -2.007  0.00  0.00     0.235 C 
BRANCH   6   7
HETATM    7  C           1     -22.161  -7.171  -0.947  0.00  0.00     0.191 C 
HETATM    8  O           1     -21.110  -7.847  -0.886  0.00  0.00    -0.647 OA
HETATM    9  O           1     -23.084  -7.377  -0.131  0.00  0.00    -0.647 OA
ENDBRANCH   6   7
ENDBRANCH   4   6
ENDBRANCH   1   2
BRANCH   1  10
HETATM   10  N           1     -20.780  -7.567  -6.235  0.00  0.00    -0.067 N 
HETATM   11  H           1     -21.814  -7.712  -6.274  0.00  0.00     0.275 HD
HETATM   12  H           1     -20.415  -7.390  -7.197  0.00  0.00     0.275 HD
HETATM   13  H           1     -20.324  -8.421  -5.841  0.00  0.00     0.275 HD
ENDBRANCH   1  10
BRANCH   1  14
HETATM   14  C           1     -20.398  -5.129  -6.213  0.00  0.00     0.044 C 
BRANCH  14  15
HETATM   15  C           1     -20.704  -5.479  -7.662  0.00  0.00     0.030 C 
BRANCH  15  16
HETATM   16  C           1     -21.701  -4.475  -8.228  0.00  0.00     0.230 C 
BRANCH  16  17
HETATM   17  N           1     -22.842  -4.309  -7.270  0.00  0.00    -0.079 N 
HETATM   18  H           1     -23.526  -5.088  -7.403  0.00  0.00     0.274 HD
HETATM   19  H           1     -22.480  -4.327  -6.290  0.00  0.00     0.274 HD
HETATM   20  H           1     -23.317  -3.395  -7.448  0.00  0.00     0.274 HD
ENDBRANCH  16  17
ENDBRANCH  15  16
ENDBRANCH  14  15
ENDBRANCH   1  14
TORSDOF 8
ENDMDL
