MODEL 1
REMARK VINA RESULT:      -6.9      0.000      0.000
REMARK  10 active torsions:
REMARK  status: ('A' for Active; 'I' for Inactive)
REMARK    1  A    between atoms: C_5  and  C_14 
REMARK    2  A    between atoms: C_7  and  C_15 
REMARK       I    between atoms: C_12  and  N_26 
REMARK    3  A    between atoms: C_12  and  C_13 
REMARK    4  A    between atoms: C_13  and  C_14 
REMARK    5  A    between atoms: C_13  and  N_27 
REMARK    6  A    between atoms: C_15  and  C_25 
REMARK    7  A    between atoms: C_15  and  N_26 
REMARK       I    between atoms: N_17  and  C_18 
REMARK       I    between atoms: C_18  and  N_19 
REMARK    8  A    between atoms: N_20  and  C_21 
REMARK    9  A    between atoms: C_21  and  C_22 
REMARK   10  A    between atoms: C_22  and  C_25 
ROOT
HETATM    1  C           1     -35.840  -0.478 -11.582  0.00  0.00     0.185 C 
ENDROOT
BRANCH   1   2
HETATM    2  C           1     -36.934  -0.136 -10.599  0.00  0.00     0.196 C 
HETATM    3  O           1     -38.014  -0.764 -10.624  0.00  0.00    -0.646 OA
HETATM    4  O           1     -36.758   0.775  -9.761  0.00  0.00    -0.646 OA
ENDBRANCH   1   2
BRANCH   1   5
HETATM    5  C           1     -36.314  -0.170 -12.997  0.00  0.00     0.038 C 
BRANCH   5   6
HETATM    6  C           1     -35.325   0.775 -13.668  0.00  0.00     0.023 C 
BRANCH   6   7
HETATM    7  C           1     -35.422   0.622 -15.179  0.00  0.00     0.138 C 
BRANCH   7   8
HETATM    8  N           1     -34.865  -0.678 -15.578  0.00  0.00    -0.227 N 
HETATM    9  H           1     -34.062  -1.092 -15.042  0.00  0.00     0.177 HD
HETATM   10  C           1     -35.352  -1.299 -16.568  0.00  0.00     0.665 C 
HETATM   11  N           1     -34.860  -2.449 -16.920  0.00  0.00    -0.235 N 
HETATM   12  N           1     -36.319  -0.800 -17.214  0.00  0.00    -0.235 N 
HETATM   13  H           1     -35.262  -2.962 -17.737  0.00  0.00     0.174 HD
HETATM   14  H           1     -34.061  -2.862 -16.387  0.00  0.00     0.174 HD
HETATM   15  H           1     -36.724  -1.315 -18.035  0.00  0.00     0.174 HD
HETATM   16  H           1     -36.717   0.129 -16.929  0.00  0.00     0.174 HD
ENDBRANCH   7   8
ENDBRANCH   6   7
ENDBRANCH   5   6
ENDBRANCH   1   5
BRANCH   1  17
HETATM   17  N           1     -35.519  -1.887 -11.476  0.00  0.00    -0.345 N 
HETATM   18  H           1     -36.186  -2.582 -11.785  0.00  0.00     0.163 HD
HETATM   19  C           1     -34.313  -2.277 -10.958  0.00  0.00     0.249 C 
HETATM   20  O           1     -33.517  -1.447 -10.588  0.00  0.00    -0.271 OA
BRANCH  19  21
HETATM   21  C           1     -33.979  -3.745 -10.847  0.00  0.00     0.284 C 
BRANCH  21  22
HETATM   22  C           1     -33.271  -4.202 -12.116  0.00  0.00     0.155 C 
BRANCH  22  23
HETATM   23  C           1     -34.262  -4.262 -13.252  0.00  0.00     0.175 C 
HETATM   24  O           1     -35.017  -5.251 -13.371  0.00  0.00    -0.648 OA
HETATM   25  O           1     -34.330  -3.321 -14.073  0.00  0.00    -0.648 OA
ENDBRANCH  22  23
ENDBRANCH  21  22
BRANCH  21  26
HETATM   26  N           1     -35.243  -4.533 -10.669  0.00  0.00    -0.066 N 
HETATM   27  H           1     -35.047  -5.547 -10.829  0.00  0.00     0.275 HD
HETATM   28  H           1     -35.604  -4.395  -9.698  0.00  0.00     0.275 HD
HETATM   29  H           1     -35.957  -4.204 -11.357  0.00  0.00     0.275 HD
ENDBRANCH  21  26
ENDBRANCH  19  21
ENDBRANCH   1  17
TORSDOF 10
ENDMDL
MODEL 2
REMARK VINA RESULT:      -6.9      9.043     11.045
REMARK  10 active torsions:
REMARK  status: ('A' for Active; 'I' for Inactive)
REMARK    1  A    between atoms: C_5  and  C_14 
REMARK    2  A    between atoms: C_7  and  C_15 
REMARK       I    between atoms: C_12  and  N_26 
REMARK    3  A    between atoms: C_12  and  C_13 
REMARK    4  A    between atoms: C_13  and  C_14 
REMARK    5  A    between atoms: C_13  and  N_27 
REMARK    6  A    between atoms: C_15  and  C_25 
REMARK    7  A    between atoms: C_15  and  N_26 
REMARK       I    between atoms: N_17  and  C_18 
REMARK       I    between atoms: C_18  and  N_19 
REMARK    8  A    between atoms: N_20  and  C_21 
REMARK    9  A    between atoms: C_21  and  C_22 
REMARK   10  A    between atoms: C_22  and  C_25 
ROOT
HETATM    1  C           1     -28.694  -6.417 -18.233  0.00  0.00     0.185 C 
ENDROOT
BRANCH   1   2
HETATM    2  C           1     -29.746  -7.483 -18.423  0.00  0.00     0.196 C 
HETATM    3  O           1     -29.494  -8.492 -19.116  0.00  0.00    -0.646 OA
HETATM    4  O           1     -30.868  -7.356 -17.888  0.00  0.00    -0.646 OA
ENDBRANCH   1   2
BRANCH   1   5
HETATM    5  C           1     -29.253  -5.068 -18.669  0.00  0.00     0.038 C 
BRANCH   5   6
HETATM    6  C           1     -29.416  -4.169 -17.451  0.00  0.00     0.023 C 
BRANCH   6   7
HETATM    7  C           1     -30.807  -3.550 -17.457  0.00  0.00     0.138 C 
BRANCH   7   8
HETATM    8  N           1     -31.724  -4.398 -16.682  0.00  0.00    -0.227 N 
HETATM    9  H           1     -31.350  -5.212 -16.134  0.00  0.00     0.177 HD
HETATM   10  C           1     -32.965  -4.147 -16.675  0.00  0.00     0.665 C 
HETATM   11  N           1     -33.776  -4.897 -15.989  0.00  0.00    -0.235 N 
HETATM   12  N           1     -33.415  -3.166 -17.335  0.00  0.00    -0.235 N 
HETATM   13  H           1     -34.800  -4.690 -15.983  0.00  0.00     0.174 HD
HETATM   14  H           1     -33.404  -5.707 -15.444  0.00  0.00     0.174 HD
HETATM   15  H           1     -34.445  -2.958 -17.330  0.00  0.00     0.174 HD
HETATM   16  H           1     -32.760  -2.561 -17.889  0.00  0.00     0.174 HD
ENDBRANCH   7   8
ENDBRANCH   6   7
ENDBRANCH   5   6
ENDBRANCH   1   5
BRANCH   1  17
HETATM   17  N           1     -27.530  -6.738 -19.034  0.00  0.00    -0.345 N 
HETATM   18  H           1     -27.645  -7.149 -19.951  0.00  0.00     0.163 HD
HETATM   19  C           1     -26.275  -6.487 -18.547  0.00  0.00     0.249 C 
HETATM   20  O           1     -26.138  -5.998 -17.452  0.00  0.00    -0.271 OA
BRANCH  19  21
HETATM   21  C           1     -25.062  -6.823 -19.381  0.00  0.00     0.284 C 
BRANCH  21  22
HETATM   22  C           1     -25.486  -7.651 -20.587  0.00  0.00     0.155 C 
BRANCH  22  23
HETATM   23  C           1     -24.300  -7.862 -21.495  0.00  0.00     0.175 C 
HETATM   24  O           1     -23.355  -8.594 -21.130  0.00  0.00    -0.648 OA
HETATM   25  O           1     -24.263  -7.305 -22.615  0.00  0.00    -0.648 OA
ENDBRANCH  22  23
ENDBRANCH  21  22
BRANCH  21  26
HETATM   26  N           1     -24.089  -7.609 -18.552  0.00  0.00    -0.066 N 
HETATM   27  H           1     -24.607  -8.323 -17.992  0.00  0.00     0.275 HD
HETATM   28  H           1     -23.405  -8.087 -19.181  0.00  0.00     0.275 HD
HETATM   29  H           1     -23.580  -6.963 -17.908  0.00  0.00     0.275 HD
ENDBRANCH  21  26
ENDBRANCH  19  21
ENDBRANCH   1  17
TORSDOF 10
ENDMDL
MODEL 3
REMARK VINA RESULT:      -6.4      9.881     12.090
REMARK  10 active torsions:
REMARK  status: ('A' for Active; 'I' for Inactive)
REMARK    1  A    between atoms: C_5  and  C_14 
REMARK    2  A    between atoms: C_7  and  C_15 
REMARK       I    between atoms: C_12  and  N_26 
REMARK    3  A    between atoms: C_12  and  C_13 
REMARK    4  A    between atoms: C_13  and  C_14 
REMARK    5  A    between atoms: C_13  and  N_27 
REMARK    6  A    between atoms: C_15  and  C_25 
REMARK    7  A    between atoms: C_15  and  N_26 
REMARK       I    between atoms: N_17  and  C_18 
REMARK       I    between atoms: C_18  and  N_19 
REMARK    8  A    between atoms: N_20  and  C_21 
REMARK    9  A    between atoms: C_21  and  C_22 
REMARK   10  A    between atoms: C_22  and  C_25 
ROOT
HETATM    1  C           1     -26.211  -7.012 -17.539  0.00  0.00     0.185 C 
ENDROOT
BRANCH   1   2
HETATM    2  C           1     -25.653  -6.661 -16.181  0.00  0.00     0.196 C 
HETATM    3  O           1     -25.640  -7.517 -15.271  0.00  0.00    -0.646 OA
HETATM    4  O           1     -25.202  -5.515 -15.968  0.00  0.00    -0.646 OA
ENDBRANCH   1   2
BRANCH   1   5
HETATM    5  C           1     -25.163  -6.731 -18.608  0.00  0.00     0.038 C 
BRANCH   5   6
HETATM    6  C           1     -25.831  -6.696 -19.976  0.00  0.00     0.023 C 
BRANCH   6   7
HETATM    7  C           1     -25.305  -7.841 -20.830  0.00  0.00     0.138 C 
BRANCH   7   8
HETATM    8  N           1     -23.928  -8.160 -20.428  0.00  0.00    -0.227 N 
HETATM    9  H           1     -23.658  -8.135 -19.413  0.00  0.00     0.177 HD
HETATM   10  C           1     -23.067  -8.465 -21.304  0.00  0.00     0.665 C 
HETATM   11  N           1     -21.849  -8.747 -20.949  0.00  0.00    -0.235 N 
HETATM   12  N           1     -23.393  -8.495 -22.527  0.00  0.00    -0.235 N 
HETATM   13  H           1     -21.138  -8.999 -21.672  0.00  0.00     0.174 HD
HETATM   14  H           1     -21.579  -8.722 -19.939  0.00  0.00     0.174 HD
HETATM   15  H           1     -22.679  -8.748 -23.255  0.00  0.00     0.174 HD
HETATM   16  H           1     -24.377  -8.267 -22.814  0.00  0.00     0.174 HD
ENDBRANCH   7   8
ENDBRANCH   6   7
ENDBRANCH   5   6
ENDBRANCH   1   5
BRANCH   1  17
HETATM   17  N           1     -27.391  -6.209 -17.797  0.00  0.00    -0.345 N 
HETATM   18  H           1     -27.317  -5.363 -18.347  0.00  0.00     0.163 HD
HETATM   19  C           1     -28.605  -6.597 -17.296  0.00  0.00     0.249 C 
HETATM   20  O           1     -28.693  -7.606 -16.639  0.00  0.00    -0.271 OA
BRANCH  19  21
HETATM   21  C           1     -29.833  -5.761 -17.564  0.00  0.00     0.284 C 
BRANCH  21  22
HETATM   22  C           1     -29.436  -4.502 -18.323  0.00  0.00     0.155 C 
BRANCH  22  23
HETATM   23  C           1     -29.160  -3.389 -17.342  0.00  0.00     0.175 C 
HETATM   24  O           1     -29.935  -2.410 -17.274  0.00  0.00    -0.648 OA
HETATM   25  O           1     -28.158  -3.446 -16.596  0.00  0.00    -0.648 OA
ENDBRANCH  22  23
ENDBRANCH  21  22
BRANCH  21  26
HETATM   26  N           1     -30.470  -5.378 -16.261  0.00  0.00    -0.066 N 
HETATM   27  H           1     -29.762  -4.913 -15.650  0.00  0.00     0.275 HD
HETATM   28  H           1     -31.262  -4.720 -16.442  0.00  0.00     0.275 HD
HETATM   29  H           1     -30.830  -6.236 -15.785  0.00  0.00     0.275 HD
ENDBRANCH  21  26
ENDBRANCH  19  21
ENDBRANCH   1  17
TORSDOF 10
ENDMDL
MODEL 4
REMARK VINA RESULT:      -6.0     13.913     16.953
REMARK  10 active torsions:
REMARK  status: ('A' for Active; 'I' for Inactive)
REMARK    1  A    between atoms: C_5  and  C_14 
REMARK    2  A    between atoms: C_7  and  C_15 
REMARK       I    between atoms: C_12  and  N_26 
REMARK    3  A    between atoms: C_12  and  C_13 
REMARK    4  A    between atoms: C_13  and  C_14 
REMARK    5  A    between atoms: C_13  and  N_27 
REMARK    6  A    between atoms: C_15  and  C_25 
REMARK    7  A    between atoms: C_15  and  N_26 
REMARK       I    between atoms: N_17  and  C_18 
REMARK       I    between atoms: C_18  and  N_19 
REMARK    8  A    between atoms: N_20  and  C_21 
REMARK    9  A    between atoms: C_21  and  C_22 
REMARK   10  A    between atoms: C_22  and  C_25 
ROOT
HETATM    1  C           1     -21.225  -5.985  -5.499  0.00  0.00     0.185 C 
ENDROOT
BRANCH   1   2
HETATM    2  C           1     -20.626  -7.278  -5.996  0.00  0.00     0.196 C 
HETATM    3  O           1     -19.482  -7.284  -6.499  0.00  0.00    -0.646 OA
HETATM    4  O           1     -21.275  -8.342  -5.905  0.00  0.00    -0.646 OA
ENDBRANCH   1   2
BRANCH   1   5
HETATM    5  C           1     -22.175  -6.276  -4.343  0.00  0.00     0.038 C 
BRANCH   5   6
HETATM    6  C           1     -21.454  -6.041  -3.023  0.00  0.00     0.023 C 
BRANCH   6   7
HETATM    7  C           1     -21.487  -7.315  -2.191  0.00  0.00     0.138 C 
BRANCH   7   8
HETATM    8  N           1     -22.363  -7.119  -1.027  0.00  0.00    -0.227 N 
HETATM    9  H           1     -22.725  -6.159  -0.798  0.00  0.00     0.177 HD
HETATM   10  C           1     -22.681  -8.105  -0.300  0.00  0.00     0.665 C 
HETATM   11  N           1     -23.456  -7.931   0.729  0.00  0.00    -0.235 N 
HETATM   12  N           1     -22.245  -9.261  -0.577  0.00  0.00    -0.235 N 
HETATM   13  H           1     -23.719  -8.746   1.329  0.00  0.00     0.174 HD
HETATM   14  H           1     -23.816  -6.977   0.957  0.00  0.00     0.174 HD
HETATM   15  H           1     -22.509 -10.080   0.026  0.00  0.00     0.174 HD
HETATM   16  H           1     -21.620  -9.401  -1.408  0.00  0.00     0.174 HD
ENDBRANCH   7   8
ENDBRANCH   6   7
ENDBRANCH   5   6
ENDBRANCH   1   5
BRANCH   1  17
HETATM   17  N           1     -21.956  -5.346  -6.575  0.00  0.00    -0.345 N 
HETATM   18  H           1     -22.908  -5.625  -6.776  0.00  0.00     0.163 HD
HETATM   19  C           1     -21.359  -4.365  -7.319  0.00  0.00     0.249 C 
HETATM   20  O           1     -20.222  -4.032  -7.080  0.00  0.00    -0.271 OA
BRANCH  19  21
HETATM   21  C           1     -22.119  -3.699  -8.441  0.00  0.00     0.284 C 
BRANCH  21  22
HETATM   22  C           1     -23.509  -4.314  -8.548  0.00  0.00     0.155 C 
BRANCH  22  23
HETATM   23  C           1     -24.242  -3.701  -9.715  0.00  0.00     0.175 C 
HETATM   24  O           1     -25.120  -2.834  -9.517  0.00  0.00    -0.648 OA
HETATM   25  O           1     -23.970  -4.060 -10.882  0.00  0.00    -0.648 OA
ENDBRANCH  22  23
ENDBRANCH  21  22
BRANCH  21  26
HETATM   26  N           1     -21.383  -3.902  -9.732  0.00  0.00    -0.066 N 
HETATM   27  H           1     -21.986  -3.596 -10.529  0.00  0.00     0.275 HD
HETATM   28  H           1     -20.504  -3.338  -9.723  0.00  0.00     0.275 HD
HETATM   29  H           1     -21.148  -4.914  -9.843  0.00  0.00     0.275 HD
ENDBRANCH  21  26
ENDBRANCH  19  21
ENDBRANCH   1  17
TORSDOF 10
ENDMDL
MODEL 5
REMARK VINA RESULT:      -5.8     14.271     17.274
REMARK  10 active torsions:
REMARK  status: ('A' for Active; 'I' for Inactive)
REMARK    1  A    between atoms: C_5  and  C_14 
REMARK    2  A    between atoms: C_7  and  C_15 
REMARK       I    between atoms: C_12  and  N_26 
REMARK    3  A    between atoms: C_12  and  C_13 
REMARK    4  A    between atoms: C_13  and  C_14 
REMARK    5  A    between atoms: C_13  and  N_27 
REMARK    6  A    between atoms: C_15  and  C_25 
REMARK    7  A    between atoms: C_15  and  N_26 
REMARK       I    between atoms: N_17  and  C_18 
REMARK       I    between atoms: C_18  and  N_19 
REMARK    8  A    between atoms: N_20  and  C_21 
REMARK    9  A    between atoms: C_21  and  C_22 
REMARK   10  A    between atoms: C_22  and  C_25 
ROOT
HETATM    1  C           1     -21.155  -6.303  -5.389  0.00  0.00     0.185 C 
ENDROOT
BRANCH   1   2
HETATM    2  C           1     -20.545  -7.650  -5.688  0.00  0.00     0.196 C 
HETATM    3  O           1     -19.336  -7.736  -5.992  0.00  0.00    -0.646 OA
HETATM    4  O           1     -21.250  -8.681  -5.631  0.00  0.00    -0.646 OA
ENDBRANCH   1   2
BRANCH   1   5
HETATM    5  C           1     -22.069  -6.416  -4.175  0.00  0.00     0.038 C 
BRANCH   5   6
HETATM    6  C           1     -21.272  -6.123  -2.911  0.00  0.00     0.023 C 
BRANCH   6   7
HETATM    7  C           1     -21.287  -7.347  -2.006  0.00  0.00     0.138 C 
BRANCH   7   8
HETATM    8  N           1     -22.273  -7.152  -0.933  0.00  0.00    -0.227 N 
HETATM    9  H           1     -22.650  -6.192  -0.735  0.00  0.00     0.177 HD
HETATM   10  C           1     -22.667  -8.141  -0.249  0.00  0.00     0.665 C 
HETATM   11  N           1     -23.540  -7.969   0.700  0.00  0.00    -0.235 N 
HETATM   12  N           1     -22.213  -9.298  -0.488  0.00  0.00    -0.235 N 
HETATM   13  H           1     -23.866  -8.785   1.265  0.00  0.00     0.174 HD
HETATM   14  H           1     -23.915  -7.014   0.898  0.00  0.00     0.174 HD
HETATM   15  H           1     -22.540 -10.119   0.079  0.00  0.00     0.174 HD
HETATM   16  H           1     -21.508  -9.437  -1.255  0.00  0.00     0.174 HD
ENDBRANCH   7   8
ENDBRANCH   6   7
ENDBRANCH   5   6
ENDBRANCH   1   5
BRANCH   1  17
HETATM   17  N           1     -21.926  -5.857  -6.533  0.00  0.00    -0.345 N 
HETATM   18  H           1     -22.912  -6.076  -6.596  0.00  0.00     0.163 HD
HETATM   19  C           1     -21.319  -5.140  -7.529  0.00  0.00     0.249 C 
HETATM   20  O           1     -20.142  -4.878  -7.455  0.00  0.00    -0.271 OA
BRANCH  19  21
HETATM   21  C           1     -22.121  -4.676  -8.721  0.00  0.00     0.284 C 
BRANCH  21  22
HETATM   22  C           1     -21.200  -3.974  -9.711  0.00  0.00     0.155 C 
BRANCH  22  23
HETATM   23  C           1     -21.986  -3.584 -10.939  0.00  0.00     0.175 C 
HETATM   24  O           1     -23.069  -4.152 -11.194  0.00  0.00    -0.648 OA
HETATM   25  O           1     -21.553  -2.690 -11.700  0.00  0.00    -0.648 OA
ENDBRANCH  22  23
ENDBRANCH  21  22
BRANCH  21  26
HETATM   26  N           1     -23.184  -3.721  -8.266  0.00  0.00    -0.066 N 
HETATM   27  H           1     -22.836  -2.740  -8.362  0.00  0.00     0.275 HD
HETATM   28  H           1     -24.039  -3.847  -8.853  0.00  0.00     0.275 HD
HETATM   29  H           1     -23.417  -3.911  -7.265  0.00  0.00     0.275 HD
ENDBRANCH  21  26
ENDBRANCH  19  21
ENDBRANCH   1  17
TORSDOF 10
ENDMDL
MODEL 6
REMARK VINA RESULT:      -5.6     25.037     26.358
REMARK  10 active torsions:
REMARK  status: ('A' for Active; 'I' for Inactive)
REMARK    1  A    between atoms: C_5  and  C_14 
REMARK    2  A    between atoms: C_7  and  C_15 
REMARK       I    between atoms: C_12  and  N_26 
REMARK    3  A    between atoms: C_12  and  C_13 
REMARK    4  A    between atoms: C_13  and  C_14 
REMARK    5  A    between atoms: C_13  and  N_27 
REMARK    6  A    between atoms: C_15  and  C_25 
REMARK    7  A    between atoms: C_15  and  N_26 
REMARK       I    between atoms: N_17  and  C_18 
REMARK       I    between atoms: C_18  and  N_19 
REMARK    8  A    between atoms: N_20  and  C_21 
REMARK    9  A    between atoms: C_21  and  C_22 
REMARK   10  A    between atoms: C_22  and  C_25 
ROOT
HETATM    1  C           1     -10.236   5.223 -20.573  0.00  0.00     0.185 C 
ENDROOT
BRANCH   1   2
HETATM    2  C           1     -10.679   5.414 -19.142  0.00  0.00     0.196 C 
HETATM    3  O           1     -11.805   5.015 -18.778  0.00  0.00    -0.646 OA
HETATM    4  O           1      -9.917   5.972 -18.323  0.00  0.00    -0.646 OA
ENDBRANCH   1   2
BRANCH   1   5
HETATM    5  C           1      -9.436   6.439 -21.024  0.00  0.00     0.038 C 
BRANCH   5   6
HETATM    6  C           1     -10.300   7.308 -21.928  0.00  0.00     0.023 C 
BRANCH   6   7
HETATM    7  C           1     -10.277   8.745 -21.426  0.00  0.00     0.138 C 
BRANCH   7   8
HETATM    8  N           1      -9.738   8.778 -20.059  0.00  0.00    -0.227 N 
HETATM    9  H           1      -8.728   8.545 -19.886  0.00  0.00     0.177 HD
HETATM   10  C           1     -10.490   9.088 -19.089  0.00  0.00     0.665 C 
HETATM   11  N           1     -10.014   9.118 -17.880  0.00  0.00    -0.235 N 
HETATM   12  N           1     -11.707   9.370 -19.298  0.00  0.00    -0.235 N 
HETATM   13  H           1     -10.635   9.374 -17.079  0.00  0.00     0.174 HD
HETATM   14  H           1      -9.010   8.886 -17.708  0.00  0.00     0.174 HD
HETATM   15  H           1     -12.332   9.627 -18.493  0.00  0.00     0.174 HD
HETATM   16  H           1     -12.091   9.346 -20.274  0.00  0.00     0.174 HD
ENDBRANCH   7   8
ENDBRANCH   6   7
ENDBRANCH   5   6
ENDBRANCH   1   5
BRANCH   1  17
HETATM   17  N           1     -11.401   5.069 -21.422  0.00  0.00    -0.345 N 
HETATM   18  H           1     -11.917   5.885 -21.724  0.00  0.00     0.163 HD
HETATM   19  C           1     -11.801   3.821 -21.815  0.00  0.00     0.249 C 
HETATM   20  O           1     -11.184   2.847 -21.454  0.00  0.00    -0.271 OA
BRANCH  19  21
HETATM   21  C           1     -13.014   3.660 -22.699  0.00  0.00     0.284 C 
BRANCH  21  22
HETATM   22  C           1     -13.680   5.015 -22.899  0.00  0.00     0.155 C 
BRANCH  22  23
HETATM   23  C           1     -14.807   5.173 -21.908  0.00  0.00     0.175 C 
HETATM   24  O           1     -15.994   5.105 -22.296  0.00  0.00    -0.648 OA
HETATM   25  O           1     -14.554   5.369 -20.699  0.00  0.00    -0.648 OA
ENDBRANCH  22  23
ENDBRANCH  21  22
BRANCH  21  26
HETATM   26  N           1     -13.984   2.718 -22.049  0.00  0.00    -0.066 N 
HETATM   27  H           1     -14.236   3.077 -21.101  0.00  0.00     0.275 HD
HETATM   28  H           1     -14.845   2.646 -22.636  0.00  0.00     0.275 HD
HETATM   29  H           1     -13.544   1.774 -21.958  0.00  0.00     0.275 HD
ENDBRANCH  21  26
ENDBRANCH  19  21
ENDBRANCH   1  17
TORSDOF 10
ENDMDL
MODEL 7
REMARK VINA RESULT:      -5.6     14.130     16.089
REMARK  10 active torsions:
REMARK  status: ('A' for Active; 'I' for Inactive)
REMARK    1  A    between atoms: C_5  and  C_14 
REMARK    2  A    between atoms: C_7  and  C_15 
REMARK       I    between atoms: C_12  and  N_26 
REMARK    3  A    between atoms: C_12  and  C_13 
REMARK    4  A    between atoms: C_13  and  C_14 
REMARK    5  A    between atoms: C_13  and  N_27 
REMARK    6  A    between atoms: C_15  and  C_25 
REMARK    7  A    between atoms: C_15  and  N_26 
REMARK       I    between atoms: N_17  and  C_18 
REMARK       I    between atoms: C_18  and  N_19 
REMARK    8  A    between atoms: N_20  and  C_21 
REMARK    9  A    between atoms: C_21  and  C_22 
REMARK   10  A    between atoms: C_22  and  C_25 
ROOT
HETATM    1  C           1     -21.218  -4.991  -7.343  0.00  0.00     0.185 C 
ENDROOT
BRANCH   1   2
HETATM    2  C           1     -19.880  -4.825  -8.021  0.00  0.00     0.196 C 
HETATM    3  O           1     -18.851  -4.638  -7.337  0.00  0.00    -0.646 OA
HETATM    4  O           1     -19.802  -4.876  -9.268  0.00  0.00    -0.646 OA
ENDBRANCH   1   2
BRANCH   1   5
HETATM    5  C           1     -22.094  -3.782  -7.645  0.00  0.00     0.038 C 
BRANCH   5   6
HETATM    6  C           1     -23.439  -4.253  -8.183  0.00  0.00     0.023 C 
BRANCH   6   7
HETATM    7  C           1     -23.398  -4.280  -9.704  0.00  0.00     0.138 C 
BRANCH   7   8
HETATM    8  N           1     -22.355  -3.362 -10.183  0.00  0.00    -0.227 N 
HETATM    9  H           1     -22.153  -2.475  -9.656  0.00  0.00     0.177 HD
HETATM   10  C           1     -21.700  -3.639 -11.230  0.00  0.00     0.665 C 
HETATM   11  N           1     -20.777  -2.827 -11.654  0.00  0.00    -0.235 N 
HETATM   12  N           1     -21.943  -4.706 -11.865  0.00  0.00    -0.235 N 
HETATM   13  H           1     -20.236  -3.055 -12.518  0.00  0.00     0.174 HD
HETATM   14  H           1     -20.576  -1.945 -11.130  0.00  0.00     0.174 HD
HETATM   15  H           1     -21.400  -4.937 -12.734  0.00  0.00     0.174 HD
HETATM   16  H           1     -22.689  -5.362 -11.523  0.00  0.00     0.174 HD
ENDBRANCH   7   8
ENDBRANCH   6   7
ENDBRANCH   5   6
ENDBRANCH   1   5
BRANCH   1  17
HETATM   17  N           1     -21.022  -5.099  -5.910  0.00  0.00    -0.345 N 
HETATM   18  H           1     -20.721  -4.293  -5.379  0.00  0.00     0.163 HD
HETATM   19  C           1     -21.246  -6.293  -5.278  0.00  0.00     0.249 C 
HETATM   20  O           1     -21.606  -7.255  -5.913  0.00  0.00    -0.271 OA
BRANCH  19  21
HETATM   21  C           1     -21.042  -6.406  -3.786  0.00  0.00     0.284 C 
BRANCH  21  22
HETATM   22  C           1     -20.530  -7.800  -3.447  0.00  0.00     0.155 C 
BRANCH  22  23
HETATM   23  C           1     -21.143  -8.259  -2.147  0.00  0.00     0.175 C 
HETATM   24  O           1     -22.041  -9.127  -2.152  0.00  0.00    -0.648 OA
HETATM   25  O           1     -20.751  -7.771  -1.064  0.00  0.00    -0.648 OA
ENDBRANCH  22  23
ENDBRANCH  21  22
BRANCH  21  26
HETATM   26  N           1     -22.347  -6.169  -3.085  0.00  0.00    -0.066 N 
HETATM   27  H           1     -22.786  -7.087  -2.846  0.00  0.00     0.275 HD
HETATM   28  H           1     -22.177  -5.625  -2.209  0.00  0.00     0.275 HD
HETATM   29  H           1     -22.986  -5.631  -3.712  0.00  0.00     0.275 HD
ENDBRANCH  21  26
ENDBRANCH  19  21
ENDBRANCH   1  17
TORSDOF 10
ENDMDL
MODEL 8
REMARK VINA RESULT:      -5.5     15.012     16.963
REMARK  10 active torsions:
REMARK  status: ('A' for Active; 'I' for Inactive)
REMARK    1  A    between atoms: C_5  and  C_14 
REMARK    2  A    between atoms: C_7  and  C_15 
REMARK       I    between atoms: C_12  and  N_26 
REMARK    3  A    between atoms: C_12  and  C_13 
REMARK    4  A    between atoms: C_13  and  C_14 
REMARK    5  A    between atoms: C_13  and  N_27 
REMARK    6  A    between atoms: C_15  and  C_25 
REMARK    7  A    between atoms: C_15  and  N_26 
REMARK       I    between atoms: N_17  and  C_18 
REMARK       I    between atoms: C_18  and  N_19 
REMARK    8  A    between atoms: N_20  and  C_21 
REMARK    9  A    between atoms: C_21  and  C_22 
REMARK   10  A    between atoms: C_22  and  C_25 
ROOT
HETATM    1  C           1     -20.701  -6.767  -5.535  0.00  0.00     0.185 C 
ENDROOT
BRANCH   1   2
HETATM    2  C           1     -21.853  -6.239  -4.715  0.00  0.00     0.196 C 
HETATM    3  O           1     -22.973  -6.072  -5.244  0.00  0.00    -0.646 OA
HETATM    4  O           1     -21.686  -5.970  -3.506  0.00  0.00    -0.646 OA
ENDBRANCH   1   2
BRANCH   1   5
HETATM    5  C           1     -20.688  -6.079  -6.895  0.00  0.00     0.038 C 
BRANCH   5   6
HETATM    6  C           1     -20.127  -4.671  -6.746  0.00  0.00     0.023 C 
BRANCH   6   7
HETATM    7  C           1     -21.187  -3.655  -7.144  0.00  0.00     0.138 C 
BRANCH   7   8
HETATM    8  N           1     -21.707  -3.985  -8.479  0.00  0.00    -0.227 N 
HETATM    9  H           1     -21.053  -4.028  -9.300  0.00  0.00     0.177 HD
HETATM   10  C           1     -22.941  -4.216  -8.639  0.00  0.00     0.665 C 
HETATM   11  N           1     -23.400  -4.508  -9.819  0.00  0.00    -0.235 N 
HETATM   12  N           1     -23.727  -4.164  -7.649  0.00  0.00    -0.235 N 
HETATM   13  H           1     -24.419  -4.700  -9.952  0.00  0.00     0.174 HD
HETATM   14  H           1     -22.750  -4.551 -10.637  0.00  0.00     0.174 HD
HETATM   15  H           1     -24.752  -4.357  -7.781  0.00  0.00     0.174 HD
HETATM   16  H           1     -23.357  -3.929  -6.695  0.00  0.00     0.174 HD
ENDBRANCH   7   8
ENDBRANCH   6   7
ENDBRANCH   5   6
ENDBRANCH   1   5
BRANCH   1  17
HETATM   17  N           1     -20.855  -8.196  -5.720  0.00  0.00    -0.345 N 
HETATM   18  H           1     -21.547  -8.552  -6.367  0.00  0.00     0.163 HD
HETATM   19  C           1     -20.063  -9.065  -5.017  0.00  0.00     0.249 C 
HETATM   20  O           1     -19.237  -8.641  -4.245  0.00  0.00    -0.271 OA
BRANCH  19  21
HETATM   21  C           1     -20.223 -10.554  -5.208  0.00  0.00     0.284 C 
BRANCH  21  22
HETATM   22  C           1     -18.867 -11.176  -5.516  0.00  0.00     0.155 C 
BRANCH  22  23
HETATM   23  C           1     -18.993 -12.097  -6.704  0.00  0.00     0.175 C 
HETATM   24  O           1     -19.293 -13.299  -6.534  0.00  0.00    -0.648 OA
HETATM   25  O           1     -18.799 -11.659  -7.859  0.00  0.00    -0.648 OA
ENDBRANCH  22  23
ENDBRANCH  21  22
BRANCH  21  26
HETATM   26  N           1     -21.161 -10.813  -6.350  0.00  0.00    -0.066 N 
HETATM   27  H           1     -20.909 -11.716  -6.810  0.00  0.00     0.275 HD
HETATM   28  H           1     -22.140 -10.866  -5.990  0.00  0.00     0.275 HD
HETATM   29  H           1     -21.086 -10.036  -7.045  0.00  0.00     0.275 HD
ENDBRANCH  21  26
ENDBRANCH  19  21
ENDBRANCH   1  17
TORSDOF 10
ENDMDL
MODEL 9
REMARK VINA RESULT:      -5.5     15.329     17.720
REMARK  10 active torsions:
REMARK  status: ('A' for Active; 'I' for Inactive)
REMARK    1  A    between atoms: C_5  and  C_14 
REMARK    2  A    between atoms: C_7  and  C_15 
REMARK       I    between atoms: C_12  and  N_26 
REMARK    3  A    between atoms: C_12  and  C_13 
REMARK    4  A    between atoms: C_13  and  C_14 
REMARK    5  A    between atoms: C_13  and  N_27 
REMARK    6  A    between atoms: C_15  and  C_25 
REMARK    7  A    between atoms: C_15  and  N_26 
REMARK       I    between atoms: N_17  and  C_18 
REMARK       I    between atoms: C_18  and  N_19 
REMARK    8  A    between atoms: N_20  and  C_21 
REMARK    9  A    between atoms: C_21  and  C_22 
REMARK   10  A    between atoms: C_22  and  C_25 
ROOT
HETATM    1  C           1     -21.040  -8.069  -4.213  0.00  0.00     0.185 C 
ENDROOT
BRANCH   1   2
HETATM    2  C           1     -19.689  -8.417  -4.788  0.00  0.00     0.196 C 
HETATM    3  O           1     -18.820  -8.949  -4.065  0.00  0.00    -0.646 OA
HETATM    4  O           1     -19.439  -8.173  -5.989  0.00  0.00    -0.646 OA
ENDBRANCH   1   2
BRANCH   1   5
HETATM    5  C           1     -21.266  -6.566  -4.319  0.00  0.00     0.038 C 
BRANCH   5   6
HETATM    6  C           1     -22.315  -6.284  -5.386  0.00  0.00     0.023 C 
BRANCH   6   7
HETATM    7  C           1     -21.809  -5.195  -6.321  0.00  0.00     0.138 C 
BRANCH   7   8
HETATM    8  N           1     -22.951  -4.449  -6.869  0.00  0.00    -0.227 N 
HETATM    9  H           1     -23.676  -4.049  -6.222  0.00  0.00     0.177 HD
HETATM   10  C           1     -23.062  -4.289  -8.120  0.00  0.00     0.665 C 
HETATM   11  N           1     -24.072  -3.630  -8.604  0.00  0.00    -0.235 N 
HETATM   12  N           1     -22.189  -4.772  -8.899  0.00  0.00    -0.235 N 
HETATM   13  H           1     -24.164  -3.498  -9.637  0.00  0.00     0.174 HD
HETATM   14  H           1     -24.793  -3.231  -7.961  0.00  0.00     0.174 HD
HETATM   15  H           1     -22.281  -4.640  -9.937  0.00  0.00     0.174 HD
HETATM   16  H           1     -21.373  -5.305  -8.508  0.00  0.00     0.174 HD
ENDBRANCH   7   8
ENDBRANCH   6   7
ENDBRANCH   5   6
ENDBRANCH   1   5
BRANCH   1  17
HETATM   17  N           1     -21.090  -8.468  -2.821  0.00  0.00    -0.345 N 
HETATM   18  H           1     -20.619  -7.913  -2.118  0.00  0.00     0.163 HD
HETATM   19  C           1     -21.774  -9.597  -2.457  0.00  0.00     0.249 C 
HETATM   20  O           1     -22.336 -10.260  -3.296  0.00  0.00    -0.271 OA
BRANCH  19  21
HETATM   21  C           1     -21.825 -10.013  -1.007  0.00  0.00     0.284 C 
BRANCH  21  22
HETATM   22  C           1     -23.062  -9.415  -0.349  0.00  0.00     0.155 C 
BRANCH  22  23
HETATM   23  C           1     -22.732  -8.046   0.193  0.00  0.00     0.175 C 
HETATM   24  O           1     -22.808  -7.044  -0.550  0.00  0.00    -0.648 OA
HETATM   25  O           1     -22.383  -7.915   1.387  0.00  0.00    -0.648 OA
ENDBRANCH  22  23
ENDBRANCH  21  22
BRANCH  21  26
HETATM   26  N           1     -20.597  -9.519  -0.302  0.00  0.00    -0.066 N 
HETATM   27  H           1     -20.830  -9.302   0.693  0.00  0.00     0.275 HD
HETATM   28  H           1     -19.857 -10.257  -0.334  0.00  0.00     0.275 HD
HETATM   29  H           1     -20.249  -8.655  -0.775  0.00  0.00     0.275 HD
ENDBRANCH  21  26
ENDBRANCH  19  21
ENDBRANCH   1  17
TORSDOF 10
ENDMDL
