MODEL 1
REMARK VINA RESULT:      -6.0      0.000      0.000
REMARK  7 active torsions:
REMARK  status: ('A' for Active; 'I' for Inactive)
REMARK    1  A    between atoms: C_2  and  C_4 
REMARK    2  A    between atoms: C_2  and  C_12 
REMARK    3  A    between atoms: C_2  and  N_9 
REMARK    4  A    between atoms: N_5  and  C_16 
REMARK       I    between atoms: N_9  and  C_10 
REMARK    5  A    between atoms: C_10  and  C_16 
REMARK    6  A    between atoms: C_16  and  C_20 
REMARK    7  A    between atoms: O_19  and  C_20 
ROOT
HETATM    1  N           1     -22.243  -4.815  -9.072  0.00  0.00    -0.344 N 
HETATM    2  C           1     -21.766  -4.698  -7.794  0.00  0.00     0.251 C 
HETATM    3  O           1     -21.729  -3.614  -7.261  0.00  0.00    -0.271 OA
HETATM    4  H           1     -22.274  -5.723  -9.518  0.00  0.00     0.163 HD
ENDROOT
BRANCH   2   5
HETATM    5  C           1     -21.288  -5.921  -7.051  0.00  0.00     0.302 C 
BRANCH   5   6
HETATM    6  N           1     -19.846  -6.170  -7.377  0.00  0.00    -0.064 N 
HETATM    7  H           1     -19.485  -6.952  -6.785  0.00  0.00     0.275 HD
HETATM    8  H           1     -19.757  -6.429  -8.386  0.00  0.00     0.275 HD
HETATM    9  H           1     -19.291  -5.305  -7.188  0.00  0.00     0.275 HD
ENDBRANCH   5   6
BRANCH   5  10
HETATM   10  C           1     -21.437  -5.696  -5.552  0.00  0.00     0.153 C 
HETATM   11  C           1     -21.411  -7.038  -4.833  0.00  0.00     0.042 C 
BRANCH  10  12
HETATM   12  O           1     -20.381  -4.898  -5.091  0.00  0.00    -0.393 OA
HETATM   13  H           1     -20.713  -4.395  -4.367  0.00  0.00     0.210 HD
ENDBRANCH  10  12
ENDBRANCH   5  10
ENDBRANCH   2   5
BRANCH   1  14
HETATM   14  C           1     -22.702  -3.641  -9.786  0.00  0.00     0.189 C 
BRANCH  14  15
HETATM   15  C           1     -21.909  -3.490 -11.078  0.00  0.00     0.010 C 
HETATM   16  C           1     -22.205  -4.670 -11.994  0.00  0.00     0.012 C 
HETATM   17  C           1     -20.421  -3.454 -10.758  0.00  0.00     0.012 C 
ENDBRANCH  14  15
BRANCH  14  18
HETATM   18  C           1     -24.169  -3.792 -10.110  0.00  0.00     0.197 C 
HETATM   19  O           1     -24.779  -4.829  -9.773  0.00  0.00    -0.646 OA
HETATM   20  O           1     -24.773  -2.879 -10.715  0.00  0.00    -0.646 OA
ENDBRANCH  14  18
ENDBRANCH   1  14
TORSDOF 7
ENDMDL
MODEL 2
REMARK VINA RESULT:      -5.2     17.356     19.184
REMARK  7 active torsions:
REMARK  status: ('A' for Active; 'I' for Inactive)
REMARK    1  A    between atoms: C_2  and  C_4 
REMARK    2  A    between atoms: C_2  and  C_12 
REMARK    3  A    between atoms: C_2  and  N_9 
REMARK    4  A    between atoms: N_5  and  C_16 
REMARK       I    between atoms: N_9  and  C_10 
REMARK    5  A    between atoms: C_10  and  C_16 
REMARK    6  A    between atoms: C_16  and  C_20 
REMARK    7  A    between atoms: O_19  and  C_20 
ROOT
HETATM    1  N           1     -12.576   6.388 -20.166  0.00  0.00    -0.344 N 
HETATM    2  C           1     -12.557   7.617 -20.769  0.00  0.00     0.251 C 
HETATM    3  O           1     -13.064   7.762 -21.856  0.00  0.00    -0.271 OA
HETATM    4  H           1     -12.151   6.265 -19.255  0.00  0.00     0.163 HD
ENDROOT
BRANCH   2   5
HETATM    5  C           1     -11.905   8.788 -20.077  0.00  0.00     0.302 C 
BRANCH   5   6
HETATM    6  N           1     -12.726   9.187 -18.889  0.00  0.00    -0.064 N 
HETATM    7  H           1     -13.566   9.720 -19.208  0.00  0.00     0.275 HD
HETATM    8  H           1     -13.033   8.331 -18.374  0.00  0.00     0.275 HD
HETATM    9  H           1     -12.152   9.788 -18.255  0.00  0.00     0.275 HD
ENDBRANCH   5   6
BRANCH   5  10
HETATM   10  C           1     -10.507   8.393 -19.618  0.00  0.00     0.153 C 
HETATM   11  C           1      -9.472   9.044 -20.525  0.00  0.00     0.042 C 
BRANCH  10  12
HETATM   12  O           1     -10.309   8.822 -18.299  0.00  0.00    -0.393 OA
HETATM   13  H           1      -9.825   9.629 -18.343  0.00  0.00     0.210 HD
ENDBRANCH  10  12
ENDBRANCH   5  10
ENDBRANCH   2   5
BRANCH   1  14
HETATM   14  C           1     -13.202   5.262 -20.830  0.00  0.00     0.189 C 
BRANCH  14  15
HETATM   15  C           1     -12.580   3.966 -20.327  0.00  0.00     0.010 C 
HETATM   16  C           1     -11.067   4.122 -20.262  0.00  0.00     0.012 C 
HETATM   17  C           1     -12.935   2.831 -21.278  0.00  0.00     0.012 C 
ENDBRANCH  14  15
BRANCH  14  18
HETATM   18  C           1     -14.681   5.261 -20.529  0.00  0.00     0.197 C 
HETATM   19  O           1     -15.508   5.301 -21.465  0.00  0.00    -0.646 OA
HETATM   20  O           1     -15.078   5.222 -19.345  0.00  0.00    -0.646 OA
ENDBRANCH  14  18
ENDBRANCH   1  14
TORSDOF 7
ENDMDL
MODEL 3
REMARK VINA RESULT:      -5.1     17.414     19.302
REMARK  7 active torsions:
REMARK  status: ('A' for Active; 'I' for Inactive)
REMARK    1  A    between atoms: C_2  and  C_4 
REMARK    2  A    between atoms: C_2  and  C_12 
REMARK    3  A    between atoms: C_2  and  N_9 
REMARK    4  A    between atoms: N_5  and  C_16 
REMARK       I    between atoms: N_9  and  C_10 
REMARK    5  A    between atoms: C_10  and  C_16 
REMARK    6  A    between atoms: C_16  and  C_20 
REMARK    7  A    between atoms: O_19  and  C_20 
ROOT
HETATM    1  N           1     -12.462   6.336 -20.542  0.00  0.00    -0.344 N 
HETATM    2  C           1     -12.712   5.136 -19.933  0.00  0.00     0.251 C 
HETATM    3  O           1     -12.102   4.827 -18.936  0.00  0.00    -0.271 OA
HETATM    4  H           1     -12.973   6.595 -21.377  0.00  0.00     0.163 HD
ENDROOT
BRANCH   2   5
HETATM    5  C           1     -13.747   4.199 -20.505  0.00  0.00     0.302 C 
BRANCH   5   6
HETATM    6  N           1     -14.816   4.995 -21.190  0.00  0.00    -0.064 N 
HETATM    7  H           1     -15.033   5.847 -20.625  0.00  0.00     0.275 HD
HETATM    8  H           1     -14.484   5.282 -22.138  0.00  0.00     0.275 HD
HETATM    9  H           1     -15.678   4.411 -21.285  0.00  0.00     0.275 HD
ENDBRANCH   5   6
BRANCH   5  10
HETATM   10  C           1     -13.086   3.265 -21.511  0.00  0.00     0.153 C 
HETATM   11  C           1     -13.655   3.532 -22.899  0.00  0.00     0.042 C 
BRANCH  10  12
HETATM   12  O           1     -11.703   3.492 -21.522  0.00  0.00    -0.393 OA
HETATM   13  H           1     -11.305   2.778 -21.052  0.00  0.00     0.210 HD
ENDBRANCH  10  12
ENDBRANCH   5  10
ENDBRANCH   2   5
BRANCH   1  14
HETATM   14  C           1     -11.468   7.236 -19.993  0.00  0.00     0.189 C 
BRANCH  14  15
HETATM   15  C           1     -10.377   7.479 -21.028  0.00  0.00     0.010 C 
HETATM   16  C           1     -10.946   7.261 -22.423  0.00  0.00     0.012 C 
HETATM   17  C           1      -9.227   6.510 -20.789  0.00  0.00     0.012 C 
ENDBRANCH  14  15
BRANCH  14  18
HETATM   18  C           1     -12.122   8.548 -19.633  0.00  0.00     0.197 C 
HETATM   19  O           1     -13.013   9.024 -20.369  0.00  0.00    -0.646 OA
HETATM   20  O           1     -11.773   9.158 -18.599  0.00  0.00    -0.646 OA
ENDBRANCH  14  18
ENDBRANCH   1  14
TORSDOF 7
ENDMDL
MODEL 4
REMARK VINA RESULT:      -5.1      4.543      8.334
REMARK  7 active torsions:
REMARK  status: ('A' for Active; 'I' for Inactive)
REMARK    1  A    between atoms: C_2  and  C_4 
REMARK    2  A    between atoms: C_2  and  C_12 
REMARK    3  A    between atoms: C_2  and  N_9 
REMARK    4  A    between atoms: N_5  and  C_16 
REMARK       I    between atoms: N_9  and  C_10 
REMARK    5  A    between atoms: C_10  and  C_16 
REMARK    6  A    between atoms: C_16  and  C_20 
REMARK    7  A    between atoms: O_19  and  C_20 
ROOT
HETATM    1  N           1     -21.570  -8.281  -2.854  0.00  0.00    -0.344 N 
HETATM    2  C           1     -20.433  -8.196  -3.611  0.00  0.00     0.251 C 
HETATM    3  O           1     -19.427  -8.762  -3.254  0.00  0.00    -0.271 OA
HETATM    4  H           1     -22.413  -7.806  -3.153  0.00  0.00     0.163 HD
ENDROOT
BRANCH   2   5
HETATM    5  C           1     -20.436  -7.396  -4.890  0.00  0.00     0.302 C 
BRANCH   5   6
HETATM    6  N           1     -21.220  -8.129  -5.936  0.00  0.00    -0.064 N 
HETATM    7  H           1     -21.400  -7.494  -6.746  0.00  0.00     0.275 HD
HETATM    8  H           1     -20.675  -8.960  -6.261  0.00  0.00     0.275 HD
HETATM    9  H           1     -22.130  -8.445  -5.532  0.00  0.00     0.275 HD
ENDBRANCH   5   6
BRANCH   5  10
HETATM   10  C           1     -21.074  -6.036  -4.638  0.00  0.00     0.153 C 
HETATM   11  C           1     -20.481  -5.011  -5.596  0.00  0.00     0.042 C 
BRANCH  10  12
HETATM   12  O           1     -22.458  -6.123  -4.846  0.00  0.00    -0.393 OA
HETATM   13  H           1     -22.724  -6.980  -4.558  0.00  0.00     0.210 HD
ENDBRANCH  10  12
ENDBRANCH   5  10
ENDBRANCH   2   5
BRANCH   1  14
HETATM   14  C           1     -21.568  -9.048  -1.625  0.00  0.00     0.189 C 
BRANCH  14  15
HETATM   15  C           1     -22.295  -8.268  -0.537  0.00  0.00     0.010 C 
HETATM   16  C           1     -22.374  -6.800  -0.935  0.00  0.00     0.012 C 
HETATM   17  C           1     -21.534  -8.399   0.775  0.00  0.00     0.012 C 
ENDBRANCH  14  15
BRANCH  14  18
HETATM   18  C           1     -22.271 -10.365  -1.854  0.00  0.00     0.197 C 
HETATM   19  O           1     -23.360 -10.599  -1.289  0.00  0.00    -0.646 OA
HETATM   20  O           1     -21.762 -11.221  -2.610  0.00  0.00    -0.646 OA
ENDBRANCH  14  18
ENDBRANCH   1  14
TORSDOF 7
ENDMDL
MODEL 5
REMARK VINA RESULT:      -5.1     17.921     19.873
REMARK  7 active torsions:
REMARK  status: ('A' for Active; 'I' for Inactive)
REMARK    1  A    between atoms: C_2  and  C_4 
REMARK    2  A    between atoms: C_2  and  C_12 
REMARK    3  A    between atoms: C_2  and  N_9 
REMARK    4  A    between atoms: N_5  and  C_16 
REMARK       I    between atoms: N_9  and  C_10 
REMARK    5  A    between atoms: C_10  and  C_16 
REMARK    6  A    between atoms: C_16  and  C_20 
REMARK    7  A    between atoms: O_19  and  C_20 
ROOT
HETATM    1  N           1     -12.520   7.813 -19.861  0.00  0.00    -0.344 N 
HETATM    2  C           1     -12.477   6.752 -20.724  0.00  0.00     0.251 C 
HETATM    3  O           1     -11.888   6.852 -21.774  0.00  0.00    -0.271 OA
HETATM    4  H           1     -13.014   7.730 -18.981  0.00  0.00     0.163 HD
ENDROOT
BRANCH   2   5
HETATM    5  C           1     -13.165   5.458 -20.365  0.00  0.00     0.302 C 
BRANCH   5   6
HETATM    6  N           1     -13.505   4.708 -21.618  0.00  0.00    -0.064 N 
HETATM    7  H           1     -13.875   5.373 -22.333  0.00  0.00     0.275 HD
HETATM    8  H           1     -12.645   4.243 -21.988  0.00  0.00     0.275 HD
HETATM    9  H           1     -14.229   3.985 -21.405  0.00  0.00     0.275 HD
ENDBRANCH   5   6
BRANCH   5  10
HETATM   10  C           1     -12.238   4.611 -19.502  0.00  0.00     0.153 C 
HETATM   11  C           1     -11.535   3.580 -20.375  0.00  0.00     0.042 C 
BRANCH  10  12
HETATM   12  O           1     -11.283   5.437 -18.892  0.00  0.00    -0.393 OA
HETATM   13  H           1     -11.391   6.298 -19.260  0.00  0.00     0.210 HD
ENDBRANCH  10  12
ENDBRANCH   5  10
ENDBRANCH   2   5
BRANCH   1  14
HETATM   14  C           1     -11.860   9.057 -20.205  0.00  0.00     0.189 C 
BRANCH  14  15
HETATM   15  C           1     -12.625  10.224 -19.595  0.00  0.00     0.010 C 
HETATM   16  C           1     -13.491   9.717 -18.449  0.00  0.00     0.012 C 
HETATM   17  C           1     -13.509  10.862 -20.658  0.00  0.00     0.012 C 
ENDBRANCH  14  15
BRANCH  14  18
HETATM   18  C           1     -10.449   9.042 -19.667  0.00  0.00     0.197 C 
HETATM   19  O           1     -10.181   8.389 -18.636  0.00  0.00    -0.646 OA
HETATM   20  O           1      -9.550   9.683 -20.254  0.00  0.00    -0.646 OA
ENDBRANCH  14  18
ENDBRANCH   1  14
TORSDOF 7
ENDMDL
MODEL 6
REMARK VINA RESULT:      -5.0     17.724     19.661
REMARK  7 active torsions:
REMARK  status: ('A' for Active; 'I' for Inactive)
REMARK    1  A    between atoms: C_2  and  C_4 
REMARK    2  A    between atoms: C_2  and  C_12 
REMARK    3  A    between atoms: C_2  and  N_9 
REMARK    4  A    between atoms: N_5  and  C_16 
REMARK       I    between atoms: N_9  and  C_10 
REMARK    5  A    between atoms: C_10  and  C_16 
REMARK    6  A    between atoms: C_16  and  C_20 
REMARK    7  A    between atoms: O_19  and  C_20 
ROOT
HETATM    1  N           1     -11.826   5.728 -20.940  0.00  0.00    -0.344 N 
HETATM    2  C           1     -11.196   6.428 -19.947  0.00  0.00     0.251 C 
HETATM    3  O           1     -11.023   5.917 -18.866  0.00  0.00    -0.271 OA
HETATM    4  H           1     -11.971   6.156 -21.846  0.00  0.00     0.163 HD
ENDROOT
BRANCH   2   5
HETATM    5  C           1     -10.719   7.836 -20.201  0.00  0.00     0.302 C 
BRANCH   5   6
HETATM    6  N           1     -10.294   8.461 -18.906  0.00  0.00    -0.064 N 
HETATM    7  H           1     -10.582   7.847 -18.111  0.00  0.00     0.275 HD
HETATM    8  H           1      -9.255   8.575 -18.898  0.00  0.00     0.275 HD
HETATM    9  H           1     -10.748   9.397 -18.805  0.00  0.00     0.275 HD
ENDBRANCH   5   6
BRANCH   5  10
HETATM   10  C           1      -9.537   7.807 -21.161  0.00  0.00     0.153 C 
HETATM   11  C           1      -8.828   9.155 -21.135  0.00  0.00     0.042 C 
BRANCH  10  12
HETATM   12  O           1      -8.641   6.801 -20.771  0.00  0.00    -0.393 OA
HETATM   13  H           1      -9.054   5.977 -20.967  0.00  0.00     0.210 HD
ENDBRANCH  10  12
ENDBRANCH   5  10
ENDBRANCH   2   5
BRANCH   1  14
HETATM   14  C           1     -12.286   4.375 -20.697  0.00  0.00     0.189 C 
BRANCH  14  15
HETATM   15  C           1     -13.437   4.053 -21.639  0.00  0.00     0.010 C 
HETATM   16  C           1     -14.627   4.944 -21.309  0.00  0.00     0.012 C 
HETATM   17  C           1     -13.834   2.592 -21.474  0.00  0.00     0.012 C 
ENDBRANCH  14  15
BRANCH  14  18
HETATM   18  C           1     -11.151   3.409 -20.938  0.00  0.00     0.197 C 
HETATM   19  O           1     -10.753   2.669 -20.012  0.00  0.00    -0.646 OA
HETATM   20  O           1     -10.610   3.349 -22.063  0.00  0.00    -0.646 OA
ENDBRANCH  14  18
ENDBRANCH   1  14
TORSDOF 7
ENDMDL
MODEL 7
REMARK VINA RESULT:      -4.9      4.982      9.294
REMARK  7 active torsions:
REMARK  status: ('A' for Active; 'I' for Inactive)
REMARK    1  A    between atoms: C_2  and  C_4 
REMARK    2  A    between atoms: C_2  and  C_12 
REMARK    3  A    between atoms: C_2  and  N_9 
REMARK    4  A    between atoms: N_5  and  C_16 
REMARK       I    between atoms: N_9  and  C_10 
REMARK    5  A    between atoms: C_10  and  C_16 
REMARK    6  A    between atoms: C_16  and  C_20 
REMARK    7  A    between atoms: O_19  and  C_20 
ROOT
HETATM    1  N           1     -21.579  -9.069  -1.873  0.00  0.00    -0.344 N 
HETATM    2  C           1     -21.597  -7.783  -2.341  0.00  0.00     0.251 C 
HETATM    3  O           1     -22.189  -6.926  -1.728  0.00  0.00    -0.271 OA
HETATM    4  H           1     -21.083  -9.787  -2.387  0.00  0.00     0.163 HD
ENDROOT
BRANCH   2   5
HETATM    5  C           1     -20.879  -7.435  -3.621  0.00  0.00     0.302 C 
BRANCH   5   6
HETATM    6  N           1     -21.145  -8.495  -4.647  0.00  0.00    -0.064 N 
HETATM    7  H           1     -21.861  -8.152  -5.326  0.00  0.00     0.275 HD
HETATM    8  H           1     -20.260  -8.716  -5.157  0.00  0.00     0.275 HD
HETATM    9  H           1     -21.498  -9.357  -4.174  0.00  0.00     0.275 HD
ENDBRANCH   5   6
BRANCH   5  10
HETATM   10  C           1     -21.382  -6.093  -4.138  0.00  0.00     0.153 C 
HETATM   11  C           1     -20.544  -5.664  -5.335  0.00  0.00     0.042 C 
BRANCH  10  12
HETATM   12  O           1     -22.724  -6.214  -4.526  0.00  0.00    -0.393 OA
HETATM   13  H           1     -22.726  -6.424  -5.444  0.00  0.00     0.210 HD
ENDBRANCH  10  12
ENDBRANCH   5  10
ENDBRANCH   2   5
BRANCH   1  14
HETATM   14  C           1     -22.269  -9.404  -0.643  0.00  0.00     0.189 C 
BRANCH  14  15
HETATM   15  C           1     -22.870 -10.798  -0.763  0.00  0.00     0.010 C 
HETATM   16  C           1     -23.096 -11.128  -2.232  0.00  0.00     0.012 C 
HETATM   17  C           1     -24.200 -10.842  -0.020  0.00  0.00     0.012 C 
ENDBRANCH  14  15
BRANCH  14  18
HETATM   18  C           1     -21.290  -9.374   0.506  0.00  0.00     0.197 C 
HETATM   19  O           1     -21.213  -8.361   1.233  0.00  0.00    -0.646 OA
HETATM   20  O           1     -20.558 -10.362   0.729  0.00  0.00    -0.646 OA
ENDBRANCH  14  18
ENDBRANCH   1  14
TORSDOF 7
ENDMDL
MODEL 8
REMARK VINA RESULT:      -4.9      5.558      9.177
REMARK  7 active torsions:
REMARK  status: ('A' for Active; 'I' for Inactive)
REMARK    1  A    between atoms: C_2  and  C_4 
REMARK    2  A    between atoms: C_2  and  C_12 
REMARK    3  A    between atoms: C_2  and  N_9 
REMARK    4  A    between atoms: N_5  and  C_16 
REMARK       I    between atoms: N_9  and  C_10 
REMARK    5  A    between atoms: C_10  and  C_16 
REMARK    6  A    between atoms: C_16  and  C_20 
REMARK    7  A    between atoms: O_19  and  C_20 
ROOT
HETATM    1  N           1     -21.627  -9.071  -2.153  0.00  0.00    -0.344 N 
HETATM    2  C           1     -21.400  -7.882  -2.794  0.00  0.00     0.251 C 
HETATM    3  O           1     -20.850  -6.978  -2.210  0.00  0.00    -0.271 OA
HETATM    4  H           1     -22.088  -9.828  -2.642  0.00  0.00     0.163 HD
ENDROOT
BRANCH   2   5
HETATM    5  C           1     -21.836  -7.701  -4.226  0.00  0.00     0.302 C 
BRANCH   5   6
HETATM    6  N           1     -22.311  -6.293  -4.430  0.00  0.00    -0.064 N 
HETATM    7  H           1     -23.241  -6.304  -4.907  0.00  0.00     0.275 HD
HETATM    8  H           1     -22.401  -5.819  -3.503  0.00  0.00     0.275 HD
HETATM    9  H           1     -21.622  -5.775  -5.021  0.00  0.00     0.275 HD
ENDBRANCH   5   6
BRANCH   5  10
HETATM   10  C           1     -20.660  -7.978  -5.155  0.00  0.00     0.153 C 
HETATM   11  C           1     -20.260  -6.692  -5.865  0.00  0.00     0.042 C 
BRANCH  10  12
HETATM   12  O           1     -19.576  -8.456  -4.406  0.00  0.00    -0.393 OA
HETATM   13  H           1     -18.793  -8.189  -4.857  0.00  0.00     0.210 HD
ENDBRANCH  10  12
ENDBRANCH   5  10
ENDBRANCH   2   5
BRANCH   1  14
HETATM   14  C           1     -21.209  -9.245  -0.777  0.00  0.00     0.189 C 
BRANCH  14  15
HETATM   15  C           1     -22.432  -9.484   0.099  0.00  0.00     0.010 C 
HETATM   16  C           1     -23.416 -10.381  -0.640  0.00  0.00     0.012 C 
HETATM   17  C           1     -23.097  -8.151   0.415  0.00  0.00     0.012 C 
ENDBRANCH  14  15
BRANCH  14  18
HETATM   18  C           1     -20.281 -10.432  -0.681  0.00  0.00     0.197 C 
HETATM   19  O           1     -20.110 -11.004   0.417  0.00  0.00    -0.646 OA
HETATM   20  O           1     -19.684 -10.843  -1.700  0.00  0.00    -0.646 OA
ENDBRANCH  14  18
ENDBRANCH   1  14
TORSDOF 7
ENDMDL
MODEL 9
REMARK VINA RESULT:      -4.7      5.879      8.035
REMARK  7 active torsions:
REMARK  status: ('A' for Active; 'I' for Inactive)
REMARK    1  A    between atoms: C_2  and  C_4 
REMARK    2  A    between atoms: C_2  and  C_12 
REMARK    3  A    between atoms: C_2  and  N_9 
REMARK    4  A    between atoms: N_5  and  C_16 
REMARK       I    between atoms: N_9  and  C_10 
REMARK    5  A    between atoms: C_10  and  C_16 
REMARK    6  A    between atoms: C_16  and  C_20 
REMARK    7  A    between atoms: O_19  and  C_20 
ROOT
HETATM    1  N           1     -20.945  -8.530  -2.371  0.00  0.00    -0.344 N 
HETATM    2  C           1     -21.636  -9.599  -1.866  0.00  0.00     0.251 C 
HETATM    3  O           1     -22.277 -10.307  -2.606  0.00  0.00    -0.271 OA
HETATM    4  H           1     -20.408  -7.937  -1.751  0.00  0.00     0.163 HD
ENDROOT
BRANCH   2   5
HETATM    5  C           1     -21.597  -9.892  -0.387  0.00  0.00     0.302 C 
BRANCH   5   6
HETATM    6  N           1     -20.368 -10.689  -0.067  0.00  0.00    -0.064 N 
HETATM    7  H           1     -20.299 -10.825   0.967  0.00  0.00     0.275 HD
HETATM    8  H           1     -20.425 -11.621  -0.537  0.00  0.00     0.275 HD
HETATM    9  H           1     -19.523 -10.177  -0.408  0.00  0.00     0.275 HD
ENDBRANCH   5   6
BRANCH   5  10
HETATM   10  C           1     -21.569  -8.583   0.391  0.00  0.00     0.153 C 
HETATM   11  C           1     -22.991  -8.066   0.567  0.00  0.00     0.042 C 
BRANCH  10  12
HETATM   12  O           1     -20.991  -8.798   1.650  0.00  0.00    -0.393 OA
HETATM   13  H           1     -20.267  -9.387   1.521  0.00  0.00     0.210 HD
ENDBRANCH  10  12
ENDBRANCH   5  10
ENDBRANCH   2   5
BRANCH   1  14
HETATM   14  C           1     -20.982  -8.247  -3.792  0.00  0.00     0.189 C 
BRANCH  14  15
HETATM   15  C           1     -21.230  -6.760  -4.007  0.00  0.00     0.010 C 
HETATM   16  C           1     -21.604  -6.112  -2.681  0.00  0.00     0.012 C 
HETATM   17  C           1     -22.367  -6.575  -5.003  0.00  0.00     0.012 C 
ENDBRANCH  14  15
BRANCH  14  18
HETATM   18  C           1     -19.662  -8.634  -4.415  0.00  0.00     0.197 C 
HETATM   19  O           1     -18.710  -8.992  -3.690  0.00  0.00    -0.646 OA
HETATM   20  O           1     -19.523  -8.595  -5.657  0.00  0.00    -0.646 OA
ENDBRANCH  14  18
ENDBRANCH   1  14
TORSDOF 7
ENDMDL
