MODEL 1
REMARK VINA RESULT:      -7.2      0.000      0.000
REMARK  11 active torsions:
REMARK  status: ('A' for Active; 'I' for Inactive)
REMARK    1  A    between atoms: Se_1  and  C_2 
REMARK    2  A    between atoms: C_2  and  C_3 
REMARK    3  A    between atoms: C_3  and  C_4 
REMARK    4  A    between atoms: C_3  and  N_7 
REMARK       I    between atoms: N_7  and  C_8 
REMARK    5  A    between atoms: C_8  and  C_9 
REMARK    6  A    between atoms: C_9  and  C_10 
REMARK    7  A    between atoms: C_9  and  N_22 
REMARK    8  A    between atoms: C_10  and  C_11 
REMARK    9  A    between atoms: C_14  and  O_15 
REMARK   10  A    between atoms: O_15  and  P_16 
REMARK   11  A    between atoms: P_16  and  O_17 
ROOT
HETATM    1  C           1     -33.740  -4.840 -15.441  0.00  0.00     0.278 C 
ENDROOT
BRANCH   1   2
HETATM    2  C           1     -34.219  -3.939 -14.330  0.00  0.00     0.249 C 
HETATM    3  N           1     -34.205  -4.382 -13.035  0.00  0.00    -0.345 N 
HETATM    4  H           1     -33.873  -5.315 -12.823  0.00  0.00     0.163 HD
HETATM    5  O           1     -34.615  -2.825 -14.584  0.00  0.00    -0.271 OA
BRANCH   3   6
HETATM    6  C           1     -34.666  -3.517 -11.968  0.00  0.00     0.185 C 
BRANCH   6   7
HETATM    7  C           1     -35.407  -4.345 -10.925  0.00  0.00     0.039 C 
BRANCH   7   8
HETATM    8 Se           1     -34.446  -6.012 -10.616  0.00  0.00     0.000 Se
HETATM    9  H           1     -33.509  -5.814 -11.734  0.00  0.00     0.000 HD
ENDBRANCH   7   8
ENDBRANCH   6   7
BRANCH   6  10
HETATM   10  C           1     -33.481  -2.841 -11.321  0.00  0.00     0.196 C 
HETATM   11  O           1     -32.338  -3.333 -11.441  0.00  0.00    -0.646 OA
HETATM   12  O           1     -33.644  -1.790 -10.665  0.00  0.00    -0.646 OA
ENDBRANCH   6  10
ENDBRANCH   3   6
ENDBRANCH   1   2
BRANCH   1  13
HETATM   13  C           1     -33.214  -3.992 -16.593  0.00  0.00     0.081 C 
BRANCH  13  14
HETATM   14  C           1     -31.891  -4.527 -17.044  0.00  0.00    -0.056 A 
HETATM   15  C           1     -31.617  -5.891 -16.937  0.00  0.00     0.010 A 
HETATM   16  C           1     -30.385  -6.390 -17.358  0.00  0.00     0.038 A 
HETATM   17  C           1     -29.425  -5.526 -17.884  0.00  0.00     0.081 A 
HETATM   18  C           1     -29.699  -4.162 -17.992  0.00  0.00     0.038 A 
HETATM   19  C           1     -30.931  -3.663 -17.571  0.00  0.00     0.010 A 
BRANCH  17  20
HETATM   20  O           1     -28.228  -6.010 -18.293  0.00  0.00    -0.247 OA
BRANCH  20  21
HETATM   21  P           1     -27.032  -6.091 -17.209  0.00  0.00     0.411 P 
HETATM   22  O           1     -25.751  -6.344 -17.907  0.00  0.00    -0.624 OA
HETATM   23  O           1     -26.949  -4.811 -16.471  0.00  0.00    -0.624 OA
BRANCH  21  24
HETATM   24  O           1     -27.326  -7.293 -16.173  0.00  0.00    -0.300 OA
HETATM   25  H           1     -26.840  -8.028 -16.508  0.00  0.00     0.223 HD
ENDBRANCH  21  24
ENDBRANCH  20  21
ENDBRANCH  17  20
ENDBRANCH  13  14
ENDBRANCH   1  13
BRANCH   1  26
HETATM   26  N           1     -34.879  -5.687 -15.925  0.00  0.00    -0.066 N 
HETATM   27  H           1     -35.341  -5.220 -16.737  0.00  0.00     0.275 HD
HETATM   28  H           1     -34.517  -6.621 -16.220  0.00  0.00     0.275 HD
HETATM   29  H           1     -35.573  -5.810 -15.152  0.00  0.00     0.275 HD
ENDBRANCH   1  26
TORSDOF 11
ENDMDL
MODEL 2
REMARK VINA RESULT:      -7.1     13.062     14.406
REMARK  11 active torsions:
REMARK  status: ('A' for Active; 'I' for Inactive)
REMARK    1  A    between atoms: Se_1  and  C_2 
REMARK    2  A    between atoms: C_2  and  C_3 
REMARK    3  A    between atoms: C_3  and  C_4 
REMARK    4  A    between atoms: C_3  and  N_7 
REMARK       I    between atoms: N_7  and  C_8 
REMARK    5  A    between atoms: C_8  and  C_9 
REMARK    6  A    between atoms: C_9  and  C_10 
REMARK    7  A    between atoms: C_9  and  N_22 
REMARK    8  A    between atoms: C_10  and  C_11 
REMARK    9  A    between atoms: C_14  and  O_15 
REMARK   10  A    between atoms: O_15  and  P_16 
REMARK   11  A    between atoms: P_16  and  O_17 
ROOT
HETATM    1  C           1     -21.183  -6.100  -4.963  0.00  0.00     0.278 C 
ENDROOT
BRANCH   1   2
HETATM    2  C           1     -20.518  -7.442  -5.146  0.00  0.00     0.249 C 
HETATM    3  N           1     -20.831  -8.480  -4.310  0.00  0.00    -0.345 N 
HETATM    4  H           1     -21.508  -8.347  -3.569  0.00  0.00     0.163 HD
HETATM    5  O           1     -19.710  -7.601  -6.030  0.00  0.00    -0.271 OA
BRANCH   3   6
HETATM    6  C           1     -20.192  -9.769  -4.485  0.00  0.00     0.185 C 
BRANCH   6   7
HETATM    7  C           1     -19.775 -10.320  -3.126  0.00  0.00     0.039 C 
BRANCH   7   8
HETATM    8 Se           1     -20.564  -9.232  -1.715  0.00  0.00     0.000 Se
HETATM    9  H           1     -21.840  -9.968  -1.701  0.00  0.00     0.000 HD
ENDBRANCH   7   8
ENDBRANCH   6   7
BRANCH   6  10
HETATM   10  C           1     -21.159 -10.726  -5.138  0.00  0.00     0.196 C 
HETATM   11  O           1     -22.083 -11.237  -4.467  0.00  0.00    -0.646 OA
HETATM   12  O           1     -21.037 -11.009  -6.349  0.00  0.00    -0.646 OA
ENDBRANCH   6  10
ENDBRANCH   3   6
ENDBRANCH   1   2
BRANCH   1  13
HETATM   13  C           1     -20.309  -5.013  -5.575  0.00  0.00     0.081 C 
BRANCH  13  14
HETATM   14  C           1     -20.849  -4.634  -6.919  0.00  0.00    -0.056 A 
HETATM   15  C           1     -22.175  -4.221  -7.047  0.00  0.00     0.010 A 
HETATM   16  C           1     -22.678  -3.869  -8.299  0.00  0.00     0.038 A 
HETATM   17  C           1     -21.856  -3.931  -9.424  0.00  0.00     0.081 A 
HETATM   18  C           1     -20.529  -4.344  -9.296  0.00  0.00     0.038 A 
HETATM   19  C           1     -20.026  -4.697  -8.044  0.00  0.00     0.010 A 
BRANCH  17  20
HETATM   20  O           1     -22.344  -3.589 -10.640  0.00  0.00    -0.247 OA
BRANCH  20  21
HETATM   21  P           1     -23.705  -4.303 -11.140  0.00  0.00     0.411 P 
HETATM   22  O           1     -23.953  -5.513 -10.325  0.00  0.00    -0.624 OA
HETATM   23  O           1     -24.838  -3.363 -10.987  0.00  0.00    -0.624 OA
BRANCH  21  24
HETATM   24  O           1     -23.556  -4.720 -12.692  0.00  0.00    -0.300 OA
HETATM   25  H           1     -23.970  -5.564 -12.758  0.00  0.00     0.223 HD
ENDBRANCH  21  24
ENDBRANCH  20  21
ENDBRANCH  17  20
ENDBRANCH  13  14
ENDBRANCH   1  13
BRANCH   1  26
HETATM   26  N           1     -21.367  -5.828  -3.500  0.00  0.00    -0.066 N 
HETATM   27  H           1     -22.387  -5.751  -3.285  0.00  0.00     0.275 HD
HETATM   28  H           1     -20.952  -6.611  -2.946  0.00  0.00     0.275 HD
HETATM   29  H           1     -20.889  -4.932  -3.249  0.00  0.00     0.275 HD
ENDBRANCH   1  26
TORSDOF 11
ENDMDL
MODEL 3
REMARK VINA RESULT:      -7.0     13.518     15.221
REMARK  11 active torsions:
REMARK  status: ('A' for Active; 'I' for Inactive)
REMARK    1  A    between atoms: Se_1  and  C_2 
REMARK    2  A    between atoms: C_2  and  C_3 
REMARK    3  A    between atoms: C_3  and  C_4 
REMARK    4  A    between atoms: C_3  and  N_7 
REMARK       I    between atoms: N_7  and  C_8 
REMARK    5  A    between atoms: C_8  and  C_9 
REMARK    6  A    between atoms: C_9  and  C_10 
REMARK    7  A    between atoms: C_9  and  N_22 
REMARK    8  A    between atoms: C_10  and  C_11 
REMARK    9  A    between atoms: C_14  and  O_15 
REMARK   10  A    between atoms: O_15  and  P_16 
REMARK   11  A    between atoms: P_16  and  O_17 
ROOT
HETATM    1  C           1     -22.423  -5.071  -6.173  0.00  0.00     0.278 C 
ENDROOT
BRANCH   1   2
HETATM    2  C           1     -22.301  -4.304  -7.467  0.00  0.00     0.249 C 
HETATM    3  N           1     -23.267  -4.426  -8.429  0.00  0.00    -0.345 N 
HETATM    4  H           1     -24.063  -5.030  -8.272  0.00  0.00     0.163 HD
HETATM    5  O           1     -21.349  -3.582  -7.653  0.00  0.00    -0.271 OA
BRANCH   3   6
HETATM    6  C           1     -23.148  -3.690  -9.672  0.00  0.00     0.185 C 
BRANCH   6   7
HETATM    7  C           1     -22.394  -4.532 -10.693  0.00  0.00     0.039 C 
BRANCH   7   8
HETATM    8 Se           1     -20.723  -3.645 -11.160  0.00  0.00     0.000 Se
HETATM    9  H           1     -21.369  -2.379 -11.546  0.00  0.00     0.000 HD
ENDBRANCH   7   8
ENDBRANCH   6   7
BRANCH   6  10
HETATM   10  C           1     -24.526  -3.373 -10.202  0.00  0.00     0.196 C 
HETATM   11  O           1     -24.843  -3.717 -11.362  0.00  0.00    -0.646 OA
HETATM   12  O           1     -25.348  -2.767  -9.483  0.00  0.00    -0.646 OA
ENDBRANCH   6  10
ENDBRANCH   3   6
ENDBRANCH   1   2
BRANCH   1  13
HETATM   13  C           1     -21.578  -6.335  -6.249  0.00  0.00     0.081 C 
BRANCH  13  14
HETATM   14  C           1     -21.443  -6.930  -4.882  0.00  0.00    -0.056 A 
HETATM   15  C           1     -21.196  -6.106  -3.784  0.00  0.00     0.010 A 
HETATM   16  C           1     -21.070  -6.659  -2.511  0.00  0.00     0.038 A 
HETATM   17  C           1     -21.190  -8.038  -2.334  0.00  0.00     0.081 A 
HETATM   18  C           1     -21.437  -8.862  -3.432  0.00  0.00     0.038 A 
HETATM   19  C           1     -21.563  -8.309  -4.706  0.00  0.00     0.010 A 
BRANCH  17  20
HETATM   20  O           1     -21.068  -8.576  -1.097  0.00  0.00    -0.247 OA
BRANCH  20  21
HETATM   21  P           1     -22.294  -8.385  -0.062  0.00  0.00     0.411 P 
HETATM   22  O           1     -23.032  -7.146  -0.396  0.00  0.00    -0.624 OA
HETATM   23  O           1     -23.207  -9.546  -0.161  0.00  0.00    -0.624 OA
BRANCH  21  24
HETATM   24  O           1     -21.718  -8.279   1.442  0.00  0.00    -0.300 OA
HETATM   25  H           1     -22.356  -8.717   1.979  0.00  0.00     0.223 HD
ENDBRANCH  21  24
ENDBRANCH  20  21
ENDBRANCH  17  20
ENDBRANCH  13  14
ENDBRANCH   1  13
BRANCH   1  26
HETATM   26  N           1     -23.859  -5.442  -5.946  0.00  0.00    -0.066 N 
HETATM   27  H           1     -24.278  -5.778  -6.841  0.00  0.00     0.275 HD
HETATM   28  H           1     -23.912  -6.200  -5.229  0.00  0.00     0.275 HD
HETATM   29  H           1     -24.386  -4.604  -5.607  0.00  0.00     0.275 HD
ENDBRANCH   1  26
TORSDOF 11
ENDMDL
MODEL 4
REMARK VINA RESULT:      -6.9     13.673     14.897
REMARK  11 active torsions:
REMARK  status: ('A' for Active; 'I' for Inactive)
REMARK    1  A    between atoms: Se_1  and  C_2 
REMARK    2  A    between atoms: C_2  and  C_3 
REMARK    3  A    between atoms: C_3  and  C_4 
REMARK    4  A    between atoms: C_3  and  N_7 
REMARK       I    between atoms: N_7  and  C_8 
REMARK    5  A    between atoms: C_8  and  C_9 
REMARK    6  A    between atoms: C_9  and  C_10 
REMARK    7  A    between atoms: C_9  and  N_22 
REMARK    8  A    between atoms: C_10  and  C_11 
REMARK    9  A    between atoms: C_14  and  O_15 
REMARK   10  A    between atoms: O_15  and  P_16 
REMARK   11  A    between atoms: P_16  and  O_17 
ROOT
HETATM    1  C           1     -21.477  -6.454  -4.877  0.00  0.00     0.278 C 
ENDROOT
BRANCH   1   2
HETATM    2  C           1     -20.810  -7.805  -4.794  0.00  0.00     0.249 C 
HETATM    3  N           1     -20.353  -8.270  -3.591  0.00  0.00    -0.345 N 
HETATM    4  H           1     -20.461  -7.707  -2.757  0.00  0.00     0.163 HD
HETATM    5  O           1     -20.681  -8.477  -5.791  0.00  0.00    -0.271 OA
BRANCH   3   6
HETATM    6  C           1     -19.712  -9.568  -3.511  0.00  0.00     0.185 C 
BRANCH   6   7
HETATM    7  C           1     -18.228  -9.386  -3.220  0.00  0.00     0.039 C 
BRANCH   7   8
HETATM    8 Se           1     -17.181 -10.206  -4.644  0.00  0.00     0.000 Se
HETATM    9  H           1     -17.744  -9.355  -5.706  0.00  0.00     0.000 HD
ENDBRANCH   7   8
ENDBRANCH   6   7
BRANCH   6  10
HETATM   10  C           1     -20.345 -10.374  -2.404  0.00  0.00     0.196 C 
HETATM   11  O           1     -21.577 -10.297  -2.200  0.00  0.00    -0.646 OA
HETATM   12  O           1     -19.639 -11.118  -1.690  0.00  0.00    -0.646 OA
ENDBRANCH   6  10
ENDBRANCH   3   6
ENDBRANCH   1   2
BRANCH   1  13
HETATM   13  C           1     -20.497  -5.438  -5.450  0.00  0.00     0.081 C 
BRANCH  13  14
HETATM   14  C           1     -20.991  -4.961  -6.780  0.00  0.00    -0.056 A 
HETATM   15  C           1     -20.155  -5.017  -7.895  0.00  0.00     0.010 A 
HETATM   16  C           1     -20.614  -4.572  -9.135  0.00  0.00     0.038 A 
HETATM   17  C           1     -21.909  -4.070  -9.259  0.00  0.00     0.081 A 
HETATM   18  C           1     -22.746  -4.014  -8.144  0.00  0.00     0.038 A 
HETATM   19  C           1     -22.286  -4.458  -6.904  0.00  0.00     0.010 A 
BRANCH  17  20
HETATM   20  O           1     -22.356  -3.638 -10.462  0.00  0.00    -0.247 OA
BRANCH  20  21
HETATM   21  P           1     -23.693  -4.318 -11.064  0.00  0.00     0.411 P 
HETATM   22  O           1     -23.989  -5.563 -10.321  0.00  0.00    -0.624 OA
HETATM   23  O           1     -24.828  -3.378 -10.926  0.00  0.00    -0.624 OA
BRANCH  21  24
HETATM   24  O           1     -23.466  -4.663 -12.624  0.00  0.00    -0.300 OA
HETATM   25  H           1     -23.843  -3.936 -13.092  0.00  0.00     0.223 HD
ENDBRANCH  21  24
ENDBRANCH  20  21
ENDBRANCH  17  20
ENDBRANCH  13  14
ENDBRANCH   1  13
BRANCH   1  26
HETATM   26  N           1     -21.901  -6.020  -3.506  0.00  0.00    -0.066 N 
HETATM   27  H           1     -22.660  -6.649  -3.160  0.00  0.00     0.275 HD
HETATM   28  H           1     -21.083  -6.072  -2.857  0.00  0.00     0.275 HD
HETATM   29  H           1     -22.253  -5.037  -3.545  0.00  0.00     0.275 HD
ENDBRANCH   1  26
TORSDOF 11
ENDMDL
MODEL 5
REMARK VINA RESULT:      -6.9     13.068     14.538
REMARK  11 active torsions:
REMARK  status: ('A' for Active; 'I' for Inactive)
REMARK    1  A    between atoms: Se_1  and  C_2 
REMARK    2  A    between atoms: C_2  and  C_3 
REMARK    3  A    between atoms: C_3  and  C_4 
REMARK    4  A    between atoms: C_3  and  N_7 
REMARK       I    between atoms: N_7  and  C_8 
REMARK    5  A    between atoms: C_8  and  C_9 
REMARK    6  A    between atoms: C_9  and  C_10 
REMARK    7  A    between atoms: C_9  and  N_22 
REMARK    8  A    between atoms: C_10  and  C_11 
REMARK    9  A    between atoms: C_14  and  O_15 
REMARK   10  A    between atoms: O_15  and  P_16 
REMARK   11  A    between atoms: P_16  and  O_17 
ROOT
HETATM    1  C           1     -21.564  -6.672  -4.879  0.00  0.00     0.278 C 
ENDROOT
BRANCH   1   2
HETATM    2  C           1     -20.919  -7.992  -4.536  0.00  0.00     0.249 C 
HETATM    3  N           1     -20.725  -8.934  -5.510  0.00  0.00    -0.345 N 
HETATM    4  H           1     -21.015  -8.745  -6.461  0.00  0.00     0.163 HD
HETATM    5  O           1     -20.573  -8.218  -3.400  0.00  0.00    -0.271 OA
BRANCH   3   6
HETATM    6  C           1     -20.106 -10.202  -5.180  0.00  0.00     0.185 C 
BRANCH   6   7
HETATM    7  C           1     -20.857 -11.331  -5.875  0.00  0.00     0.039 C 
BRANCH   7   8
HETATM    8 Se           1     -22.241 -12.018  -4.687  0.00  0.00     0.000 Se
HETATM    9  H           1     -21.470 -11.773  -3.457  0.00  0.00     0.000 HD
ENDBRANCH   7   8
ENDBRANCH   6   7
BRANCH   6  10
HETATM   10  C           1     -18.669 -10.196  -5.643  0.00  0.00     0.196 C 
HETATM   11  O           1     -18.376 -10.638  -6.776  0.00  0.00    -0.646 OA
HETATM   12  O           1     -17.774  -9.752  -4.894  0.00  0.00    -0.646 OA
ENDBRANCH   6  10
ENDBRANCH   3   6
ENDBRANCH   1   2
BRANCH   1  13
HETATM   13  C           1     -20.518  -5.730  -5.460  0.00  0.00     0.081 C 
BRANCH  13  14
HETATM   14  C           1     -21.003  -5.187  -6.767  0.00  0.00    -0.056 A 
HETATM   15  C           1     -20.193  -5.268  -7.900  0.00  0.00     0.010 A 
HETATM   16  C           1     -20.645  -4.762  -9.118  0.00  0.00     0.038 A 
HETATM   17  C           1     -21.906  -4.173  -9.204  0.00  0.00     0.081 A 
HETATM   18  C           1     -22.717  -4.092  -8.071  0.00  0.00     0.038 A 
HETATM   19  C           1     -22.265  -4.598  -6.853  0.00  0.00     0.010 A 
BRANCH  17  20
HETATM   20  O           1     -22.346  -3.681 -10.387  0.00  0.00    -0.247 OA
BRANCH  20  21
HETATM   21  P           1     -23.686  -4.321 -11.024  0.00  0.00     0.411 P 
HETATM   22  O           1     -24.021  -5.574 -10.310  0.00  0.00    -0.624 OA
HETATM   23  O           1     -24.803  -3.360 -10.887  0.00  0.00    -0.624 OA
BRANCH  21  24
HETATM   24  O           1     -23.439  -4.642 -12.587  0.00  0.00    -0.300 OA
HETATM   25  H           1     -24.036  -5.344 -12.789  0.00  0.00     0.223 HD
ENDBRANCH  21  24
ENDBRANCH  20  21
ENDBRANCH  17  20
ENDBRANCH  13  14
ENDBRANCH   1  13
BRANCH   1  26
HETATM   26  N           1     -22.150  -6.065  -3.639  0.00  0.00    -0.066 N 
HETATM   27  H           1     -22.646  -5.179  -3.885  0.00  0.00     0.275 HD
HETATM   28  H           1     -22.828  -6.735  -3.211  0.00  0.00     0.275 HD
HETATM   29  H           1     -21.385  -5.859  -2.958  0.00  0.00     0.275 HD
ENDBRANCH   1  26
TORSDOF 11
ENDMDL
MODEL 6
REMARK VINA RESULT:      -6.7     14.007     15.530
REMARK  11 active torsions:
REMARK  status: ('A' for Active; 'I' for Inactive)
REMARK    1  A    between atoms: Se_1  and  C_2 
REMARK    2  A    between atoms: C_2  and  C_3 
REMARK    3  A    between atoms: C_3  and  C_4 
REMARK    4  A    between atoms: C_3  and  N_7 
REMARK       I    between atoms: N_7  and  C_8 
REMARK    5  A    between atoms: C_8  and  C_9 
REMARK    6  A    between atoms: C_9  and  C_10 
REMARK    7  A    between atoms: C_9  and  N_22 
REMARK    8  A    between atoms: C_10  and  C_11 
REMARK    9  A    between atoms: C_14  and  O_15 
REMARK   10  A    between atoms: O_15  and  P_16 
REMARK   11  A    between atoms: P_16  and  O_17 
ROOT
HETATM    1  C           1     -21.142  -5.442  -6.535  0.00  0.00     0.278 C 
ENDROOT
BRANCH   1   2
HETATM    2  C           1     -21.649  -4.423  -7.525  0.00  0.00     0.249 C 
HETATM    3  N           1     -22.309  -4.833  -8.652  0.00  0.00    -0.345 N 
HETATM    4  H           1     -22.455  -5.820  -8.822  0.00  0.00     0.163 HD
HETATM    5  O           1     -21.474  -3.244  -7.322  0.00  0.00    -0.271 OA
BRANCH   3   6
HETATM    6  C           1     -22.796  -3.854  -9.603  0.00  0.00     0.185 C 
BRANCH   6   7
HETATM    7  C           1     -22.265  -4.186 -10.993  0.00  0.00     0.039 C 
BRANCH   7   8
HETATM    8 Se           1     -20.371  -3.734 -11.089  0.00  0.00     0.000 Se
HETATM    9  H           1     -20.033  -4.382  -9.811  0.00  0.00     0.000 HD
ENDBRANCH   7   8
ENDBRANCH   6   7
BRANCH   6  10
HETATM   10  C           1     -24.305  -3.880  -9.624  0.00  0.00     0.196 C 
HETATM   11  O           1     -24.909  -4.960  -9.804  0.00  0.00    -0.646 OA
HETATM   12  O           1     -24.950  -2.822  -9.463  0.00  0.00    -0.646 OA
ENDBRANCH   6  10
ENDBRANCH   3   6
ENDBRANCH   1   2
BRANCH   1  13
HETATM   13  C           1     -22.289  -5.905  -5.647  0.00  0.00     0.081 C 
BRANCH  13  14
HETATM   14  C           1     -21.754  -6.761  -4.542  0.00  0.00    -0.056 A 
HETATM   15  C           1     -21.241  -8.027  -4.827  0.00  0.00     0.010 A 
HETATM   16  C           1     -20.743  -8.825  -3.798  0.00  0.00     0.038 A 
HETATM   17  C           1     -20.757  -8.358  -2.484  0.00  0.00     0.081 A 
HETATM   18  C           1     -21.270  -7.092  -2.199  0.00  0.00     0.038 A 
HETATM   19  C           1     -21.768  -6.294  -3.228  0.00  0.00     0.010 A 
BRANCH  17  20
HETATM   20  O           1     -20.272  -9.133  -1.484  0.00  0.00    -0.247 OA
BRANCH  20  21
HETATM   21  P           1     -21.324  -9.743  -0.419  0.00  0.00     0.411 P 
HETATM   22  O           1     -20.821 -11.043   0.079  0.00  0.00    -0.624 OA
HETATM   23  O           1     -21.475  -8.804   0.715  0.00  0.00    -0.624 OA
BRANCH  21  24
HETATM   24  O           1     -22.754  -9.958  -1.136  0.00  0.00    -0.300 OA
HETATM   25  H           1     -23.389  -9.863  -0.446  0.00  0.00     0.223 HD
ENDBRANCH  21  24
ENDBRANCH  20  21
ENDBRANCH  17  20
ENDBRANCH  13  14
ENDBRANCH   1  13
BRANCH   1  26
HETATM   26  N           1     -20.071  -4.823  -5.685  0.00  0.00    -0.066 N 
HETATM   27  H           1     -19.322  -4.432  -6.299  0.00  0.00     0.275 HD
HETATM   28  H           1     -20.485  -4.057  -5.108  0.00  0.00     0.275 HD
HETATM   29  H           1     -19.662  -5.552  -5.056  0.00  0.00     0.275 HD
ENDBRANCH   1  26
TORSDOF 11
ENDMDL
MODEL 7
REMARK VINA RESULT:      -6.5      1.618      2.328
REMARK  11 active torsions:
REMARK  status: ('A' for Active; 'I' for Inactive)
REMARK    1  A    between atoms: Se_1  and  C_2 
REMARK    2  A    between atoms: C_2  and  C_3 
REMARK    3  A    between atoms: C_3  and  C_4 
REMARK    4  A    between atoms: C_3  and  N_7 
REMARK       I    between atoms: N_7  and  C_8 
REMARK    5  A    between atoms: C_8  and  C_9 
REMARK    6  A    between atoms: C_9  and  C_10 
REMARK    7  A    between atoms: C_9  and  N_22 
REMARK    8  A    between atoms: C_10  and  C_11 
REMARK    9  A    between atoms: C_14  and  O_15 
REMARK   10  A    between atoms: O_15  and  P_16 
REMARK   11  A    between atoms: P_16  and  O_17 
ROOT
HETATM    1  C           1     -33.040  -4.733 -16.908  0.00  0.00     0.278 C 
ENDROOT
BRANCH   1   2
HETATM    2  C           1     -33.830  -4.674 -15.625  0.00  0.00     0.249 C 
HETATM    3  N           1     -33.280  -4.105 -14.507  0.00  0.00    -0.345 N 
HETATM    4  H           1     -32.343  -3.725 -14.543  0.00  0.00     0.163 HD
HETATM    5  O           1     -34.950  -5.128 -15.583  0.00  0.00    -0.271 OA
BRANCH   3   6
HETATM    6  C           1     -34.040  -4.050 -13.274  0.00  0.00     0.185 C 
BRANCH   6   7
HETATM    7  C           1     -33.149  -4.461 -12.109  0.00  0.00     0.039 C 
BRANCH   7   8
HETATM    8 Se           1     -34.124  -5.686 -10.947  0.00  0.00     0.000 Se
HETATM    9  H           1     -33.053  -5.765  -9.939  0.00  0.00     0.000 HD
ENDBRANCH   7   8
ENDBRANCH   6   7
BRANCH   6  10
HETATM   10  C           1     -34.537  -2.641 -13.053  0.00  0.00     0.196 C 
HETATM   11  O           1     -34.485  -2.133 -11.911  0.00  0.00    -0.646 OA
HETATM   12  O           1     -35.001  -1.985 -14.009  0.00  0.00    -0.646 OA
ENDBRANCH   6  10
ENDBRANCH   3   6
ENDBRANCH   1   2
BRANCH   1  13
HETATM   13  C           1     -32.302  -6.062 -16.991  0.00  0.00     0.081 C 
BRANCH  13  14
HETATM   14  C           1     -30.826  -5.821 -16.920  0.00  0.00    -0.056 A 
HETATM   15  C           1     -30.043  -5.949 -18.067  0.00  0.00     0.010 A 
HETATM   16  C           1     -28.668  -5.725 -18.002  0.00  0.00     0.038 A 
HETATM   17  C           1     -28.076  -5.374 -16.789  0.00  0.00     0.081 A 
HETATM   18  C           1     -28.859  -5.246 -15.641  0.00  0.00     0.038 A 
HETATM   19  C           1     -30.233  -5.470 -15.707  0.00  0.00     0.010 A 
BRANCH  17  20
HETATM   20  O           1     -26.740  -5.156 -16.725  0.00  0.00    -0.247 OA
BRANCH  20  21
HETATM   21  P           1     -25.796  -6.370 -16.230  0.00  0.00     0.411 P 
HETATM   22  O           1     -24.785  -5.852 -15.280  0.00  0.00    -0.624 OA
HETATM   23  O           1     -26.625  -7.396 -15.558  0.00  0.00    -0.624 OA
BRANCH  21  24
HETATM   24  O           1     -25.051  -7.027 -17.502  0.00  0.00    -0.300 OA
HETATM   25  H           1     -24.313  -6.466 -17.669  0.00  0.00     0.223 HD
ENDBRANCH  21  24
ENDBRANCH  20  21
ENDBRANCH  17  20
ENDBRANCH  13  14
ENDBRANCH   1  13
BRANCH   1  26
HETATM   26  N           1     -32.047  -3.608 -16.937  0.00  0.00    -0.066 N 
HETATM   27  H           1     -31.238  -3.872 -17.542  0.00  0.00     0.275 HD
HETATM   28  H           1     -32.505  -2.750 -17.320  0.00  0.00     0.275 HD
HETATM   29  H           1     -31.709  -3.419 -15.965  0.00  0.00     0.275 HD
ENDBRANCH   1  26
TORSDOF 11
ENDMDL
MODEL 8
REMARK VINA RESULT:      -6.5     13.610     14.742
REMARK  11 active torsions:
REMARK  status: ('A' for Active; 'I' for Inactive)
REMARK    1  A    between atoms: Se_1  and  C_2 
REMARK    2  A    between atoms: C_2  and  C_3 
REMARK    3  A    between atoms: C_3  and  C_4 
REMARK    4  A    between atoms: C_3  and  N_7 
REMARK       I    between atoms: N_7  and  C_8 
REMARK    5  A    between atoms: C_8  and  C_9 
REMARK    6  A    between atoms: C_9  and  C_10 
REMARK    7  A    between atoms: C_9  and  N_22 
REMARK    8  A    between atoms: C_10  and  C_11 
REMARK    9  A    between atoms: C_14  and  O_15 
REMARK   10  A    between atoms: O_15  and  P_16 
REMARK   11  A    between atoms: P_16  and  O_17 
ROOT
HETATM    1  C           1     -21.638  -6.769  -4.446  0.00  0.00     0.278 C 
ENDROOT
BRANCH   1   2
HETATM    2  C           1     -21.539  -8.201  -3.981  0.00  0.00     0.249 C 
HETATM    3  N           1     -21.580  -8.492  -2.644  0.00  0.00    -0.345 N 
HETATM    4  H           1     -21.676  -7.745  -1.967  0.00  0.00     0.163 HD
HETATM    5  O           1     -21.424  -9.092  -4.790  0.00  0.00    -0.271 OA
BRANCH   3   6
HETATM    6  C           1     -21.483  -9.867  -2.198  0.00  0.00     0.185 C 
BRANCH   6   7
HETATM    7  C           1     -20.102 -10.115  -1.606  0.00  0.00     0.039 C 
BRANCH   7   8
HETATM    8 Se           1     -19.893 -12.013  -1.217  0.00  0.00     0.000 Se
HETATM    9  H           1     -21.021 -12.430  -2.067  0.00  0.00     0.000 HD
ENDBRANCH   7   8
ENDBRANCH   6   7
BRANCH   6  10
HETATM   10  C           1     -22.534 -10.129  -1.146  0.00  0.00     0.196 C 
HETATM   11  O           1     -23.489 -10.897  -1.394  0.00  0.00    -0.646 OA
HETATM   12  O           1     -22.449  -9.578  -0.027  0.00  0.00    -0.646 OA
ENDBRANCH   6  10
ENDBRANCH   3   6
ENDBRANCH   1   2
BRANCH   1  13
HETATM   13  C           1     -20.555  -6.494  -5.480  0.00  0.00     0.081 C 
BRANCH  13  14
HETATM   14  C           1     -21.120  -5.663  -6.589  0.00  0.00    -0.056 A 
HETATM   15  C           1     -22.408  -5.138  -6.479  0.00  0.00     0.010 A 
HETATM   16  C           1     -22.936  -4.363  -7.512  0.00  0.00     0.038 A 
HETATM   17  C           1     -22.177  -4.114  -8.655  0.00  0.00     0.081 A 
HETATM   18  C           1     -20.889  -4.639  -8.765  0.00  0.00     0.038 A 
HETATM   19  C           1     -20.361  -5.413  -7.732  0.00  0.00     0.010 A 
BRANCH  17  20
HETATM   20  O           1     -22.689  -3.362  -9.658  0.00  0.00    -0.247 OA
BRANCH  20  21
HETATM   21  P           1     -23.619  -4.095 -10.758  0.00  0.00     0.411 P 
HETATM   22  O           1     -24.844  -3.294 -10.979  0.00  0.00    -0.624 OA
HETATM   23  O           1     -22.873  -4.219 -12.030  0.00  0.00    -0.624 OA
BRANCH  21  24
HETATM   24  O           1     -24.026  -5.564 -10.226  0.00  0.00    -0.300 OA
HETATM   25  H           1     -24.810  -5.431  -9.720  0.00  0.00     0.223 HD
ENDBRANCH  21  24
ENDBRANCH  20  21
ENDBRANCH  17  20
ENDBRANCH  13  14
ENDBRANCH   1  13
BRANCH   1  26
HETATM   26  N           1     -21.457  -5.850  -3.275  0.00  0.00    -0.066 N 
HETATM   27  H           1     -20.480  -5.479  -3.271  0.00  0.00     0.275 HD
HETATM   28  H           1     -22.131  -5.055  -3.349  0.00  0.00     0.275 HD
HETATM   29  H           1     -21.634  -6.376  -2.389  0.00  0.00     0.275 HD
ENDBRANCH   1  26
TORSDOF 11
ENDMDL
MODEL 9
REMARK VINA RESULT:      -6.4     13.736     14.923
REMARK  11 active torsions:
REMARK  status: ('A' for Active; 'I' for Inactive)
REMARK    1  A    between atoms: Se_1  and  C_2 
REMARK    2  A    between atoms: C_2  and  C_3 
REMARK    3  A    between atoms: C_3  and  C_4 
REMARK    4  A    between atoms: C_3  and  N_7 
REMARK       I    between atoms: N_7  and  C_8 
REMARK    5  A    between atoms: C_8  and  C_9 
REMARK    6  A    between atoms: C_9  and  C_10 
REMARK    7  A    between atoms: C_9  and  N_22 
REMARK    8  A    between atoms: C_10  and  C_11 
REMARK    9  A    between atoms: C_14  and  O_15 
REMARK   10  A    between atoms: O_15  and  P_16 
REMARK   11  A    between atoms: P_16  and  O_17 
ROOT
HETATM    1  C           1     -20.252  -7.654  -5.184  0.00  0.00     0.278 C 
ENDROOT
BRANCH   1   2
HETATM    2  C           1     -20.042  -8.369  -3.872  0.00  0.00     0.249 C 
HETATM    3  N           1     -21.037  -8.380  -2.932  0.00  0.00    -0.345 N 
HETATM    4  H           1     -21.913  -7.909  -3.117  0.00  0.00     0.163 HD
HETATM    5  O           1     -18.995  -8.931  -3.651  0.00  0.00    -0.271 OA
BRANCH   3   6
HETATM    6  C           1     -20.834  -9.066  -1.671  0.00  0.00     0.185 C 
BRANCH   6   7
HETATM    7  C           1     -21.262  -8.159  -0.524  0.00  0.00     0.039 C 
BRANCH   7   8
HETATM    8 Se           1     -22.325  -6.684  -1.223  0.00  0.00     0.000 Se
HETATM    9  H           1     -21.885  -5.726  -0.195  0.00  0.00     0.000 HD
ENDBRANCH   7   8
ENDBRANCH   6   7
BRANCH   6  10
HETATM   10  C           1     -21.661 -10.329  -1.647  0.00  0.00     0.196 C 
HETATM   11  O           1     -21.216 -11.377  -2.164  0.00  0.00    -0.646 OA
HETATM   12  O           1     -22.791 -10.326  -1.112  0.00  0.00    -0.646 OA
ENDBRANCH   6  10
ENDBRANCH   3   6
ENDBRANCH   1   2
BRANCH   1  13
HETATM   13  C           1     -20.803  -6.259  -4.921  0.00  0.00     0.081 C 
BRANCH  13  14
HETATM   14  C           1     -21.078  -5.575  -6.224  0.00  0.00    -0.056 A 
HETATM   15  C           1     -20.097  -5.544  -7.215  0.00  0.00     0.010 A 
HETATM   16  C           1     -20.352  -4.907  -8.429  0.00  0.00     0.038 A 
HETATM   17  C           1     -21.588  -4.300  -8.652  0.00  0.00     0.081 A 
HETATM   18  C           1     -22.569  -4.331  -7.661  0.00  0.00     0.038 A 
HETATM   19  C           1     -22.314  -4.968  -6.447  0.00  0.00     0.010 A 
BRANCH  17  20
HETATM   20  O           1     -21.836  -3.681  -9.831  0.00  0.00    -0.247 OA
BRANCH  20  21
HETATM   21  P           1     -23.089  -4.199 -10.710  0.00  0.00     0.411 P 
HETATM   22  O           1     -23.592  -5.473 -10.149  0.00  0.00    -0.624 OA
HETATM   23  O           1     -24.166  -3.184 -10.677  0.00  0.00    -0.624 OA
BRANCH  21  24
HETATM   24  O           1     -22.617  -4.433 -12.236  0.00  0.00    -0.300 OA
HETATM   25  H           1     -23.280  -4.987 -12.614  0.00  0.00     0.223 HD
ENDBRANCH  21  24
ENDBRANCH  20  21
ENDBRANCH  17  20
ENDBRANCH  13  14
ENDBRANCH   1  13
BRANCH   1  26
HETATM   26  N           1     -21.226  -8.426  -6.024  0.00  0.00    -0.066 N 
HETATM   27  H           1     -22.200  -8.129  -5.789  0.00  0.00     0.275 HD
HETATM   28  H           1     -21.039  -8.239  -7.034  0.00  0.00     0.275 HD
HETATM   29  H           1     -21.117  -9.448  -5.832  0.00  0.00     0.275 HD
ENDBRANCH   1  26
TORSDOF 11
ENDMDL
