MODEL 1
REMARK VINA RESULT:      -6.9      0.000      0.000
REMARK  8 active torsions:
REMARK  status: ('A' for Active; 'I' for Inactive)
REMARK    1  A    between atoms: C_2  and  C_3 
REMARK    2  A    between atoms: C_3  and  C_6 
REMARK    3  A    between atoms: C_3  and  N_23 
REMARK    4  A    between atoms: C_6  and  C_20 
REMARK       I    between atoms: C_7  and  N_23 
REMARK    5  A    between atoms: C_7  and  C_10 
REMARK    6  A    between atoms: C_8  and  C_9 
REMARK    7  A    between atoms: C_9  and  C_10 
REMARK    8  A    between atoms: C_10  and  N_22 
ROOT
HETATM    1  C           1     -34.490  -4.493 -11.995  0.00  0.00     0.280 C 
ENDROOT
BRANCH   1   2
HETATM    2  C           1     -34.461  -3.035 -11.607  0.00  0.00     0.249 C 
HETATM    3  N           1     -35.356  -2.161 -12.164  0.00  0.00    -0.344 N 
HETATM    4  H           1     -36.036  -2.492 -12.836  0.00  0.00     0.163 HD
HETATM    5  O           1     -33.649  -2.639 -10.806  0.00  0.00    -0.271 OA
BRANCH   3   6
HETATM    6  C           1     -35.328  -0.759 -11.792  0.00  0.00     0.195 C 
BRANCH   6   7
HETATM    7  C           1     -36.559  -0.430 -10.984  0.00  0.00     0.197 C 
HETATM    8  O           1     -36.542   0.529 -10.182  0.00  0.00    -0.646 OA
HETATM    9  O           1     -37.595  -1.117 -11.115  0.00  0.00    -0.646 OA
ENDBRANCH   6   7
BRANCH   6  10
HETATM   10  C           1     -35.302   0.100 -13.050  0.00  0.00     0.149 C 
BRANCH  10  11
HETATM   11  C           1     -35.859  -0.688 -14.209  0.00  0.00     0.175 C 
HETATM   12  O           1     -35.100  -1.393 -14.909  0.00  0.00    -0.648 OA
HETATM   13  O           1     -37.081  -0.638 -14.470  0.00  0.00    -0.648 OA
ENDBRANCH  10  11
ENDBRANCH   6  10
ENDBRANCH   3   6
ENDBRANCH   1   2
BRANCH   1  14
HETATM   14  C           1     -33.348  -5.226 -11.303  0.00  0.00     0.101 C 
BRANCH  14  15
HETATM   15  C           1     -33.878  -6.454 -10.630  0.00  0.00     0.028 A 
HETATM   16  C           1     -35.075  -6.522  -9.957  0.00  0.00     0.114 A 
HETATM   17  N           1     -35.157  -7.811  -9.509  0.00  0.00    -0.360 N 
HETATM   18  C           1     -34.028  -8.461  -9.920  0.00  0.00     0.180 A 
HETATM   19  H           1     -35.944  -8.226  -8.950  0.00  0.00     0.166 HD
HETATM   20  N           1     -33.237  -7.665 -10.600  0.00  0.00    -0.355 N 
ATOM     21  HN          1     -32.335  -7.898 -11.019  1.00  0.00     0.166 HD
ENDBRANCH  14  15
ENDBRANCH   1  14
BRANCH   1  22
HETATM   22  N           1     -34.334  -4.618 -13.482  0.00  0.00    -0.066 N 
HETATM   23  H           1     -33.494  -4.079 -13.790  0.00  0.00     0.275 HD
HETATM   24  H           1     -34.214  -5.625 -13.736  0.00  0.00     0.275 HD
HETATM   25  H           1     -35.186  -4.239 -13.954  0.00  0.00     0.275 HD
ENDBRANCH   1  22
TORSDOF 8
ENDMDL
MODEL 2
REMARK VINA RESULT:      -6.5     11.404     12.925
REMARK  8 active torsions:
REMARK  status: ('A' for Active; 'I' for Inactive)
REMARK    1  A    between atoms: C_2  and  C_3 
REMARK    2  A    between atoms: C_3  and  C_6 
REMARK    3  A    between atoms: C_3  and  N_23 
REMARK    4  A    between atoms: C_6  and  C_20 
REMARK       I    between atoms: C_7  and  N_23 
REMARK    5  A    between atoms: C_7  and  C_10 
REMARK    6  A    between atoms: C_8  and  C_9 
REMARK    7  A    between atoms: C_9  and  C_10 
REMARK    8  A    between atoms: C_10  and  N_22 
ROOT
HETATM    1  C           1     -26.138  -7.786 -20.652  0.00  0.00     0.280 C 
ENDROOT
BRANCH   1   2
HETATM    2  C           1     -26.901  -6.626 -20.061  0.00  0.00     0.249 C 
HETATM    3  N           1     -27.517  -6.759 -18.845  0.00  0.00    -0.344 N 
HETATM    4  H           1     -27.461  -7.636 -18.343  0.00  0.00     0.163 HD
HETATM    5  O           1     -26.969  -5.579 -20.660  0.00  0.00    -0.271 OA
BRANCH   3   6
HETATM    6  C           1     -28.250  -5.644 -18.277  0.00  0.00     0.195 C 
BRANCH   6   7
HETATM    7  C           1     -27.590  -5.213 -16.991  0.00  0.00     0.197 C 
HETATM    8  O           1     -28.214  -4.499 -16.177  0.00  0.00    -0.646 OA
HETATM    9  O           1     -26.418  -5.569 -16.740  0.00  0.00    -0.646 OA
ENDBRANCH   6   7
BRANCH   6  10
HETATM   10  C           1     -29.684  -6.072 -17.993  0.00  0.00     0.149 C 
BRANCH  10  11
HETATM   11  C           1     -29.771  -7.578 -17.996  0.00  0.00     0.175 C 
HETATM   12  O           1     -29.395  -8.227 -16.996  0.00  0.00    -0.648 OA
HETATM   13  O           1     -30.220  -8.177 -18.997  0.00  0.00    -0.648 OA
ENDBRANCH  10  11
ENDBRANCH   6  10
ENDBRANCH   3   6
ENDBRANCH   1   2
BRANCH   1  14
HETATM   14  C           1     -25.238  -7.284 -21.773  0.00  0.00     0.101 C 
BRANCH  14  15
HETATM   15  C           1     -23.921  -7.992 -21.711  0.00  0.00     0.028 A 
HETATM   16  C           1     -23.193  -8.187 -20.561  0.00  0.00     0.114 A 
HETATM   17  N           1     -22.075  -8.867 -20.961  0.00  0.00    -0.360 N 
HETATM   18  C           1     -22.168  -9.052 -22.310  0.00  0.00     0.180 A 
HETATM   19  H           1     -21.288  -9.187 -20.342  0.00  0.00     0.166 HD
HETATM   20  N           1     -23.274  -8.533 -22.791  0.00  0.00    -0.355 N 
ATOM     21  HN          1     -23.586  -8.533 -23.762  1.00  0.00     0.166 HD
ENDBRANCH  14  15
ENDBRANCH   1  14
BRANCH   1  22
HETATM   22  N           1     -27.106  -8.792 -21.201  0.00  0.00    -0.066 N 
HETATM   23  H           1     -28.081  -8.507 -20.955  0.00  0.00     0.275 HD
HETATM   24  H           1     -27.008  -8.838 -22.241  0.00  0.00     0.275 HD
HETATM   25  H           1     -26.903  -9.731 -20.790  0.00  0.00     0.275 HD
ENDBRANCH   1  22
TORSDOF 8
ENDMDL
MODEL 3
REMARK VINA RESULT:      -6.2     12.489     14.229
REMARK  8 active torsions:
REMARK  status: ('A' for Active; 'I' for Inactive)
REMARK    1  A    between atoms: C_2  and  C_3 
REMARK    2  A    between atoms: C_3  and  C_6 
REMARK    3  A    between atoms: C_3  and  N_23 
REMARK    4  A    between atoms: C_6  and  C_20 
REMARK       I    between atoms: C_7  and  N_23 
REMARK    5  A    between atoms: C_7  and  C_10 
REMARK    6  A    between atoms: C_8  and  C_9 
REMARK    7  A    between atoms: C_9  and  C_10 
REMARK    8  A    between atoms: C_10  and  N_22 
ROOT
HETATM    1  C           1     -21.230  -5.659  -6.968  0.00  0.00     0.280 C 
ENDROOT
BRANCH   1   2
HETATM    2  C           1     -21.749  -4.570  -7.875  0.00  0.00     0.249 C 
HETATM    3  N           1     -22.332  -4.894  -9.070  0.00  0.00    -0.344 N 
HETATM    4  H           1     -22.413  -5.864  -9.347  0.00  0.00     0.163 HD
HETATM    5  O           1     -21.652  -3.412  -7.545  0.00  0.00    -0.271 OA
BRANCH   3   6
HETATM    6  C           1     -22.831  -3.848  -9.942  0.00  0.00     0.195 C 
BRANCH   6   7
HETATM    7  C           1     -24.319  -4.013 -10.122  0.00  0.00     0.197 C 
HETATM    8  O           1     -24.980  -3.128 -10.707  0.00  0.00    -0.646 OA
HETATM    9  O           1     -24.892  -5.036  -9.688  0.00  0.00    -0.646 OA
ENDBRANCH   6   7
BRANCH   6  10
HETATM   10  C           1     -22.141  -3.943 -11.297  0.00  0.00     0.149 C 
BRANCH  10  11
HETATM   11  C           1     -20.658  -3.727 -11.123  0.00  0.00     0.175 C 
HETATM   12  O           1     -19.913  -4.693 -10.850  0.00  0.00    -0.648 OA
HETATM   13  O           1     -20.173  -2.582 -11.253  0.00  0.00    -0.648 OA
ENDBRANCH  10  11
ENDBRANCH   6  10
ENDBRANCH   3   6
ENDBRANCH   1   2
BRANCH   1  14
HETATM   14  C           1     -20.940  -5.078  -5.590  0.00  0.00     0.101 C 
BRANCH  14  15
HETATM   15  C           1     -21.243  -6.104  -4.543  0.00  0.00     0.028 A 
HETATM   16  C           1     -21.413  -7.446  -4.789  0.00  0.00     0.114 A 
HETATM   17  N           1     -21.670  -8.000  -3.566  0.00  0.00    -0.360 N 
HETATM   18  C           1     -21.648  -6.993  -2.645  0.00  0.00     0.180 A 
HETATM   19  H           1     -21.852  -9.017  -3.370  0.00  0.00     0.166 HD
HETATM   20  N           1     -21.392  -5.834  -3.207  0.00  0.00    -0.355 N 
ATOM     21  HN          1     -21.319  -4.926  -2.748  1.00  0.00     0.166 HD
ENDBRANCH  14  15
ENDBRANCH   1  14
BRANCH   1  22
HETATM   22  N           1     -19.967  -6.229  -7.545  0.00  0.00    -0.066 N 
HETATM   23  H           1     -19.884  -5.945  -8.547  0.00  0.00     0.275 HD
HETATM   24  H           1     -19.145  -5.865  -7.010  0.00  0.00     0.275 HD
HETATM   25  H           1     -19.993  -7.271  -7.478  0.00  0.00     0.275 HD
ENDBRANCH   1  22
TORSDOF 8
ENDMDL
MODEL 4
REMARK VINA RESULT:      -5.7      8.845     10.485
REMARK  8 active torsions:
REMARK  status: ('A' for Active; 'I' for Inactive)
REMARK    1  A    between atoms: C_2  and  C_3 
REMARK    2  A    between atoms: C_3  and  C_6 
REMARK    3  A    between atoms: C_3  and  N_23 
REMARK    4  A    between atoms: C_6  and  C_20 
REMARK       I    between atoms: C_7  and  N_23 
REMARK    5  A    between atoms: C_7  and  C_10 
REMARK    6  A    between atoms: C_8  and  C_9 
REMARK    7  A    between atoms: C_9  and  C_10 
REMARK    8  A    between atoms: C_10  and  N_22 
ROOT
HETATM    1  C           1     -27.959  -7.606 -19.312  0.00  0.00     0.280 C 
ENDROOT
BRANCH   1   2
HETATM    2  C           1     -29.139  -7.020 -18.576  0.00  0.00     0.249 C 
HETATM    3  N           1     -29.028  -5.800 -17.966  0.00  0.00    -0.344 N 
HETATM    4  H           1     -28.154  -5.291 -18.007  0.00  0.00     0.163 HD
HETATM    5  O           1     -30.182  -7.628 -18.526  0.00  0.00    -0.271 OA
BRANCH   3   6
HETATM    6  C           1     -30.162  -5.237 -17.258  0.00  0.00     0.195 C 
BRANCH   6   7
HETATM    7  C           1     -30.238  -3.755 -17.531  0.00  0.00     0.197 C 
HETATM    8  O           1     -29.188  -3.084 -17.639  0.00  0.00    -0.646 OA
HETATM    9  O           1     -31.350  -3.197 -17.649  0.00  0.00    -0.646 OA
ENDBRANCH   6   7
BRANCH   6  10
HETATM   10  C           1     -29.993  -5.469 -15.762  0.00  0.00     0.149 C 
BRANCH  10  11
HETATM   11  C           1     -28.569  -5.873 -15.472  0.00  0.00     0.175 C 
HETATM   12  O           1     -27.656  -5.019 -15.515  0.00  0.00    -0.648 OA
HETATM   13  O           1     -28.301  -7.060 -15.188  0.00  0.00    -0.648 OA
ENDBRANCH  10  11
ENDBRANCH   6  10
ENDBRANCH   3   6
ENDBRANCH   1   2
BRANCH   1  14
HETATM   14  C           1     -26.919  -6.520 -19.551  0.00  0.00     0.101 C 
BRANCH  14  15
HETATM   15  C           1     -25.714  -6.789 -18.704  0.00  0.00     0.028 A 
HETATM   16  C           1     -24.450  -7.019 -19.194  0.00  0.00     0.114 A 
HETATM   17  N           1     -23.671  -7.214 -18.087  0.00  0.00    -0.360 N 
HETATM   18  C           1     -24.478  -7.099 -16.992  0.00  0.00     0.180 A 
HETATM   19  H           1     -22.640  -7.417 -18.081  0.00  0.00     0.166 HD
HETATM   20  N           1     -25.719  -6.842 -17.335  0.00  0.00    -0.355 N 
ATOM     21  HN          1     -26.518  -6.709 -16.714  1.00  0.00     0.166 HD
ENDBRANCH  14  15
ENDBRANCH   1  14
BRANCH   1  22
HETATM   22  N           1     -28.417  -8.157 -20.631  0.00  0.00    -0.066 N 
HETATM   23  H           1     -28.425  -7.392 -21.343  0.00  0.00     0.275 HD
HETATM   24  H           1     -27.763  -8.913 -20.938  0.00  0.00     0.275 HD
HETATM   25  H           1     -29.380  -8.549 -20.529  0.00  0.00     0.275 HD
ENDBRANCH   1  22
TORSDOF 8
ENDMDL
MODEL 5
REMARK VINA RESULT:      -5.7     13.389     16.042
REMARK  8 active torsions:
REMARK  status: ('A' for Active; 'I' for Inactive)
REMARK    1  A    between atoms: C_2  and  C_3 
REMARK    2  A    between atoms: C_3  and  C_6 
REMARK    3  A    between atoms: C_3  and  N_23 
REMARK    4  A    between atoms: C_6  and  C_20 
REMARK       I    between atoms: C_7  and  N_23 
REMARK    5  A    between atoms: C_7  and  C_10 
REMARK    6  A    between atoms: C_8  and  C_9 
REMARK    7  A    between atoms: C_9  and  C_10 
REMARK    8  A    between atoms: C_10  and  N_22 
ROOT
HETATM    1  C           1     -21.020  -4.260  -7.465  0.00  0.00     0.280 C 
ENDROOT
BRANCH   1   2
HETATM    2  C           1     -20.693  -5.003  -6.192  0.00  0.00     0.249 C 
HETATM    3  N           1     -21.050  -6.317  -6.056  0.00  0.00    -0.344 N 
HETATM    4  H           1     -21.534  -6.791  -6.808  0.00  0.00     0.163 HD
HETATM    5  O           1     -20.116  -4.437  -5.295  0.00  0.00    -0.271 OA
BRANCH   3   6
HETATM    6  C           1     -20.736  -7.031  -4.833  0.00  0.00     0.195 C 
BRANCH   6   7
HETATM    7  C           1     -20.217  -8.406  -5.173  0.00  0.00     0.197 C 
HETATM    8  O           1     -20.939  -9.208  -5.803  0.00  0.00    -0.646 OA
HETATM    9  O           1     -19.064  -8.743  -4.826  0.00  0.00    -0.646 OA
ENDBRANCH   6   7
BRANCH   6  10
HETATM   10  C           1     -21.993  -7.159  -3.982  0.00  0.00     0.149 C 
BRANCH  10  11
HETATM   11  C           1     -21.683  -6.755  -2.562  0.00  0.00     0.175 C 
HETATM   12  O           1     -22.215  -5.736  -2.071  0.00  0.00    -0.648 OA
HETATM   13  O           1     -20.894  -7.440  -1.875  0.00  0.00    -0.648 OA
ENDBRANCH  10  11
ENDBRANCH   6  10
ENDBRANCH   3   6
ENDBRANCH   1   2
BRANCH   1  14
HETATM   14  C           1     -21.705  -5.206  -8.443  0.00  0.00     0.101 C 
BRANCH  14  15
HETATM   15  C           1     -22.852  -4.502  -9.098  0.00  0.00     0.028 A 
HETATM   16  C           1     -23.077  -4.467 -10.454  0.00  0.00     0.114 A 
HETATM   17  N           1     -24.215  -3.726 -10.606  0.00  0.00    -0.360 N 
HETATM   18  C           1     -24.628  -3.346  -9.360  0.00  0.00     0.180 A 
HETATM   19  H           1     -24.687  -3.490 -11.515  0.00  0.00     0.166 HD
HETATM   20  N           1     -23.822  -3.801  -8.429  0.00  0.00    -0.355 N 
ATOM     21  HN          1     -23.900  -3.663  -7.421  1.00  0.00     0.166 HD
ENDBRANCH  14  15
ENDBRANCH   1  14
BRANCH   1  22
HETATM   22  N           1     -19.754  -3.739  -8.078  0.00  0.00    -0.066 N 
HETATM   23  H           1     -18.988  -4.435  -7.939  0.00  0.00     0.275 HD
HETATM   24  H           1     -19.902  -3.583  -9.102  0.00  0.00     0.275 HD
HETATM   25  H           1     -19.492  -2.836  -7.622  0.00  0.00     0.275 HD
ENDBRANCH   1  22
TORSDOF 8
ENDMDL
MODEL 6
REMARK VINA RESULT:      -5.7     11.008     12.438
REMARK  8 active torsions:
REMARK  status: ('A' for Active; 'I' for Inactive)
REMARK    1  A    between atoms: C_2  and  C_3 
REMARK    2  A    between atoms: C_3  and  C_6 
REMARK    3  A    between atoms: C_3  and  N_23 
REMARK    4  A    between atoms: C_6  and  C_20 
REMARK       I    between atoms: C_7  and  N_23 
REMARK    5  A    between atoms: C_7  and  C_10 
REMARK    6  A    between atoms: C_8  and  C_9 
REMARK    7  A    between atoms: C_9  and  C_10 
REMARK    8  A    between atoms: C_10  and  N_22 
ROOT
HETATM    1  C           1     -26.008  -7.636 -20.109  0.00  0.00     0.280 C 
ENDROOT
BRANCH   1   2
HETATM    2  C           1     -26.505  -6.802 -18.953  0.00  0.00     0.249 C 
HETATM    3  N           1     -27.849  -6.605 -18.778  0.00  0.00    -0.344 N 
HETATM    4  H           1     -28.509  -7.019 -19.425  0.00  0.00     0.163 HD
HETATM    5  O           1     -25.718  -6.308 -18.182  0.00  0.00    -0.271 OA
BRANCH   3   6
HETATM    6  C           1     -28.326  -5.804 -17.669  0.00  0.00     0.195 C 
BRANCH   6   7
HETATM    7  C           1     -29.263  -6.628 -16.821  0.00  0.00     0.197 C 
HETATM    8  O           1     -29.660  -6.190 -15.720  0.00  0.00    -0.646 OA
HETATM    9  O           1     -29.643  -7.751 -17.220  0.00  0.00    -0.646 OA
ENDBRANCH   6   7
BRANCH   6  10
HETATM   10  C           1     -29.067  -4.584 -18.203  0.00  0.00     0.149 C 
BRANCH  10  11
HETATM   11  C           1     -28.759  -3.389 -17.336  0.00  0.00     0.175 C 
HETATM   12  O           1     -29.443  -2.348 -17.441  0.00  0.00    -0.648 OA
HETATM   13  O           1     -27.822  -3.440 -16.510  0.00  0.00    -0.648 OA
ENDBRANCH  10  11
ENDBRANCH   6  10
ENDBRANCH   3   6
ENDBRANCH   1   2
BRANCH   1  14
HETATM   14  C           1     -25.109  -6.788 -20.998  0.00  0.00     0.101 C 
BRANCH  14  15
HETATM   15  C           1     -23.996  -7.633 -21.534  0.00  0.00     0.028 A 
HETATM   16  C           1     -23.660  -7.731 -22.864  0.00  0.00     0.114 A 
HETATM   17  N           1     -22.603  -8.598 -22.899  0.00  0.00    -0.360 N 
HETATM   18  C           1     -22.346  -8.985 -21.615  0.00  0.00     0.180 A 
HETATM   19  H           1     -22.084  -8.911 -23.757  0.00  0.00     0.166 HD
HETATM   20  N           1     -23.174  -8.417 -20.768  0.00  0.00    -0.355 N 
ATOM     21  HN          1     -23.199  -8.534 -19.755  1.00  0.00     0.166 HD
ENDBRANCH  14  15
ENDBRANCH   1  14
BRANCH   1  22
HETATM   22  N           1     -27.178  -8.130 -20.907  0.00  0.00    -0.066 N 
HETATM   23  H           1     -28.065  -7.894 -20.407  0.00  0.00     0.275 HD
HETATM   24  H           1     -27.176  -7.673 -21.848  0.00  0.00     0.275 HD
HETATM   25  H           1     -27.108  -9.166 -21.023  0.00  0.00     0.275 HD
ENDBRANCH   1  22
TORSDOF 8
ENDMDL
MODEL 7
REMARK VINA RESULT:      -5.7     14.187     16.338
REMARK  8 active torsions:
REMARK  status: ('A' for Active; 'I' for Inactive)
REMARK    1  A    between atoms: C_2  and  C_3 
REMARK    2  A    between atoms: C_3  and  C_6 
REMARK    3  A    between atoms: C_3  and  N_23 
REMARK    4  A    between atoms: C_6  and  C_20 
REMARK       I    between atoms: C_7  and  N_23 
REMARK    5  A    between atoms: C_7  and  C_10 
REMARK    6  A    between atoms: C_8  and  C_9 
REMARK    7  A    between atoms: C_9  and  C_10 
REMARK    8  A    between atoms: C_10  and  N_22 
ROOT
HETATM    1  C           1     -22.296  -5.127  -6.971  0.00  0.00     0.280 C 
ENDROOT
BRANCH   1   2
HETATM    2  C           1     -21.399  -5.635  -5.869  0.00  0.00     0.249 C 
HETATM    3  N           1     -21.707  -6.801  -5.219  0.00  0.00    -0.344 N 
HETATM    4  H           1     -22.537  -7.320  -5.477  0.00  0.00     0.163 HD
HETATM    5  O           1     -20.410  -5.016  -5.560  0.00  0.00    -0.271 OA
BRANCH   3   6
HETATM    6  C           1     -20.846  -7.289  -4.159  0.00  0.00     0.195 C 
BRANCH   6   7
HETATM    7  C           1     -20.029  -8.449  -4.672  0.00  0.00     0.197 C 
HETATM    8  O           1     -18.952  -8.750  -4.114  0.00  0.00    -0.646 OA
HETATM    9  O           1     -20.429  -9.109  -5.656  0.00  0.00    -0.646 OA
ENDBRANCH   6   7
BRANCH   6  10
HETATM   10  C           1     -21.698  -7.750  -2.983  0.00  0.00     0.149 C 
BRANCH  10  11
HETATM   11  C           1     -22.022  -6.568  -2.103  0.00  0.00     0.175 C 
HETATM   12  O           1     -21.645  -5.422  -2.431  0.00  0.00    -0.648 OA
HETATM   13  O           1     -22.669  -6.734  -1.046  0.00  0.00    -0.648 OA
ENDBRANCH  10  11
ENDBRANCH   6  10
ENDBRANCH   3   6
ENDBRANCH   1   2
BRANCH   1  14
HETATM   14  C           1     -21.693  -3.865  -7.575  0.00  0.00     0.101 C 
BRANCH  14  15
HETATM   15  C           1     -21.487  -4.064  -9.044  0.00  0.00     0.028 A 
HETATM   16  C           1     -22.492  -4.319  -9.947  0.00  0.00     0.114 A 
HETATM   17  N           1     -21.863  -4.430 -11.156  0.00  0.00    -0.360 N 
HETATM   18  C           1     -20.528  -4.242 -10.943  0.00  0.00     0.180 A 
HETATM   19  H           1     -22.324  -4.624 -12.080  0.00  0.00     0.166 HD
HETATM   20  N           1     -20.271  -4.020  -9.674  0.00  0.00    -0.355 N 
ATOM     21  HN          1     -19.360  -3.849  -9.248  1.00  0.00     0.166 HD
ENDBRANCH  14  15
ENDBRANCH   1  14
BRANCH   1  22
HETATM   22  N           1     -23.651  -4.813  -6.408  0.00  0.00    -0.066 N 
HETATM   23  H           1     -23.911  -5.539  -5.703  0.00  0.00     0.275 HD
HETATM   24  H           1     -23.628  -3.873  -5.950  0.00  0.00     0.275 HD
HETATM   25  H           1     -24.355  -4.807  -7.180  0.00  0.00     0.275 HD
ENDBRANCH   1  22
TORSDOF 8
ENDMDL
MODEL 8
REMARK VINA RESULT:      -5.6     13.602     16.235
REMARK  8 active torsions:
REMARK  status: ('A' for Active; 'I' for Inactive)
REMARK    1  A    between atoms: C_2  and  C_3 
REMARK    2  A    between atoms: C_3  and  C_6 
REMARK    3  A    between atoms: C_3  and  N_23 
REMARK    4  A    between atoms: C_6  and  C_20 
REMARK       I    between atoms: C_7  and  N_23 
REMARK    5  A    between atoms: C_7  and  C_10 
REMARK    6  A    between atoms: C_8  and  C_9 
REMARK    7  A    between atoms: C_9  and  C_10 
REMARK    8  A    between atoms: C_10  and  N_22 
ROOT
HETATM    1  C           1     -20.610  -5.085  -6.615  0.00  0.00     0.280 C 
ENDROOT
BRANCH   1   2
HETATM    2  C           1     -21.472  -5.852  -5.641  0.00  0.00     0.249 C 
HETATM    3  N           1     -20.901  -6.759  -4.789  0.00  0.00    -0.344 N 
HETATM    4  H           1     -19.902  -6.916  -4.813  0.00  0.00     0.163 HD
HETATM    5  O           1     -22.665  -5.665  -5.613  0.00  0.00    -0.271 OA
BRANCH   3   6
HETATM    6  C           1     -21.729  -7.496  -3.854  0.00  0.00     0.195 C 
BRANCH   6   7
HETATM    7  C           1     -21.606  -6.880  -2.482  0.00  0.00     0.197 C 
HETATM    8  O           1     -20.841  -7.389  -1.635  0.00  0.00    -0.646 OA
HETATM    9  O           1     -22.269  -5.861  -2.193  0.00  0.00    -0.646 OA
ENDBRANCH   6   7
BRANCH   6  10
HETATM   10  C           1     -21.268  -8.947  -3.802  0.00  0.00     0.149 C 
BRANCH  10  11
HETATM   11  C           1     -20.005  -9.104  -4.613  0.00  0.00     0.175 C 
HETATM   12  O           1     -18.893  -8.888  -4.085  0.00  0.00    -0.648 OA
HETATM   13  O           1     -20.072  -9.451  -5.812  0.00  0.00    -0.648 OA
ENDBRANCH  10  11
ENDBRANCH   6  10
ENDBRANCH   3   6
ENDBRANCH   1   2
BRANCH   1  14
HETATM   14  C           1     -21.262  -3.744  -6.922  0.00  0.00     0.101 C 
BRANCH  14  15
HETATM   15  C           1     -22.176  -3.891  -8.099  0.00  0.00     0.028 A 
HETATM   16  C           1     -21.779  -3.805  -9.412  0.00  0.00     0.114 A 
HETATM   17  N           1     -22.920  -3.997 -10.140  0.00  0.00    -0.360 N 
HETATM   18  C           1     -23.944  -4.187  -9.257  0.00  0.00     0.180 A 
HETATM   19  H           1     -22.996  -3.997 -11.189  0.00  0.00     0.166 HD
HETATM   20  N           1     -23.523  -4.128  -8.015  0.00  0.00    -0.355 N 
ATOM     21  HN          1     -24.080  -4.236  -7.167  1.00  0.00     0.166 HD
ENDBRANCH  14  15
ENDBRANCH   1  14
BRANCH   1  22
HETATM   22  N           1     -20.468  -5.873  -7.883  0.00  0.00    -0.066 N 
HETATM   23  H           1     -19.454  -6.030  -8.083  0.00  0.00     0.275 HD
HETATM   24  H           1     -20.948  -6.796  -7.776  0.00  0.00     0.275 HD
HETATM   25  H           1     -20.901  -5.344  -8.673  0.00  0.00     0.275 HD
ENDBRANCH   1  22
TORSDOF 8
ENDMDL
MODEL 9
REMARK VINA RESULT:      -5.4     10.012     11.726
REMARK  8 active torsions:
REMARK  status: ('A' for Active; 'I' for Inactive)
REMARK    1  A    between atoms: C_2  and  C_3 
REMARK    2  A    between atoms: C_3  and  C_6 
REMARK    3  A    between atoms: C_3  and  N_23 
REMARK    4  A    between atoms: C_6  and  C_20 
REMARK       I    between atoms: C_7  and  N_23 
REMARK    5  A    between atoms: C_7  and  C_10 
REMARK    6  A    between atoms: C_8  and  C_9 
REMARK    7  A    between atoms: C_9  and  C_10 
REMARK    8  A    between atoms: C_10  and  N_22 
ROOT
HETATM    1  C           1     -27.727  -8.150 -20.006  0.00  0.00     0.280 C 
ENDROOT
BRANCH   1   2
HETATM    2  C           1     -28.710  -7.704 -18.952  0.00  0.00     0.249 C 
HETATM    3  N           1     -28.362  -6.723 -18.062  0.00  0.00    -0.344 N 
HETATM    4  H           1     -27.445  -6.298 -18.111  0.00  0.00     0.163 HD
HETATM    5  O           1     -29.804  -8.211 -18.894  0.00  0.00    -0.271 OA
BRANCH   3   6
HETATM    6  C           1     -29.307  -6.294 -17.049  0.00  0.00     0.195 C 
BRANCH   6   7
HETATM    7  C           1     -29.964  -5.009 -17.488  0.00  0.00     0.197 C 
HETATM    8  O           1     -31.142  -4.763 -17.151  0.00  0.00    -0.646 OA
HETATM    9  O           1     -29.330  -4.190 -18.188  0.00  0.00    -0.646 OA
ENDBRANCH   6   7
BRANCH   6  10
HETATM   10  C           1     -28.574  -6.066 -15.734  0.00  0.00     0.149 C 
BRANCH  10  11
HETATM   11  C           1     -27.098  -6.315 -15.931  0.00  0.00     0.175 C 
HETATM   12  O           1     -26.391  -5.458 -16.504  0.00  0.00    -0.648 OA
HETATM   13  O           1     -26.583  -7.377 -15.519  0.00  0.00    -0.648 OA
ENDBRANCH  10  11
ENDBRANCH   6  10
ENDBRANCH   3   6
ENDBRANCH   1   2
BRANCH   1  14
HETATM   14  C           1     -26.835  -6.979 -20.397  0.00  0.00     0.101 C 
BRANCH  14  15
HETATM   15  C           1     -25.405  -7.423 -20.411  0.00  0.00     0.028 A 
HETATM   16  C           1     -24.500  -7.174 -19.407  0.00  0.00     0.114 A 
HETATM   17  N           1     -23.334  -7.751 -19.830  0.00  0.00    -0.360 N 
HETATM   18  C           1     -23.574  -8.316 -21.050  0.00  0.00     0.180 A 
HETATM   19  H           1     -22.421  -7.759 -19.311  0.00  0.00     0.166 HD
HETATM   20  N           1     -24.819  -8.133 -21.427  0.00  0.00    -0.355 N 
ATOM     21  HN          1     -25.257  -8.451 -22.291  1.00  0.00     0.166 HD
ENDBRANCH  14  15
ENDBRANCH   1  14
BRANCH   1  22
HETATM   22  N           1     -28.474  -8.632 -21.214  0.00  0.00    -0.066 N 
HETATM   23  H           1     -28.086  -9.554 -21.517  0.00  0.00     0.275 HD
HETATM   24  H           1     -29.487  -8.741 -20.977  0.00  0.00     0.275 HD
HETATM   25  H           1     -28.370  -7.939 -21.989  0.00  0.00     0.275 HD
ENDBRANCH   1  22
TORSDOF 8
ENDMDL
