MODEL 1
REMARK VINA RESULT:      -5.8      0.000      0.000
REMARK  7 active torsions:
REMARK  status: ('A' for Active; 'I' for Inactive)
REMARK    1  A    between atoms: C_1  and  C_9 
REMARK    2  A    between atoms: C_1  and  S_7 
REMARK    3  A    between atoms: N_3  and  C_10 
REMARK    4  A    between atoms: C_9  and  C_10 
REMARK    5  A    between atoms: C_10  and  C_11 
REMARK       I    between atoms: C_11  and  N_12 
REMARK    6  A    between atoms: N_12  and  C_17 
REMARK    7  A    between atoms: C_13  and  C_17 
ROOT
HETATM    1  C           1     -34.434  -2.506 -11.788  0.00  0.00     0.275 C 
ENDROOT
BRANCH   1   2
HETATM    2  N           1     -33.851  -1.642 -10.710  0.00  0.00    -0.066 N 
HETATM    3  H           1     -33.655  -0.690 -11.094  0.00  0.00     0.275 HD
HETATM    4  H           1     -34.531  -1.564  -9.920  0.00  0.00     0.275 HD
HETATM    5  H           1     -32.962  -2.068 -10.364  0.00  0.00     0.275 HD
ENDBRANCH   1   2
BRANCH   1   6
HETATM    6  C           1     -35.248  -3.626 -11.155  0.00  0.00     0.053 C 
BRANCH   6   7
HETATM    7  C           1     -34.949  -4.938 -11.869  0.00  0.00     0.076 C 
BRANCH   7   8
HETATM    8  S           1     -33.627  -5.818 -10.991  0.00  0.00    -0.173 SA
HETATM    9  C           1     -34.681  -7.124 -10.300  0.00  0.00     0.089 C 
ENDBRANCH   7   8
ENDBRANCH   6   7
ENDBRANCH   1   6
BRANCH   1  10
HETATM   10  C           1     -35.329  -1.671 -12.671  0.00  0.00     0.249 C 
HETATM   11  O           1     -36.464  -1.437 -12.332  0.00  0.00    -0.271 OA
HETATM   12  N           1     -34.854  -1.177 -13.857  0.00  0.00    -0.345 N 
HETATM   13  H           1     -33.902  -1.373 -14.140  0.00  0.00     0.163 HD
BRANCH  12  14
HETATM   14  C           1     -35.713  -0.375 -14.705  0.00  0.00     0.181 C 
HETATM   15  C           1     -35.169   1.046 -14.780  0.00  0.00     0.043 C 
BRANCH  14  16
HETATM   16  C           1     -35.751  -0.974 -16.090  0.00  0.00     0.196 C 
HETATM   17  O           1     -36.462  -0.454 -16.977  0.00  0.00    -0.646 OA
HETATM   18  O           1     -35.071  -1.990 -16.350  0.00  0.00    -0.646 OA
ENDBRANCH  14  16
ENDBRANCH  12  14
ENDBRANCH   1  10
TORSDOF 7
ENDMDL
MODEL 2
REMARK VINA RESULT:      -5.5     13.475     14.473
REMARK  7 active torsions:
REMARK  status: ('A' for Active; 'I' for Inactive)
REMARK    1  A    between atoms: C_1  and  C_9 
REMARK    2  A    between atoms: C_1  and  S_7 
REMARK    3  A    between atoms: N_3  and  C_10 
REMARK    4  A    between atoms: C_9  and  C_10 
REMARK    5  A    between atoms: C_10  and  C_11 
REMARK       I    between atoms: C_11  and  N_12 
REMARK    6  A    between atoms: N_12  and  C_17 
REMARK    7  A    between atoms: C_13  and  C_17 
ROOT
HETATM    1  C           1     -21.238  -5.881  -6.989  0.00  0.00     0.275 C 
ENDROOT
BRANCH   1   2
HETATM    2  N           1     -19.819  -6.192  -7.360  0.00  0.00    -0.066 N 
HETATM    3  H           1     -19.175  -5.794  -6.639  0.00  0.00     0.275 HD
HETATM    4  H           1     -19.690  -7.228  -7.406  0.00  0.00     0.275 HD
HETATM    5  H           1     -19.601  -5.771  -8.292  0.00  0.00     0.275 HD
ENDBRANCH   1   2
BRANCH   1   6
HETATM    6  C           1     -21.322  -5.603  -5.494  0.00  0.00     0.053 C 
BRANCH   6   7
HETATM    7  C           1     -22.168  -6.679  -4.823  0.00  0.00     0.076 C 
BRANCH   7   8
HETATM    8  S           1     -21.300  -7.305  -3.358  0.00  0.00    -0.173 SA
HETATM    9  C           1     -22.071  -6.170  -2.170  0.00  0.00     0.089 C 
ENDBRANCH   7   8
ENDBRANCH   6   7
ENDBRANCH   1   6
BRANCH   1  10
HETATM   10  C           1     -21.702  -4.665  -7.754  0.00  0.00     0.249 C 
HETATM   11  O           1     -21.611  -3.568  -7.257  0.00  0.00    -0.271 OA
HETATM   12  N           1     -22.226  -4.806  -9.011  0.00  0.00    -0.345 N 
HETATM   13  H           1     -22.302  -5.726  -9.427  0.00  0.00     0.163 HD
BRANCH  12  14
HETATM   14  C           1     -22.672  -3.639  -9.746  0.00  0.00     0.181 C 
HETATM   15  C           1     -21.796  -3.449 -10.977  0.00  0.00     0.043 C 
BRANCH  14  16
HETATM   16  C           1     -24.106  -3.832 -10.172  0.00  0.00     0.196 C 
HETATM   17  O           1     -24.722  -4.870  -9.846  0.00  0.00    -0.646 OA
HETATM   18  O           1     -24.680  -2.954 -10.853  0.00  0.00    -0.646 OA
ENDBRANCH  14  16
ENDBRANCH  12  14
ENDBRANCH   1  10
TORSDOF 7
ENDMDL
MODEL 3
REMARK VINA RESULT:      -5.3     10.880     11.584
REMARK  7 active torsions:
REMARK  status: ('A' for Active; 'I' for Inactive)
REMARK    1  A    between atoms: C_1  and  C_9 
REMARK    2  A    between atoms: C_1  and  S_7 
REMARK    3  A    between atoms: N_3  and  C_10 
REMARK    4  A    between atoms: C_9  and  C_10 
REMARK    5  A    between atoms: C_10  and  C_11 
REMARK       I    between atoms: C_11  and  N_12 
REMARK    6  A    between atoms: N_12  and  C_17 
REMARK    7  A    between atoms: C_13  and  C_17 
ROOT
HETATM    1  C           1     -24.866  -6.783 -17.152  0.00  0.00     0.275 C 
ENDROOT
BRANCH   1   2
HETATM    2  N           1     -23.944  -7.929 -16.859  0.00  0.00    -0.066 N 
HETATM    3  H           1     -22.954  -7.624 -17.000  0.00  0.00     0.275 HD
HETATM    4  H           1     -24.074  -8.237 -15.869  0.00  0.00     0.275 HD
HETATM    5  H           1     -24.159  -8.723 -17.503  0.00  0.00     0.275 HD
ENDBRANCH   1   2
BRANCH   1   6
HETATM    6  C           1     -25.181  -6.754 -18.642  0.00  0.00     0.053 C 
BRANCH   6   7
HETATM    7  C           1     -24.042  -7.407 -19.415  0.00  0.00     0.076 C 
BRANCH   7   8
HETATM    8  S           1     -24.621  -7.863 -21.074  0.00  0.00    -0.173 SA
HETATM    9  C           1     -23.009  -8.416 -21.701  0.00  0.00     0.089 C 
ENDBRANCH   7   8
ENDBRANCH   6   7
ENDBRANCH   1   6
BRANCH   1  10
HETATM   10  C           1     -26.145  -6.956 -16.371  0.00  0.00     0.249 C 
HETATM   11  O           1     -26.115  -7.425 -15.258  0.00  0.00    -0.271 OA
HETATM   12  N           1     -27.341  -6.580 -16.923  0.00  0.00    -0.345 N 
HETATM   13  H           1     -27.366  -6.187 -17.855  0.00  0.00     0.163 HD
BRANCH  12  14
HETATM   14  C           1     -28.570  -6.746 -16.173  0.00  0.00     0.181 C 
HETATM   15  C           1     -28.898  -5.450 -15.442  0.00  0.00     0.043 C 
BRANCH  14  16
HETATM   16  C           1     -29.694  -7.088 -17.120  0.00  0.00     0.196 C 
HETATM   17  O           1     -30.587  -6.247 -17.361  0.00  0.00    -0.646 OA
HETATM   18  O           1     -29.732  -8.213 -17.665  0.00  0.00    -0.646 OA
ENDBRANCH  14  16
ENDBRANCH  12  14
ENDBRANCH   1  10
TORSDOF 7
ENDMDL
MODEL 4
REMARK VINA RESULT:      -5.2     11.871     12.612
REMARK  7 active torsions:
REMARK  status: ('A' for Active; 'I' for Inactive)
REMARK    1  A    between atoms: C_1  and  C_9 
REMARK    2  A    between atoms: C_1  and  S_7 
REMARK    3  A    between atoms: N_3  and  C_10 
REMARK    4  A    between atoms: C_9  and  C_10 
REMARK    5  A    between atoms: C_10  and  C_11 
REMARK       I    between atoms: C_11  and  N_12 
REMARK    6  A    between atoms: N_12  and  C_17 
REMARK    7  A    between atoms: C_13  and  C_17 
ROOT
HETATM    1  C           1     -24.919  -6.774 -19.596  0.00  0.00     0.275 C 
ENDROOT
BRANCH   1   2
HETATM    2  N           1     -24.183  -7.570 -18.560  0.00  0.00    -0.066 N 
HETATM    3  H           1     -24.866  -7.973 -17.879  0.00  0.00     0.275 HD
HETATM    4  H           1     -23.657  -8.344 -19.024  0.00  0.00     0.275 HD
HETATM    5  H           1     -23.512  -6.948 -18.053  0.00  0.00     0.275 HD
ENDBRANCH   1   2
BRANCH   1   6
HETATM    6  C           1     -24.902  -7.526 -20.920  0.00  0.00     0.053 C 
BRANCH   6   7
HETATM    7  C           1     -23.557  -8.220 -21.093  0.00  0.00     0.076 C 
BRANCH   7   8
HETATM    8  S           1     -23.152  -8.323 -22.859  0.00  0.00    -0.173 SA
HETATM    9  C           1     -21.594  -9.232 -22.653  0.00  0.00     0.089 C 
ENDBRANCH   7   8
ENDBRANCH   6   7
ENDBRANCH   1   6
BRANCH   1  10
HETATM   10  C           1     -26.347  -6.570 -19.151  0.00  0.00     0.249 C 
HETATM   11  O           1     -27.238  -6.560 -19.966  0.00  0.00    -0.271 OA
HETATM   12  N           1     -26.633  -6.397 -17.823  0.00  0.00    -0.345 N 
HETATM   13  H           1     -25.885  -6.405 -17.140  0.00  0.00     0.163 HD
BRANCH  12  14
HETATM   14  C           1     -28.004  -6.201 -17.395  0.00  0.00     0.181 C 
HETATM   15  C           1     -28.207  -6.847 -16.031  0.00  0.00     0.043 C 
BRANCH  14  16
HETATM   16  C           1     -28.294  -4.723 -17.302  0.00  0.00     0.196 C 
HETATM   17  O           1     -29.173  -4.211 -18.027  0.00  0.00    -0.646 OA
HETATM   18  O           1     -27.654  -4.010 -16.498  0.00  0.00    -0.646 OA
ENDBRANCH  14  16
ENDBRANCH  12  14
ENDBRANCH   1  10
TORSDOF 7
ENDMDL
MODEL 5
REMARK VINA RESULT:      -5.2     10.014     10.931
REMARK  7 active torsions:
REMARK  status: ('A' for Active; 'I' for Inactive)
REMARK    1  A    between atoms: C_1  and  C_9 
REMARK    2  A    between atoms: C_1  and  S_7 
REMARK    3  A    between atoms: N_3  and  C_10 
REMARK    4  A    between atoms: C_9  and  C_10 
REMARK    5  A    between atoms: C_10  and  C_11 
REMARK       I    between atoms: C_11  and  N_12 
REMARK    6  A    between atoms: N_12  and  C_17 
REMARK    7  A    between atoms: C_13  and  C_17 
ROOT
HETATM    1  C           1     -29.406  -6.837 -17.926  0.00  0.00     0.275 C 
ENDROOT
BRANCH   1   2
HETATM    2  N           1     -29.721  -8.289 -18.127  0.00  0.00    -0.066 N 
HETATM    3  H           1     -29.538  -8.812 -17.241  0.00  0.00     0.275 HD
HETATM    4  H           1     -30.727  -8.395 -18.391  0.00  0.00     0.275 HD
HETATM    5  H           1     -29.118  -8.675 -18.889  0.00  0.00     0.275 HD
ENDBRANCH   1   2
BRANCH   1   6
HETATM    6  C           1     -28.959  -6.610 -16.488  0.00  0.00     0.053 C 
BRANCH   6   7
HETATM    7  C           1     -29.657  -5.378 -15.927  0.00  0.00     0.076 C 
BRANCH   7   8
HETATM    8  S           1     -31.211  -5.102 -16.822  0.00  0.00    -0.173 SA
HETATM    9  C           1     -30.729  -3.521 -17.574  0.00  0.00     0.089 C 
ENDBRANCH   7   8
ENDBRANCH   6   7
ENDBRANCH   1   6
BRANCH   1  10
HETATM   10  C           1     -28.300  -6.427 -18.868  0.00  0.00     0.249 C 
HETATM   11  O           1     -28.165  -5.267 -19.172  0.00  0.00    -0.271 OA
HETATM   12  N           1     -27.450  -7.372 -19.377  0.00  0.00    -0.345 N 
HETATM   13  H           1     -27.564  -8.345 -19.122  0.00  0.00     0.163 HD
BRANCH  12  14
HETATM   14  C           1     -26.387  -6.979 -20.281  0.00  0.00     0.181 C 
HETATM   15  C           1     -25.103  -6.764 -19.492  0.00  0.00     0.043 C 
BRANCH  14  16
HETATM   16  C           1     -26.173  -8.066 -21.306  0.00  0.00     0.196 C 
HETATM   17  O           1     -25.065  -8.181 -21.873  0.00  0.00    -0.646 OA
HETATM   18  O           1     -27.104  -8.852 -21.588  0.00  0.00    -0.646 OA
ENDBRANCH  14  16
ENDBRANCH  12  14
ENDBRANCH   1  10
TORSDOF 7
ENDMDL
MODEL 6
REMARK VINA RESULT:      -5.0     10.286     11.021
REMARK  7 active torsions:
REMARK  status: ('A' for Active; 'I' for Inactive)
REMARK    1  A    between atoms: C_1  and  C_9 
REMARK    2  A    between atoms: C_1  and  S_7 
REMARK    3  A    between atoms: N_3  and  C_10 
REMARK    4  A    between atoms: C_9  and  C_10 
REMARK    5  A    between atoms: C_10  and  C_11 
REMARK       I    between atoms: C_11  and  N_12 
REMARK    6  A    between atoms: N_12  and  C_17 
REMARK    7  A    between atoms: C_13  and  C_17 
ROOT
HETATM    1  C           1     -29.588  -6.815 -17.753  0.00  0.00     0.275 C 
ENDROOT
BRANCH   1   2
HETATM    2  N           1     -29.562  -8.303 -17.574  0.00  0.00    -0.066 N 
HETATM    3  H           1     -30.090  -8.560 -16.709  0.00  0.00     0.275 HD
HETATM    4  H           1     -30.007  -8.762 -18.401  0.00  0.00     0.275 HD
HETATM    5  H           1     -28.572  -8.627 -17.486  0.00  0.00     0.275 HD
ENDBRANCH   1   2
BRANCH   1   6
HETATM    6  C           1     -29.271  -6.139 -16.426  0.00  0.00     0.053 C 
BRANCH   6   7
HETATM    7  C           1     -28.084  -6.834 -15.771  0.00  0.00     0.076 C 
BRANCH   7   8
HETATM    8  S           1     -26.596  -5.816 -15.980  0.00  0.00    -0.173 SA
HETATM    9  C           1     -25.407  -7.186 -15.905  0.00  0.00     0.089 C 
ENDBRANCH   7   8
ENDBRANCH   6   7
ENDBRANCH   1   6
BRANCH   1  10
HETATM   10  C           1     -28.557  -6.414 -18.780  0.00  0.00     0.249 C 
HETATM   11  O           1     -28.464  -5.261 -19.126  0.00  0.00    -0.271 OA
HETATM   12  N           1     -27.725  -7.359 -19.319  0.00  0.00    -0.345 N 
HETATM   13  H           1     -27.803  -8.326 -19.030  0.00  0.00     0.163 HD
BRANCH  12  14
HETATM   14  C           1     -26.735  -6.975 -20.306  0.00  0.00     0.181 C 
HETATM   15  C           1     -25.428  -6.629 -19.605  0.00  0.00     0.043 C 
BRANCH  14  16
HETATM   16  C           1     -26.506  -8.121 -21.260  0.00  0.00     0.196 C 
HETATM   17  O           1     -25.379  -8.294 -21.772  0.00  0.00    -0.646 OA
HETATM   18  O           1     -27.445  -8.899 -21.539  0.00  0.00    -0.646 OA
ENDBRANCH  14  16
ENDBRANCH  12  14
ENDBRANCH   1  10
TORSDOF 7
ENDMDL
MODEL 7
REMARK VINA RESULT:      -4.8     15.005     16.865
REMARK  7 active torsions:
REMARK  status: ('A' for Active; 'I' for Inactive)
REMARK    1  A    between atoms: C_1  and  C_9 
REMARK    2  A    between atoms: C_1  and  S_7 
REMARK    3  A    between atoms: N_3  and  C_10 
REMARK    4  A    between atoms: C_9  and  C_10 
REMARK    5  A    between atoms: C_10  and  C_11 
REMARK       I    between atoms: C_11  and  N_12 
REMARK    6  A    between atoms: N_12  and  C_17 
REMARK    7  A    between atoms: C_13  and  C_17 
ROOT
HETATM    1  C           1     -22.144  -4.984  -6.947  0.00  0.00     0.275 C 
ENDROOT
BRANCH   1   2
HETATM    2  N           1     -23.551  -4.616  -6.578  0.00  0.00    -0.066 N 
HETATM    3  H           1     -24.188  -5.417  -6.791  0.00  0.00     0.275 HD
HETATM    4  H           1     -23.597  -4.398  -5.557  0.00  0.00     0.275 HD
HETATM    5  H           1     -23.848  -3.779  -7.128  0.00  0.00     0.275 HD
ENDBRANCH   1   2
BRANCH   1   6
HETATM    6  C           1     -21.462  -3.788  -7.599  0.00  0.00     0.053 C 
BRANCH   6   7
HETATM    7  C           1     -20.828  -4.220  -8.915  0.00  0.00     0.076 C 
BRANCH   7   8
HETATM    8  S           1     -22.098  -4.278 -10.210  0.00  0.00    -0.173 SA
HETATM    9  C           1     -21.306  -3.078 -11.319  0.00  0.00     0.089 C 
ENDBRANCH   7   8
ENDBRANCH   6   7
ENDBRANCH   1   6
BRANCH   1  10
HETATM   10  C           1     -21.386  -5.379  -5.704  0.00  0.00     0.249 C 
HETATM   11  O           1     -20.237  -5.035  -5.562  0.00  0.00    -0.271 OA
HETATM   12  N           1     -22.001  -6.127  -4.736  0.00  0.00    -0.345 N 
HETATM   13  H           1     -22.964  -6.416  -4.855  0.00  0.00     0.163 HD
BRANCH  12  14
HETATM   14  C           1     -21.273  -6.508  -3.541  0.00  0.00     0.181 C 
HETATM   15  C           1     -22.144  -6.261  -2.316  0.00  0.00     0.043 C 
BRANCH  14  16
HETATM   16  C           1     -20.913  -7.971  -3.617  0.00  0.00     0.196 C 
HETATM   17  O           1     -21.779  -8.841  -3.383  0.00  0.00    -0.646 OA
HETATM   18  O           1     -19.747  -8.313  -3.914  0.00  0.00    -0.646 OA
ENDBRANCH  14  16
ENDBRANCH  12  14
ENDBRANCH   1  10
TORSDOF 7
ENDMDL
MODEL 8
REMARK VINA RESULT:      -4.6     15.192     16.632
REMARK  7 active torsions:
REMARK  status: ('A' for Active; 'I' for Inactive)
REMARK    1  A    between atoms: C_1  and  C_9 
REMARK    2  A    between atoms: C_1  and  S_7 
REMARK    3  A    between atoms: N_3  and  C_10 
REMARK    4  A    between atoms: C_9  and  C_10 
REMARK    5  A    between atoms: C_10  and  C_11 
REMARK       I    between atoms: C_11  and  N_12 
REMARK    6  A    between atoms: N_12  and  C_17 
REMARK    7  A    between atoms: C_13  and  C_17 
ROOT
HETATM    1  C           1     -21.479  -8.025  -4.610  0.00  0.00     0.275 C 
ENDROOT
BRANCH   1   2
HETATM    2  N           1     -20.985  -8.895  -5.727  0.00  0.00    -0.066 N 
HETATM    3  H           1     -20.160  -9.447  -5.401  0.00  0.00     0.275 HD
HETATM    4  H           1     -21.745  -9.550  -6.021  0.00  0.00     0.275 HD
HETATM    5  H           1     -20.707  -8.297  -6.538  0.00  0.00     0.275 HD
ENDBRANCH   1   2
BRANCH   1   6
HETATM    6  C           1     -20.650  -8.288  -3.359  0.00  0.00     0.053 C 
BRANCH   6   7
HETATM    7  C           1     -21.479  -9.080  -2.356  0.00  0.00     0.076 C 
BRANCH   7   8
HETATM    8  S           1     -21.282  -8.358  -0.703  0.00  0.00    -0.173 SA
HETATM    9  C           1     -22.341  -6.912  -0.991  0.00  0.00     0.089 C 
ENDBRANCH   7   8
ENDBRANCH   6   7
ENDBRANCH   1   6
BRANCH   1  10
HETATM   10  C           1     -21.346  -6.575  -5.006  0.00  0.00     0.249 C 
HETATM   11  O           1     -21.519  -5.706  -4.185  0.00  0.00    -0.271 OA
HETATM   12  N           1     -21.029  -6.244  -6.296  0.00  0.00    -0.345 N 
HETATM   13  H           1     -20.884  -6.973  -6.984  0.00  0.00     0.163 HD
BRANCH  12  14
HETATM   14  C           1     -20.901  -4.851  -6.678  0.00  0.00     0.181 C 
HETATM   15  C           1     -19.586  -4.646  -7.416  0.00  0.00     0.043 C 
BRANCH  14  16
HETATM   16  C           1     -22.050  -4.471  -7.579  0.00  0.00     0.196 C 
HETATM   17  O           1     -23.218  -4.466  -7.134  0.00  0.00    -0.646 OA
HETATM   18  O           1     -21.833  -4.160  -8.770  0.00  0.00    -0.646 OA
ENDBRANCH  14  16
ENDBRANCH  12  14
ENDBRANCH   1  10
TORSDOF 7
ENDMDL
MODEL 9
REMARK VINA RESULT:      -4.5     15.727     17.188
REMARK  7 active torsions:
REMARK  status: ('A' for Active; 'I' for Inactive)
REMARK    1  A    between atoms: C_1  and  C_9 
REMARK    2  A    between atoms: C_1  and  S_7 
REMARK    3  A    between atoms: N_3  and  C_10 
REMARK    4  A    between atoms: C_9  and  C_10 
REMARK    5  A    between atoms: C_10  and  C_11 
REMARK       I    between atoms: C_11  and  N_12 
REMARK    6  A    between atoms: N_12  and  C_17 
REMARK    7  A    between atoms: C_13  and  C_17 
ROOT
HETATM    1  C           1     -21.325  -6.592  -2.657  0.00  0.00     0.275 C 
ENDROOT
BRANCH   1   2
HETATM    2  N           1     -22.414  -5.742  -2.074  0.00  0.00    -0.066 N 
HETATM    3  H           1     -22.397  -4.797  -2.521  0.00  0.00     0.275 HD
HETATM    4  H           1     -23.340  -6.193  -2.250  0.00  0.00     0.275 HD
HETATM    5  H           1     -22.266  -5.642  -1.044  0.00  0.00     0.275 HD
ENDBRANCH   1   2
BRANCH   1   6
HETATM    6  C           1     -21.368  -7.976  -2.024  0.00  0.00     0.053 C 
BRANCH   6   7
HETATM    7  C           1     -22.203  -7.927  -0.750  0.00  0.00     0.076 C 
BRANCH   7   8
HETATM    8  S           1     -22.573  -9.617  -0.204  0.00  0.00    -0.173 SA
HETATM    9  C           1     -21.331 -10.438  -1.243  0.00  0.00     0.089 C 
ENDBRANCH   7   8
ENDBRANCH   6   7
ENDBRANCH   1   6
BRANCH   1  10
HETATM   10  C           1     -21.527  -6.713  -4.148  0.00  0.00     0.249 C 
HETATM   11  O           1     -21.835  -7.776  -4.631  0.00  0.00    -0.271 OA
HETATM   12  N           1     -21.362  -5.618  -4.953  0.00  0.00    -0.345 N 
HETATM   13  H           1     -21.103  -4.727  -4.547  0.00  0.00     0.163 HD
BRANCH  12  14
HETATM   14  C           1     -21.555  -5.735  -6.385  0.00  0.00     0.181 C 
HETATM   15  C           1     -22.353  -4.539  -6.888  0.00  0.00     0.043 C 
BRANCH  14  16
HETATM   16  C           1     -20.212  -5.770  -7.072  0.00  0.00     0.196 C 
HETATM   17  O           1     -19.512  -6.804  -7.024  0.00  0.00    -0.646 OA
HETATM   18  O           1     -19.800  -4.764  -7.689  0.00  0.00    -0.646 OA
ENDBRANCH  14  16
ENDBRANCH  12  14
ENDBRANCH   1  10
TORSDOF 7
ENDMDL
