MODEL 1
REMARK VINA RESULT:      -6.0      0.000      0.000
REMARK  4 active torsions:
REMARK  status: ('A' for Active; 'I' for Inactive)
REMARK    1  A    between atoms: C_1  and  C_2 
REMARK    2  A    between atoms: C_2  and  C_4 
REMARK    3  A    between atoms: C_2  and  N_16 
REMARK    4  A    between atoms: C_6  and  C_7 
REMARK       I    between atoms: C_7  and  N_16 
ROOT
HETATM    1  C           1     -12.066   4.526 -19.741  0.00  0.00     0.274 C 
HETATM    2  H           1     -12.994   5.415 -21.395  0.00  0.00     0.255 HD
HETATM    3  H           1     -13.951   4.240 -20.610  0.00  0.00     0.275 HD
HETATM    4  H           1     -14.063   3.553 -20.965  0.00  0.00     0.274 HD
HETATM    5  C           1     -11.398   3.433 -20.564  0.00  0.00     0.062 C 
HETATM    6  C           1     -10.984   3.997 -21.917  0.00  0.00     0.004 C 
HETATM    7  H           1     -12.759   2.452 -21.025  0.00  0.00     0.254 HD
HETATM    8  C           1     -12.215   4.506 -22.654  0.00  0.00     0.047 C 
HETATM    9  H           1     -14.276   2.014 -21.673  0.00  0.00     0.274 HD
HETATM   10  C           1     -13.194   3.357 -22.861  0.00  0.00     0.229 C 
HETATM   11  H           1     -13.737   5.778 -19.903  0.00  0.00     0.275 HD
HETATM   12  N           1     -13.604   2.802 -21.530  0.00  0.00    -0.080 N 
HETATM   13  N           1     -13.279   5.028 -20.468  0.00  0.00    -0.067 N 
ENDROOT
BRANCH   1  14
HETATM   14  C           1     -11.098   5.665 -19.535  0.00  0.00     0.249 C 
HETATM   15  N           1     -11.302   6.861 -20.168  0.00  0.00    -0.344 N 
HETATM   16  H           1     -12.104   6.983 -20.774  0.00  0.00     0.163 HD
HETATM   17  O           1     -10.141   5.520 -18.811  0.00  0.00    -0.271 OA
BRANCH  15  18
HETATM   18  C           1     -10.372   7.955 -19.969  0.00  0.00     0.189 C 
BRANCH  18  19
HETATM   19  C           1     -10.847   8.817 -18.826  0.00  0.00     0.197 C 
HETATM   20  O           1     -10.031   9.240 -17.980  0.00  0.00    -0.646 OA
HETATM   21  O           1     -12.059   9.109 -18.726  0.00  0.00    -0.646 OA
ENDBRANCH  18  19
BRANCH  18  22
HETATM   22  C           1     -10.294   8.792 -21.239  0.00  0.00     0.010 C 
HETATM   23  C           1     -10.828   7.982 -22.414  0.00  0.00     0.012 C 
HETATM   24  C           1      -8.844   9.176 -21.505  0.00  0.00     0.012 C 
ENDBRANCH  18  22
ENDBRANCH  15  18
ENDBRANCH   1  14
TORSDOF 4
ENDMDL
MODEL 2
REMARK VINA RESULT:      -6.0     25.509     26.922
REMARK  4 active torsions:
REMARK  status: ('A' for Active; 'I' for Inactive)
REMARK    1  A    between atoms: C_1  and  C_2 
REMARK    2  A    between atoms: C_2  and  C_4 
REMARK    3  A    between atoms: C_2  and  N_16 
REMARK    4  A    between atoms: C_6  and  C_7 
REMARK       I    between atoms: C_7  and  N_16 
ROOT
HETATM    1  C           1     -34.962  -0.395 -14.403  0.00  0.00     0.274 C 
HETATM    2  H           1     -36.293  -1.015 -15.896  0.00  0.00     0.255 HD
HETATM    3  H           1     -35.387   0.371 -16.307  0.00  0.00     0.275 HD
HETATM    4  H           1     -35.751   1.062 -16.323  0.00  0.00     0.274 HD
HETATM    5  C           1     -35.987   0.483 -13.700  0.00  0.00     0.062 C 
HETATM    6  C           1     -37.359  -0.173 -13.780  0.00  0.00     0.004 C 
HETATM    7  H           1     -36.183   1.785 -14.838  0.00  0.00     0.254 HD
HETATM    8  C           1     -37.756  -0.345 -15.240  0.00  0.00     0.047 C 
HETATM    9  H           1     -36.489   2.601 -16.305  0.00  0.00     0.274 HD
HETATM   10  C           1     -37.805   1.019 -15.917  0.00  0.00     0.229 C 
HETATM   11  H           1     -34.649  -1.167 -16.325  0.00  0.00     0.275 HD
HETATM   12  N           1     -36.455   1.666 -15.839  0.00  0.00    -0.080 N 
HETATM   13  N           1     -35.353  -0.564 -15.842  0.00  0.00    -0.067 N 
ENDROOT
BRANCH   1  14
HETATM   14  C           1     -34.911  -1.747 -13.734  0.00  0.00     0.249 C 
HETATM   15  N           1     -35.028  -1.841 -12.374  0.00  0.00    -0.344 N 
HETATM   16  H           1     -35.149  -1.006 -11.816  0.00  0.00     0.163 HD
HETATM   17  O           1     -34.767  -2.745 -14.400  0.00  0.00    -0.271 OA
BRANCH  15  18
HETATM   18  C           1     -34.980  -3.140 -11.730  0.00  0.00     0.189 C 
BRANCH  18  19
HETATM   19  C           1     -36.149  -3.277 -10.787  0.00  0.00     0.197 C 
HETATM   20  O           1     -36.763  -2.260 -10.401  0.00  0.00    -0.646 OA
HETATM   21  O           1     -36.503  -4.409 -10.391  0.00  0.00    -0.646 OA
ENDBRANCH  18  19
BRANCH  18  22
HETATM   22  C           1     -33.678  -3.273 -10.951  0.00  0.00     0.010 C 
HETATM   23  C           1     -33.179  -1.888 -10.558  0.00  0.00     0.012 C 
HETATM   24  C           1     -32.634  -3.962 -11.820  0.00  0.00     0.012 C 
ENDBRANCH  18  22
ENDBRANCH  15  18
ENDBRANCH   1  14
TORSDOF 4
ENDMDL
MODEL 3
REMARK VINA RESULT:      -5.7     18.200     20.044
REMARK  4 active torsions:
REMARK  status: ('A' for Active; 'I' for Inactive)
REMARK    1  A    between atoms: C_1  and  C_2 
REMARK    2  A    between atoms: C_2  and  C_4 
REMARK    3  A    between atoms: C_2  and  N_16 
REMARK    4  A    between atoms: C_6  and  C_7 
REMARK       I    between atoms: C_7  and  N_16 
ROOT
HETATM    1  C           1     -21.797  -4.877  -6.011  0.00  0.00     0.274 C 
HETATM    2  H           1     -21.476  -6.686  -7.016  0.00  0.00     0.255 HD
HETATM    3  H           1     -22.077  -6.870  -5.431  0.00  0.00     0.275 HD
HETATM    4  H           1     -21.594  -7.136  -4.878  0.00  0.00     0.274 HD
HETATM    5  C           1     -20.378  -4.802  -5.465  0.00  0.00     0.062 C 
HETATM    6  C           1     -19.405  -5.357  -6.497  0.00  0.00     0.004 C 
HETATM    7  H           1     -20.377  -6.090  -4.294  0.00  0.00     0.254 HD
HETATM    8  C           1     -19.756  -6.807  -6.798  0.00  0.00     0.047 C 
HETATM    9  H           1     -20.554  -7.649  -3.625  0.00  0.00     0.274 HD
HETATM   10  C           1     -19.662  -7.629  -5.519  0.00  0.00     0.229 C 
HETATM   11  H           1     -23.116  -6.357  -6.683  0.00  0.00     0.275 HD
HETATM   12  N           1     -20.619  -7.084  -4.502  0.00  0.00    -0.080 N 
HETATM   13  N           1     -22.143  -6.306  -6.308  0.00  0.00    -0.067 N 
ENDROOT
BRANCH   1  14
HETATM   14  C           1     -21.892  -4.063  -7.278  0.00  0.00     0.249 C 
HETATM   15  N           1     -22.367  -4.637  -8.426  0.00  0.00    -0.344 N 
HETATM   16  H           1     -22.654  -5.608  -8.426  0.00  0.00     0.163 HD
HETATM   17  O           1     -21.550  -2.904  -7.279  0.00  0.00    -0.271 OA
BRANCH  15  18
HETATM   18  C           1     -22.459  -3.855  -9.644  0.00  0.00     0.189 C 
BRANCH  18  19
HETATM   19  C           1     -23.864  -3.936 -10.187  0.00  0.00     0.197 C 
HETATM   20  O           1     -24.438  -2.902 -10.591  0.00  0.00    -0.646 OA
HETATM   21  O           1     -24.454  -5.037 -10.233  0.00  0.00    -0.646 OA
ENDBRANCH  18  19
BRANCH  18  22
HETATM   22  C           1     -21.483  -4.405 -10.676  0.00  0.00     0.010 C 
HETATM   23  C           1     -20.153  -4.716 -10.000  0.00  0.00     0.012 C 
HETATM   24  C           1     -21.266  -3.369 -11.771  0.00  0.00     0.012 C 
ENDBRANCH  18  22
ENDBRANCH  15  18
ENDBRANCH   1  14
TORSDOF 4
ENDMDL
MODEL 4
REMARK VINA RESULT:      -5.5      1.490      2.014
REMARK  4 active torsions:
REMARK  status: ('A' for Active; 'I' for Inactive)
REMARK    1  A    between atoms: C_1  and  C_2 
REMARK    2  A    between atoms: C_2  and  C_4 
REMARK    3  A    between atoms: C_2  and  N_16 
REMARK    4  A    between atoms: C_6  and  C_7 
REMARK       I    between atoms: C_7  and  N_16 
ROOT
HETATM    1  C           1     -12.206   5.450 -22.403  0.00  0.00     0.274 C 
HETATM    2  H           1     -11.365   3.576 -21.995  0.00  0.00     0.255 HD
HETATM    3  H           1     -12.403   3.591 -23.348  0.00  0.00     0.275 HD
HETATM    4  H           1     -13.102   3.248 -23.285  0.00  0.00     0.274 HD
HETATM    5  C           1     -13.402   5.235 -21.487  0.00  0.00     0.062 C 
HETATM    6  C           1     -12.969   4.440 -20.262  0.00  0.00     0.004 C 
HETATM    7  H           1     -14.304   4.027 -22.355  0.00  0.00     0.254 HD
HETATM    8  C           1     -12.418   3.090 -20.701  0.00  0.00     0.047 C 
HETATM    9  H           1     -14.665   2.572 -23.171  0.00  0.00     0.274 HD
HETATM   10  C           1     -13.498   2.320 -21.450  0.00  0.00     0.229 C 
HETATM   11  H           1     -10.841   4.268 -23.464  0.00  0.00     0.275 HD
HETATM   12  N           1     -13.925   3.101 -22.657  0.00  0.00    -0.080 N 
HETATM   13  N           1     -11.662   4.120 -22.835  0.00  0.00    -0.067 N 
ENDROOT
BRANCH   1  14
HETATM   14  C           1     -11.134   6.214 -21.662  0.00  0.00     0.249 C 
HETATM   15  N           1     -11.382   7.485 -21.220  0.00  0.00    -0.344 N 
HETATM   16  H           1     -12.282   7.913 -21.388  0.00  0.00     0.163 HD
HETATM   17  O           1     -10.058   5.702 -21.461  0.00  0.00    -0.271 OA
BRANCH  15  18
HETATM   18  C           1     -10.352   8.218 -20.508  0.00  0.00     0.189 C 
BRANCH  18  19
HETATM   19  C           1     -10.895   8.684 -19.180  0.00  0.00     0.197 C 
HETATM   20  O           1     -12.130   8.744 -18.996  0.00  0.00    -0.646 OA
HETATM   21  O           1     -10.110   9.011 -18.264  0.00  0.00    -0.646 OA
ENDBRANCH  18  19
BRANCH  18  22
HETATM   22  C           1      -9.924   9.423 -21.335  0.00  0.00     0.010 C 
HETATM   23  C           1     -10.627   9.387 -22.686  0.00  0.00     0.012 C 
HETATM   24  C           1      -8.416   9.384 -21.545  0.00  0.00     0.012 C 
ENDBRANCH  18  22
ENDBRANCH  15  18
ENDBRANCH   1  14
TORSDOF 4
ENDMDL
MODEL 5
REMARK VINA RESULT:      -5.3     24.172     26.086
REMARK  4 active torsions:
REMARK  status: ('A' for Active; 'I' for Inactive)
REMARK    1  A    between atoms: C_1  and  C_2 
REMARK    2  A    between atoms: C_2  and  C_4 
REMARK    3  A    between atoms: C_2  and  N_16 
REMARK    4  A    between atoms: C_6  and  C_7 
REMARK       I    between atoms: C_7  and  N_16 
ROOT
HETATM    1  C           1     -21.378 -10.718  -1.296  0.00  0.00     0.274 C 
HETATM    2  H           1     -20.168  -9.094  -0.762  0.00  0.00     0.255 HD
HETATM    3  H           1     -19.757 -10.552   0.021  0.00  0.00     0.275 HD
HETATM    4  H           1     -19.925 -10.627   0.781  0.00  0.00     0.274 HD
HETATM    5  C           1     -22.421 -10.435  -0.224  0.00  0.00     0.062 C 
HETATM    6  C           1     -22.574  -8.930  -0.047  0.00  0.00     0.004 C 
HETATM    7  H           1     -21.558 -10.846   1.230  0.00  0.00     0.254 HD
HETATM    8  C           1     -21.239  -8.330   0.373  0.00  0.00     0.047 C 
HETATM    9  H           1     -20.335 -10.861   2.421  0.00  0.00     0.274 HD
HETATM   10  C           1     -20.793  -8.952   1.690  0.00  0.00     0.229 C 
HETATM   11  H           1     -19.347 -10.320  -1.619  0.00  0.00     0.275 HD
HETATM   12  N           1     -20.641 -10.434   1.517  0.00  0.00    -0.080 N 
HETATM   13  N           1     -20.063 -10.126  -0.882  0.00  0.00    -0.067 N 
ENDROOT
BRANCH   1  14
HETATM   14  C           1     -21.817 -10.102  -2.602  0.00  0.00     0.249 C 
HETATM   15  N           1     -21.165  -9.004  -3.094  0.00  0.00    -0.344 N 
HETATM   16  H           1     -20.388  -8.606  -2.585  0.00  0.00     0.163 HD
HETATM   17  O           1     -22.746 -10.578  -3.211  0.00  0.00    -0.271 OA
BRANCH  15  18
HETATM   18  C           1     -21.588  -8.412  -4.349  0.00  0.00     0.189 C 
BRANCH  18  19
HETATM   19  C           1     -20.719  -8.932  -5.467  0.00  0.00     0.197 C 
HETATM   20  O           1     -21.079  -9.930  -6.127  0.00  0.00    -0.646 OA
HETATM   21  O           1     -19.637  -8.364  -5.734  0.00  0.00    -0.646 OA
ENDBRANCH  18  19
BRANCH  18  22
HETATM   22  C           1     -21.457  -6.898  -4.266  0.00  0.00     0.010 C 
HETATM   23  C           1     -21.798  -6.437  -2.855  0.00  0.00     0.012 C 
HETATM   24  C           1     -22.415  -6.250  -5.257  0.00  0.00     0.012 C 
ENDBRANCH  18  22
ENDBRANCH  15  18
ENDBRANCH   1  14
TORSDOF 4
ENDMDL
MODEL 6
REMARK VINA RESULT:      -5.3     19.411     21.483
REMARK  4 active torsions:
REMARK  status: ('A' for Active; 'I' for Inactive)
REMARK    1  A    between atoms: C_1  and  C_2 
REMARK    2  A    between atoms: C_2  and  C_4 
REMARK    3  A    between atoms: C_2  and  N_16 
REMARK    4  A    between atoms: C_6  and  C_7 
REMARK       I    between atoms: C_7  and  N_16 
ROOT
HETATM    1  C           1     -20.019  -5.088  -7.986  0.00  0.00     0.274 C 
HETATM    2  H           1     -22.003  -5.729  -8.182  0.00  0.00     0.255 HD
HETATM    3  H           1     -21.169  -5.589  -9.664  0.00  0.00     0.275 HD
HETATM    4  H           1     -21.353  -4.998 -10.141  0.00  0.00     0.274 HD
HETATM    5  C           1     -20.375  -3.609  -8.045  0.00  0.00     0.062 C 
HETATM    6  C           1     -21.706  -3.377  -7.342  0.00  0.00     0.004 C 
HETATM    7  H           1     -20.851  -3.424  -9.709  0.00  0.00     0.254 HD
HETATM    8  C           1     -22.794  -4.189  -8.033  0.00  0.00     0.047 C 
HETATM    9  H           1     -21.675  -3.683 -11.180  0.00  0.00     0.274 HD
HETATM   10  C           1     -22.907  -3.753  -9.488  0.00  0.00     0.229 C 
HETATM   11  H           1     -20.847  -6.903  -8.624  0.00  0.00     0.275 HD
HETATM   12  N           1     -21.597  -3.982 -10.181  0.00  0.00    -0.080 N 
HETATM   13  N           1     -21.091  -5.888  -8.666  0.00  0.00    -0.067 N 
ENDROOT
BRANCH   1  14
HETATM   14  C           1     -19.907  -5.522  -6.544  0.00  0.00     0.249 C 
HETATM   15  N           1     -20.375  -6.750  -6.161  0.00  0.00    -0.344 N 
HETATM   16  H           1     -20.795  -7.368  -6.843  0.00  0.00     0.163 HD
HETATM   17  O           1     -19.406  -4.784  -5.729  0.00  0.00    -0.271 OA
BRANCH  15  18
HETATM   18  C           1     -20.267  -7.167  -4.776  0.00  0.00     0.189 C 
BRANCH  18  19
HETATM   19  C           1     -19.707  -8.566  -4.715  0.00  0.00     0.197 C 
HETATM   20  O           1     -19.131  -8.965  -3.680  0.00  0.00    -0.646 OA
HETATM   21  O           1     -19.819  -9.327  -5.701  0.00  0.00    -0.646 OA
ENDBRANCH  18  19
BRANCH  18  22
HETATM   22  C           1     -21.645  -7.142  -4.129  0.00  0.00     0.010 C 
HETATM   23  C           1     -22.649  -6.530  -5.098  0.00  0.00     0.012 C 
HETATM   24  C           1     -21.594  -6.306  -2.857  0.00  0.00     0.012 C 
ENDBRANCH  18  22
ENDBRANCH  15  18
ENDBRANCH   1  14
TORSDOF 4
ENDMDL
MODEL 7
REMARK VINA RESULT:      -5.2     20.417     22.408
REMARK  4 active torsions:
REMARK  status: ('A' for Active; 'I' for Inactive)
REMARK    1  A    between atoms: C_1  and  C_2 
REMARK    2  A    between atoms: C_2  and  C_4 
REMARK    3  A    between atoms: C_2  and  N_16 
REMARK    4  A    between atoms: C_6  and  C_7 
REMARK       I    between atoms: C_7  and  N_16 
ROOT
HETATM    1  C           1     -20.375  -5.119  -6.462  0.00  0.00     0.274 C 
HETATM    2  H           1     -20.977  -6.162  -8.176  0.00  0.00     0.255 HD
HETATM    3  H           1     -19.473  -5.373  -8.336  0.00  0.00     0.275 HD
HETATM    4  H           1     -19.433  -4.734  -8.785  0.00  0.00     0.274 HD
HETATM    5  C           1     -21.091  -3.835  -6.858  0.00  0.00     0.062 C 
HETATM    6  C           1     -22.396  -4.178  -7.564  0.00  0.00     0.004 C 
HETATM    7  H           1     -20.130  -3.289  -8.201  0.00  0.00     0.254 HD
HETATM    8  C           1     -22.098  -4.997  -8.813  0.00  0.00     0.047 C 
HETATM    9  H           1     -19.316  -3.299  -9.701  0.00  0.00     0.274 HD
HETATM   10  C           1     -21.211  -4.190  -9.751  0.00  0.00     0.229 C 
HETATM   11  H           1     -19.590  -6.807  -7.420  0.00  0.00     0.275 HD
HETATM   12  N           1     -19.925  -3.852  -9.056  0.00  0.00    -0.080 N 
HETATM   13  N           1     -20.082  -5.927  -7.692  0.00  0.00    -0.067 N 
ENDROOT
BRANCH   1  14
HETATM   14  C           1     -21.253  -5.920  -5.532  0.00  0.00     0.249 C 
HETATM   15  N           1     -20.693  -6.822  -4.670  0.00  0.00    -0.344 N 
HETATM   16  H           1     -19.690  -6.952  -4.654  0.00  0.00     0.163 HD
HETATM   17  O           1     -22.452  -5.765  -5.551  0.00  0.00    -0.271 OA
BRANCH  15  18
HETATM   18  C           1     -21.537  -7.593  -3.776  0.00  0.00     0.189 C 
BRANCH  18  19
HETATM   19  C           1     -21.598  -6.911  -2.432  0.00  0.00     0.197 C 
HETATM   20  O           1     -22.331  -5.913  -2.269  0.00  0.00    -0.646 OA
HETATM   21  O           1     -20.915  -7.347  -1.479  0.00  0.00    -0.646 OA
ENDBRANCH  18  19
BRANCH  18  22
HETATM   22  C           1     -20.959  -8.992  -3.612  0.00  0.00     0.010 C 
HETATM   23  C           1     -19.699  -9.122  -4.458  0.00  0.00     0.012 C 
HETATM   24  C           1     -21.985 -10.021  -4.068  0.00  0.00     0.012 C 
ENDBRANCH  18  22
ENDBRANCH  15  18
ENDBRANCH   1  14
TORSDOF 4
ENDMDL
MODEL 8
REMARK VINA RESULT:      -5.2      2.098      2.799
REMARK  4 active torsions:
REMARK  status: ('A' for Active; 'I' for Inactive)
REMARK    1  A    between atoms: C_1  and  C_2 
REMARK    2  A    between atoms: C_2  and  C_4 
REMARK    3  A    between atoms: C_2  and  N_16 
REMARK    4  A    between atoms: C_6  and  C_7 
REMARK       I    between atoms: C_7  and  N_16 
ROOT
HETATM    1  C           1     -13.153   5.735 -21.263  0.00  0.00     0.274 C 
HETATM    2  H           1     -11.739   4.691 -22.402  0.00  0.00     0.255 HD
HETATM    3  H           1     -13.276   3.953 -22.357  0.00  0.00     0.275 HD
HETATM    4  H           1     -13.364   3.299 -21.938  0.00  0.00     0.274 HD
HETATM    5  C           1     -12.781   5.039 -19.961  0.00  0.00     0.062 C 
HETATM    6  C           1     -11.279   4.785 -19.931  0.00  0.00     0.004 C 
HETATM    7  H           1     -13.376   3.427 -20.235  0.00  0.00     0.254 HD
HETATM    8  C           1     -10.890   3.901 -21.108  0.00  0.00     0.047 C 
HETATM    9  H           1     -13.616   1.910 -20.979  0.00  0.00     0.274 HD
HETATM   10  C           1     -11.630   2.574 -21.014  0.00  0.00     0.229 C 
HETATM   11  H           1     -13.025   5.342 -23.316  0.00  0.00     0.275 HD
HETATM   12  N           1     -13.109   2.822 -21.043  0.00  0.00    -0.080 N 
HETATM   13  N           1     -12.769   4.864 -22.422  0.00  0.00    -0.067 N 
ENDROOT
BRANCH   1  14
HETATM   14  C           1     -12.420   7.051 -21.358  0.00  0.00     0.249 C 
HETATM   15  N           1     -12.462   7.935 -20.315  0.00  0.00    -0.344 N 
HETATM   16  H           1     -12.982   7.706 -19.478  0.00  0.00     0.163 HD
HETATM   17  O           1     -11.798   7.324 -22.358  0.00  0.00    -0.271 OA
BRANCH  15  18
HETATM   18  C           1     -11.757   9.199 -20.406  0.00  0.00     0.189 C 
BRANCH  18  19
HETATM   19  C           1     -10.398   9.065 -19.765  0.00  0.00     0.197 C 
HETATM   20  O           1     -10.244   8.314 -18.778  0.00  0.00    -0.646 OA
HETATM   21  O           1      -9.426   9.704 -20.222  0.00  0.00    -0.646 OA
ENDBRANCH  18  19
BRANCH  18  22
HETATM   22  C           1     -12.555  10.278 -19.687  0.00  0.00     0.010 C 
HETATM   23  C           1     -13.371   9.644 -18.568  0.00  0.00     0.012 C 
HETATM   24  C           1     -13.492  10.960 -20.675  0.00  0.00     0.012 C 
ENDBRANCH  18  22
ENDBRANCH  15  18
ENDBRANCH   1  14
TORSDOF 4
ENDMDL
MODEL 9
REMARK VINA RESULT:      -5.2     24.421     26.317
REMARK  4 active torsions:
REMARK  status: ('A' for Active; 'I' for Inactive)
REMARK    1  A    between atoms: C_1  and  C_2 
REMARK    2  A    between atoms: C_2  and  C_4 
REMARK    3  A    between atoms: C_2  and  N_16 
REMARK    4  A    between atoms: C_6  and  C_7 
REMARK       I    between atoms: C_7  and  N_16 
ROOT
HETATM    1  C           1     -19.653  -8.970  -3.513  0.00  0.00     0.274 C 
HETATM    2  H           1     -18.136 -10.405  -3.669  0.00  0.00     0.255 HD
HETATM    3  H           1     -17.823  -8.969  -4.534  0.00  0.00     0.275 HD
HETATM    4  H           1     -17.867  -8.986  -5.314  0.00  0.00     0.274 HD
HETATM    5  C           1     -20.439  -9.513  -4.698  0.00  0.00     0.062 C 
HETATM    6  C           1     -20.328 -11.032  -4.730  0.00  0.00     0.004 C 
HETATM    7  H           1     -19.412  -9.085  -6.035  0.00  0.00     0.254 HD
HETATM    8  C           1     -18.865 -11.431  -4.866  0.00  0.00     0.047 C 
HETATM    9  H           1     -18.019  -8.963  -7.013  0.00  0.00     0.274 HD
HETATM   10  C           1     -18.299 -10.854  -6.157  0.00  0.00     0.229 C 
HETATM   11  H           1     -17.672  -8.991  -2.834  0.00  0.00     0.275 HD
HETATM   12  N           1     -18.408  -9.359  -6.127  0.00  0.00    -0.080 N 
HETATM   13  N           1     -18.211  -9.364  -3.648  0.00  0.00    -0.067 N 
ENDROOT
BRANCH   1  14
HETATM   14  C           1     -20.212  -9.541  -2.232  0.00  0.00     0.249 C 
HETATM   15  N           1     -21.493  -9.247  -1.854  0.00  0.00    -0.344 N 
HETATM   16  H           1     -22.067  -8.647  -2.432  0.00  0.00     0.163 HD
HETATM   17  O           1     -19.527 -10.258  -1.541  0.00  0.00    -0.271 OA
BRANCH  15  18
HETATM   18  C           1     -22.030  -9.795  -0.623  0.00  0.00     0.189 C 
BRANCH  18  19
HETATM   19  C           1     -23.287 -10.573  -0.927  0.00  0.00     0.197 C 
HETATM   20  O           1     -24.183 -10.676  -0.062  0.00  0.00    -0.646 OA
HETATM   21  O           1     -23.432 -11.114  -2.045  0.00  0.00    -0.646 OA
ENDBRANCH  18  19
BRANCH  18  22
HETATM   22  C           1     -22.354  -8.661   0.340  0.00  0.00     0.010 C 
HETATM   23  C           1     -22.530  -7.366  -0.443  0.00  0.00     0.012 C 
HETATM   24  C           1     -21.213  -8.502   1.336  0.00  0.00     0.012 C 
ENDBRANCH  18  22
ENDBRANCH  15  18
ENDBRANCH   1  14
TORSDOF 4
ENDMDL
