MODEL 1
REMARK VINA RESULT:      -7.5      0.000      0.000
REMARK  9 active torsions:
REMARK  status: ('A' for Active; 'I' for Inactive)
REMARK    1  A    between atoms: C_2  and  C_4 
REMARK    2  A    between atoms: C_2  and  C_3 
REMARK    3  A    between atoms: C_4  and  C_19 
REMARK    4  A    between atoms: C_7  and  C_9 
REMARK    5  A    between atoms: C_9  and  C_26 
REMARK    6  A    between atoms: C_9  and  N_11 
REMARK       I    between atoms: N_11  and  C_29 
REMARK    7  A    between atoms: C_19  and  C_29 
REMARK    8  A    between atoms: C_19  and  N_25 
REMARK    9  A    between atoms: C_26  and  C_27 
ROOT
HETATM    1  C           1     -20.132  -7.321  -5.374  0.00  0.00     0.190 C 
ENDROOT
BRANCH   1   2
HETATM    2  C           1     -19.111  -8.429  -5.277  0.00  0.00     0.197 C 
HETATM    3  O           1     -18.567  -8.870  -6.311  0.00  0.00    -0.646 OA
HETATM    4  O           1     -18.811  -8.905  -4.161  0.00  0.00    -0.646 OA
ENDBRANCH   1   2
BRANCH   1   5
HETATM    5  C           1     -21.486  -7.834  -4.903  0.00  0.00     0.077 C 
BRANCH   5   6
HETATM    6  C           1     -21.775  -7.299  -3.535  0.00  0.00    -0.028 A 
HETATM    7  C           1     -21.827  -8.056  -2.332  0.00  0.00    -0.002 A 
HETATM    8  C           1     -22.125  -7.167  -1.300  0.00  0.00     0.042 A 
HETATM    9  C           1     -21.649  -9.418  -2.023  0.00  0.00     0.014 A 
HETATM   10  C           1     -22.255  -7.574   0.034  0.00  0.00     0.030 A 
HETATM   11  N           1     -22.248  -5.918  -1.865  0.00  0.00    -0.365 N 
HETATM   12  C           1     -22.073  -8.931   0.316  0.00  0.00     0.002 A 
HETATM   13  C           1     -21.775  -9.841  -0.695  0.00  0.00     0.001 A 
HETATM   14  H           1     -22.470  -5.038  -1.336  0.00  0.00     0.165 HD
HETATM   15  C           1     -22.038  -5.986  -3.216  0.00  0.00     0.096 A 
ENDBRANCH   5   6
ENDBRANCH   1   5
BRANCH   1  16
HETATM   16  N           1     -20.236  -6.880  -6.751  0.00  0.00    -0.344 N 
HETATM   17  H           1     -20.255  -7.561  -7.500  0.00  0.00     0.163 HD
HETATM   18  C           1     -20.307  -5.544  -7.039  0.00  0.00     0.249 C 
HETATM   19  O           1     -19.295  -4.912  -7.231  0.00  0.00    -0.271 OA
BRANCH  18  20
HETATM   20  C           1     -21.650  -4.859  -7.115  0.00  0.00     0.275 C 
BRANCH  20  21
HETATM   21  C           1     -22.247  -5.063  -8.501  0.00  0.00     0.053 C 
BRANCH  21  22
HETATM   22  C           1     -22.703  -3.723  -9.060  0.00  0.00     0.115 C 
BRANCH  22  23
HETATM   23  C           1     -24.120  -3.843  -9.566  0.00  0.00     0.172 C 
HETATM   24  O           1     -24.908  -2.880  -9.452  0.00  0.00    -0.648 OA
HETATM   25  O           1     -24.506  -4.906 -10.098  0.00  0.00    -0.648 OA
ENDBRANCH  22  23
ENDBRANCH  21  22
ENDBRANCH  20  21
BRANCH  20  26
HETATM   26  N           1     -21.478  -3.392  -6.857  0.00  0.00    -0.066 N 
HETATM   27  H           1     -21.533  -3.209  -5.830  0.00  0.00     0.275 HD
HETATM   28  H           1     -20.546  -3.082  -7.216  0.00  0.00     0.275 HD
HETATM   29  H           1     -22.234  -2.861  -7.346  0.00  0.00     0.275 HD
ENDBRANCH  20  26
ENDBRANCH  18  20
ENDBRANCH   1  16
TORSDOF 9
ENDMDL
MODEL 2
REMARK VINA RESULT:      -7.5      2.049      3.117
REMARK  9 active torsions:
REMARK  status: ('A' for Active; 'I' for Inactive)
REMARK    1  A    between atoms: C_2  and  C_4 
REMARK    2  A    between atoms: C_2  and  C_3 
REMARK    3  A    between atoms: C_4  and  C_19 
REMARK    4  A    between atoms: C_7  and  C_9 
REMARK    5  A    between atoms: C_9  and  C_26 
REMARK    6  A    between atoms: C_9  and  N_11 
REMARK       I    between atoms: N_11  and  C_29 
REMARK    7  A    between atoms: C_19  and  C_29 
REMARK    8  A    between atoms: C_19  and  N_25 
REMARK    9  A    between atoms: C_26  and  C_27 
ROOT
HETATM    1  C           1     -20.717  -5.213  -6.113  0.00  0.00     0.190 C 
ENDROOT
BRANCH   1   2
HETATM    2  C           1     -19.621  -5.327  -7.145  0.00  0.00     0.197 C 
HETATM    3  O           1     -19.581  -6.317  -7.907  0.00  0.00    -0.646 OA
HETATM    4  O           1     -18.754  -4.432  -7.237  0.00  0.00    -0.646 OA
ENDBRANCH   1   2
BRANCH   1   5
HETATM    5  C           1     -21.470  -6.533  -6.023  0.00  0.00     0.077 C 
BRANCH   5   6
HETATM    6  C           1     -20.917  -7.349  -4.898  0.00  0.00    -0.028 A 
HETATM    7  C           1     -21.278  -7.242  -3.526  0.00  0.00    -0.002 A 
HETATM    8  C           1     -20.524  -8.185  -2.827  0.00  0.00     0.042 A 
HETATM    9  C           1     -22.178  -6.430  -2.811  0.00  0.00     0.014 A 
HETATM   10  C           1     -20.626  -8.357  -1.441  0.00  0.00     0.030 A 
HETATM   11  N           1     -19.736  -8.836  -3.749  0.00  0.00    -0.365 N 
HETATM   12  C           1     -21.526  -7.539  -0.753  0.00  0.00     0.002 A 
HETATM   13  C           1     -22.292  -6.589  -1.425  0.00  0.00     0.001 A 
HETATM   14  H           1     -19.056  -9.604  -3.523  0.00  0.00     0.165 HD
HETATM   15  C           1     -19.965  -8.338  -5.005  0.00  0.00     0.096 A 
ENDBRANCH   5   6
ENDBRANCH   1   5
BRANCH   1  16
HETATM   16  N           1     -21.635  -4.158  -6.498  0.00  0.00    -0.344 N 
HETATM   17  H           1     -21.386  -3.190  -6.343  0.00  0.00     0.163 HD
HETATM   18  C           1     -22.836  -4.473  -7.073  0.00  0.00     0.249 C 
HETATM   19  O           1     -23.810  -4.651  -6.379  0.00  0.00    -0.271 OA
BRANCH  18  20
HETATM   20  C           1     -22.946  -4.599  -8.572  0.00  0.00     0.275 C 
BRANCH  20  21
HETATM   21  C           1     -21.900  -3.711  -9.235  0.00  0.00     0.053 C 
BRANCH  21  22
HETATM   22  C           1     -21.277  -4.452 -10.410  0.00  0.00     0.115 C 
BRANCH  22  23
HETATM   23  C           1     -22.075  -4.176 -11.661  0.00  0.00     0.172 C 
HETATM   24  O           1     -23.148  -4.784 -11.864  0.00  0.00    -0.648 OA
HETATM   25  O           1     -21.663  -3.341 -12.494  0.00  0.00    -0.648 OA
ENDBRANCH  22  23
ENDBRANCH  21  22
ENDBRANCH  20  21
BRANCH  20  26
HETATM   26  N           1     -24.315  -4.169  -9.011  0.00  0.00    -0.066 N 
HETATM   27  H           1     -24.984  -4.961  -8.891  0.00  0.00     0.275 HD
HETATM   28  H           1     -24.628  -3.358  -8.430  0.00  0.00     0.275 HD
HETATM   29  H           1     -24.285  -3.886 -10.017  0.00  0.00     0.275 HD
ENDBRANCH  20  26
ENDBRANCH  18  20
ENDBRANCH   1  16
TORSDOF 9
ENDMDL
MODEL 3
REMARK VINA RESULT:      -7.4      2.742      7.690
REMARK  9 active torsions:
REMARK  status: ('A' for Active; 'I' for Inactive)
REMARK    1  A    between atoms: C_2  and  C_4 
REMARK    2  A    between atoms: C_2  and  C_3 
REMARK    3  A    between atoms: C_4  and  C_19 
REMARK    4  A    between atoms: C_7  and  C_9 
REMARK    5  A    between atoms: C_9  and  C_26 
REMARK    6  A    between atoms: C_9  and  N_11 
REMARK       I    between atoms: N_11  and  C_29 
REMARK    7  A    between atoms: C_19  and  C_29 
REMARK    8  A    between atoms: C_19  and  N_25 
REMARK    9  A    between atoms: C_26  and  C_27 
ROOT
HETATM    1  C           1     -21.905  -6.777  -5.419  0.00  0.00     0.190 C 
ENDROOT
BRANCH   1   2
HETATM    2  C           1     -20.972  -7.940  -5.182  0.00  0.00     0.197 C 
HETATM    3  O           1     -19.744  -7.742  -5.063  0.00  0.00    -0.646 OA
HETATM    4  O           1     -21.428  -9.101  -5.105  0.00  0.00    -0.646 OA
ENDBRANCH   1   2
BRANCH   1   5
HETATM    5  C           1     -21.123  -5.610  -6.007  0.00  0.00     0.077 C 
BRANCH   5   6
HETATM    6  C           1     -21.924  -4.969  -7.096  0.00  0.00    -0.028 A 
HETATM    7  C           1     -21.466  -4.669  -8.409  0.00  0.00    -0.002 A 
HETATM    8  C           1     -22.531  -4.080  -9.091  0.00  0.00     0.042 A 
HETATM    9  C           1     -20.243  -4.843  -9.083  0.00  0.00     0.014 A 
HETATM   10  C           1     -22.433  -3.655 -10.421  0.00  0.00     0.030 A 
HETATM   11  N           1     -23.592  -4.029  -8.216  0.00  0.00    -0.365 N 
HETATM   12  C           1     -21.208  -3.838 -11.070  0.00  0.00     0.002 A 
HETATM   13  C           1     -20.128  -4.423 -10.413  0.00  0.00     0.001 A 
HETATM   14  H           1     -24.540  -3.636  -8.443  0.00  0.00     0.165 HD
HETATM   15  C           1     -23.236  -4.563  -7.006  0.00  0.00     0.096 A 
ENDBRANCH   5   6
ENDBRANCH   1   5
BRANCH   1  16
HETATM   16  N           1     -22.502  -6.374  -4.161  0.00  0.00    -0.344 N 
HETATM   17  H           1     -23.483  -6.125  -4.124  0.00  0.00     0.163 HD
HETATM   18  C           1     -21.741  -6.329  -3.025  0.00  0.00     0.249 C 
HETATM   19  O           1     -21.160  -5.312  -2.726  0.00  0.00    -0.271 OA
BRANCH  18  20
HETATM   20  C           1     -21.627  -7.549  -2.145  0.00  0.00     0.275 C 
BRANCH  20  21
HETATM   21  C           1     -22.330  -7.288  -0.819  0.00  0.00     0.053 C 
BRANCH  21  22
HETATM   22  C           1     -21.796  -8.246   0.237  0.00  0.00     0.115 C 
BRANCH  22  23
HETATM   23  C           1     -22.451  -9.595   0.072  0.00  0.00     0.172 C 
HETATM   24  O           1     -23.697  -9.684   0.035  0.00  0.00    -0.648 OA
HETATM   25  O           1     -21.748 -10.623  -0.027  0.00  0.00    -0.648 OA
ENDBRANCH  22  23
ENDBRANCH  21  22
ENDBRANCH  20  21
BRANCH  20  26
HETATM   26  N           1     -20.179  -7.849  -1.891  0.00  0.00    -0.066 N 
HETATM   27  H           1     -19.714  -8.108  -2.789  0.00  0.00     0.275 HD
HETATM   28  H           1     -19.714  -7.002  -1.491  0.00  0.00     0.275 HD
HETATM   29  H           1     -20.101  -8.642  -1.215  0.00  0.00     0.275 HD
ENDBRANCH  20  26
ENDBRANCH  18  20
ENDBRANCH   1  16
TORSDOF 9
ENDMDL
MODEL 4
REMARK VINA RESULT:      -7.4      2.229      2.750
REMARK  9 active torsions:
REMARK  status: ('A' for Active; 'I' for Inactive)
REMARK    1  A    between atoms: C_2  and  C_4 
REMARK    2  A    between atoms: C_2  and  C_3 
REMARK    3  A    between atoms: C_4  and  C_19 
REMARK    4  A    between atoms: C_7  and  C_9 
REMARK    5  A    between atoms: C_9  and  C_26 
REMARK    6  A    between atoms: C_9  and  N_11 
REMARK       I    between atoms: N_11  and  C_29 
REMARK    7  A    between atoms: C_19  and  C_29 
REMARK    8  A    between atoms: C_19  and  N_25 
REMARK    9  A    between atoms: C_26  and  C_27 
ROOT
HETATM    1  C           1     -21.116  -7.341  -5.540  0.00  0.00     0.190 C 
ENDROOT
BRANCH   1   2
HETATM    2  C           1     -21.922  -6.312  -4.785  0.00  0.00     0.197 C 
HETATM    3  O           1     -21.410  -5.700  -3.823  0.00  0.00    -0.646 OA
HETATM    4  O           1     -23.102  -6.074  -5.121  0.00  0.00    -0.646 OA
ENDBRANCH   1   2
BRANCH   1   5
HETATM    5  C           1     -20.254  -8.129  -4.562  0.00  0.00     0.077 C 
BRANCH   5   6
HETATM    6  C           1     -21.108  -9.102  -3.813  0.00  0.00    -0.028 A 
HETATM    7  C           1     -21.496  -9.001  -2.448  0.00  0.00    -0.002 A 
HETATM    8  C           1     -22.285 -10.115  -2.162  0.00  0.00     0.042 A 
HETATM    9  C           1     -21.247  -8.066  -1.426  0.00  0.00     0.014 A 
HETATM   10  C           1     -22.843 -10.341  -0.897  0.00  0.00     0.030 A 
HETATM   11  N           1     -22.369 -10.859  -3.317  0.00  0.00    -0.365 N 
HETATM   12  C           1     -22.583  -9.397   0.101  0.00  0.00     0.002 A 
HETATM   13  C           1     -21.798  -8.276  -0.156  0.00  0.00     0.001 A 
HETATM   14  H           1     -22.900 -11.760  -3.414  0.00  0.00     0.165 HD
HETATM   15  C           1     -21.661 -10.256  -4.322  0.00  0.00     0.096 A 
ENDBRANCH   5   6
ENDBRANCH   1   5
BRANCH   1  16
HETATM   16  N           1     -20.264  -6.674  -6.505  0.00  0.00    -0.344 N 
HETATM   17  H           1     -19.500  -7.177  -6.938  0.00  0.00     0.163 HD
HETATM   18  C           1     -20.494  -5.364  -6.831  0.00  0.00     0.249 C 
HETATM   19  O           1     -19.958  -4.482  -6.202  0.00  0.00    -0.271 OA
BRANCH  18  20
HETATM   20  C           1     -21.417  -5.022  -7.974  0.00  0.00     0.275 C 
BRANCH  20  21
HETATM   21  C           1     -20.646  -4.251  -9.037  0.00  0.00     0.053 C 
BRANCH  21  22
HETATM   22  C           1     -21.226  -4.559 -10.410  0.00  0.00     0.115 C 
BRANCH  22  23
HETATM   23  C           1     -22.058  -3.391 -10.880  0.00  0.00     0.172 C 
HETATM   24  O           1     -21.548  -2.513 -11.608  0.00  0.00    -0.648 OA
HETATM   25  O           1     -23.258  -3.301 -10.539  0.00  0.00    -0.648 OA
ENDBRANCH  22  23
ENDBRANCH  21  22
ENDBRANCH  20  21
BRANCH  20  26
HETATM   26  N           1     -22.548  -4.177  -7.467  0.00  0.00    -0.066 N 
HETATM   27  H           1     -22.550  -3.261  -7.968  0.00  0.00     0.275 HD
HETATM   28  H           1     -23.454  -4.669  -7.640  0.00  0.00     0.275 HD
HETATM   29  H           1     -22.430  -4.014  -6.442  0.00  0.00     0.275 HD
ENDBRANCH  20  26
ENDBRANCH  18  20
ENDBRANCH   1  16
TORSDOF 9
ENDMDL
MODEL 5
REMARK VINA RESULT:      -7.2     12.263     15.149
REMARK  9 active torsions:
REMARK  status: ('A' for Active; 'I' for Inactive)
REMARK    1  A    between atoms: C_2  and  C_4 
REMARK    2  A    between atoms: C_2  and  C_3 
REMARK    3  A    between atoms: C_4  and  C_19 
REMARK    4  A    between atoms: C_7  and  C_9 
REMARK    5  A    between atoms: C_9  and  C_26 
REMARK    6  A    between atoms: C_9  and  N_11 
REMARK       I    between atoms: N_11  and  C_29 
REMARK    7  A    between atoms: C_19  and  C_29 
REMARK    8  A    between atoms: C_19  and  N_25 
REMARK    9  A    between atoms: C_26  and  C_27 
ROOT
HETATM    1  C           1     -26.326  -7.054 -19.616  0.00  0.00     0.190 C 
ENDROOT
BRANCH   1   2
HETATM    2  C           1     -25.631  -7.388 -20.913  0.00  0.00     0.197 C 
HETATM    3  O           1     -25.764  -8.524 -21.418  0.00  0.00    -0.646 OA
HETATM    4  O           1     -24.922  -6.531 -21.481  0.00  0.00    -0.646 OA
ENDBRANCH   1   2
BRANCH   1   5
HETATM    5  C           1     -27.518  -6.148 -19.896  0.00  0.00     0.077 C 
BRANCH   5   6
HETATM    6  C           1     -28.674  -6.564 -19.043  0.00  0.00    -0.028 A 
HETATM    7  C           1     -29.583  -5.694 -18.378  0.00  0.00    -0.002 A 
HETATM    8  C           1     -30.499  -6.497 -17.699  0.00  0.00     0.042 A 
HETATM    9  C           1     -29.712  -4.295 -18.290  0.00  0.00     0.014 A 
HETATM   10  C           1     -31.544  -5.968 -16.932  0.00  0.00     0.030 A 
HETATM   11  N           1     -30.152  -7.806 -17.947  0.00  0.00    -0.365 N 
HETATM   12  C           1     -31.652  -4.576 -16.859  0.00  0.00     0.002 A 
HETATM   13  C           1     -30.751  -3.750 -17.528  0.00  0.00     0.001 A 
HETATM   14  H           1     -30.659  -8.645 -17.569  0.00  0.00     0.165 HD
HETATM   15  C           1     -29.049  -7.858 -18.759  0.00  0.00     0.096 A 
ENDBRANCH   5   6
ENDBRANCH   1   5
BRANCH   1  16
HETATM   16  N           1     -25.399  -6.372 -18.733  0.00  0.00    -0.344 N 
HETATM   17  H           1     -25.526  -5.389 -18.529  0.00  0.00     0.163 HD
HETATM   18  C           1     -24.355  -7.058 -18.175  0.00  0.00     0.249 C 
HETATM   19  O           1     -23.293  -7.114 -18.750  0.00  0.00    -0.271 OA
BRANCH  18  20
HETATM   20  C           1     -24.529  -7.745 -16.843  0.00  0.00     0.275 C 
BRANCH  20  21
HETATM   21  C           1     -25.120  -6.765 -15.838  0.00  0.00     0.053 C 
BRANCH  21  22
HETATM   22  C           1     -26.619  -7.004 -15.716  0.00  0.00     0.115 C 
BRANCH  22  23
HETATM   23  C           1     -27.349  -5.688 -15.817  0.00  0.00     0.172 C 
HETATM   24  O           1     -26.897  -4.776 -16.542  0.00  0.00    -0.648 OA
HETATM   25  O           1     -28.407  -5.509 -15.175  0.00  0.00    -0.648 OA
ENDBRANCH  22  23
ENDBRANCH  21  22
ENDBRANCH  20  21
BRANCH  20  26
HETATM   26  N           1     -23.195  -8.222 -16.349  0.00  0.00    -0.066 N 
HETATM   27  H           1     -22.516  -7.429 -16.358  0.00  0.00     0.275 HD
HETATM   28  H           1     -23.295  -8.583 -15.373  0.00  0.00     0.275 HD
HETATM   29  H           1     -22.846  -8.987 -16.970  0.00  0.00     0.275 HD
ENDBRANCH  20  26
ENDBRANCH  18  20
ENDBRANCH   1  16
TORSDOF 9
ENDMDL
MODEL 6
REMARK VINA RESULT:      -7.0     12.389     15.198
REMARK  9 active torsions:
REMARK  status: ('A' for Active; 'I' for Inactive)
REMARK    1  A    between atoms: C_2  and  C_4 
REMARK    2  A    between atoms: C_2  and  C_3 
REMARK    3  A    between atoms: C_4  and  C_19 
REMARK    4  A    between atoms: C_7  and  C_9 
REMARK    5  A    between atoms: C_9  and  C_26 
REMARK    6  A    between atoms: C_9  and  N_11 
REMARK       I    between atoms: N_11  and  C_29 
REMARK    7  A    between atoms: C_19  and  C_29 
REMARK    8  A    between atoms: C_19  and  N_25 
REMARK    9  A    between atoms: C_26  and  C_27 
ROOT
HETATM    1  C           1     -26.563  -7.015 -17.080  0.00  0.00     0.190 C 
ENDROOT
BRANCH   1   2
HETATM    2  C           1     -25.475  -6.733 -16.073  0.00  0.00     0.197 C 
HETATM    3  O           1     -25.098  -5.559 -15.871  0.00  0.00    -0.646 OA
HETATM    4  O           1     -24.950  -7.675 -15.441  0.00  0.00    -0.646 OA
ENDBRANCH   1   2
BRANCH   1   5
HETATM    5  C           1     -26.400  -6.088 -18.278  0.00  0.00     0.077 C 
BRANCH   5   6
HETATM    6  C           1     -25.852  -6.860 -19.437  0.00  0.00    -0.028 A 
HETATM    7  C           1     -24.491  -7.223 -19.634  0.00  0.00    -0.002 A 
HETATM    8  C           1     -24.425  -7.930 -20.835  0.00  0.00     0.042 A 
HETATM    9  C           1     -23.306  -7.017 -18.903  0.00  0.00     0.014 A 
HETATM   10  C           1     -23.226  -8.445 -21.344  0.00  0.00     0.030 A 
HETATM   11  N           1     -25.703  -7.989 -21.341  0.00  0.00    -0.365 N 
HETATM   12  C           1     -22.062  -8.227 -20.600  0.00  0.00     0.002 A 
HETATM   13  C           1     -22.099  -7.525 -19.397  0.00  0.00     0.001 A 
HETATM   14  H           1     -25.973  -8.460 -22.240  0.00  0.00     0.165 HD
HETATM   15  C           1     -26.575  -7.344 -20.503  0.00  0.00     0.096 A 
ENDBRANCH   5   6
ENDBRANCH   1   5
BRANCH   1  16
HETATM   16  N           1     -27.858  -6.790 -16.468  0.00  0.00    -0.344 N 
HETATM   17  H           1     -27.934  -6.201 -15.649  0.00  0.00     0.163 HD
HETATM   18  C           1     -28.976  -7.373 -16.999  0.00  0.00     0.249 C 
HETATM   19  O           1     -29.325  -8.466 -16.619  0.00  0.00    -0.271 OA
BRANCH  18  20
HETATM   20  C           1     -29.773  -6.653 -18.058  0.00  0.00     0.275 C 
BRANCH  20  21
HETATM   21  C           1     -30.319  -5.350 -17.486  0.00  0.00     0.053 C 
BRANCH  21  22
HETATM   22  C           1     -29.716  -4.173 -18.239  0.00  0.00     0.115 C 
BRANCH  22  23
HETATM   23  C           1     -28.998  -3.267 -17.269  0.00  0.00     0.172 C 
HETATM   24  O           1     -29.261  -2.046 -17.242  0.00  0.00    -0.648 OA
HETATM   25  O           1     -28.139  -3.738 -16.493  0.00  0.00    -0.648 OA
ENDBRANCH  22  23
ENDBRANCH  21  22
ENDBRANCH  20  21
BRANCH  20  26
HETATM   26  N           1     -30.915  -7.519 -18.501  0.00  0.00    -0.066 N 
HETATM   27  H           1     -31.343  -7.117 -19.364  0.00  0.00     0.275 HD
HETATM   28  H           1     -30.562  -8.482 -18.704  0.00  0.00     0.275 HD
HETATM   29  H           1     -31.633  -7.564 -17.743  0.00  0.00     0.275 HD
ENDBRANCH  20  26
ENDBRANCH  18  20
ENDBRANCH   1  16
TORSDOF 9
ENDMDL
MODEL 7
REMARK VINA RESULT:      -7.0      2.845      5.288
REMARK  9 active torsions:
REMARK  status: ('A' for Active; 'I' for Inactive)
REMARK    1  A    between atoms: C_2  and  C_4 
REMARK    2  A    between atoms: C_2  and  C_3 
REMARK    3  A    between atoms: C_4  and  C_19 
REMARK    4  A    between atoms: C_7  and  C_9 
REMARK    5  A    between atoms: C_9  and  C_26 
REMARK    6  A    between atoms: C_9  and  N_11 
REMARK       I    between atoms: N_11  and  C_29 
REMARK    7  A    between atoms: C_19  and  C_29 
REMARK    8  A    between atoms: C_19  and  N_25 
REMARK    9  A    between atoms: C_26  and  C_27 
ROOT
HETATM    1  C           1     -21.229  -8.673  -1.897  0.00  0.00     0.190 C 
ENDROOT
BRANCH   1   2
HETATM    2  C           1     -21.825  -8.712  -0.511  0.00  0.00     0.197 C 
HETATM    3  O           1     -21.146  -8.342   0.471  0.00  0.00    -0.646 OA
HETATM    4  O           1     -22.996  -9.114  -0.345  0.00  0.00    -0.646 OA
ENDBRANCH   1   2
BRANCH   1   5
HETATM    5  C           1     -20.006  -9.578  -1.951  0.00  0.00     0.077 C 
BRANCH   5   6
HETATM    6  C           1     -19.546  -9.714  -3.368  0.00  0.00    -0.028 A 
HETATM    7  C           1     -18.196  -9.716  -3.816  0.00  0.00    -0.002 A 
HETATM    8  C           1     -18.223  -9.864  -5.202  0.00  0.00     0.042 A 
HETATM    9  C           1     -16.950  -9.604  -3.170  0.00  0.00     0.014 A 
HETATM   10  C           1     -17.059  -9.908  -5.980  0.00  0.00     0.030 A 
HETATM   11  N           1     -19.545  -9.949  -5.575  0.00  0.00    -0.365 N 
HETATM   12  C           1     -15.834  -9.796  -5.317  0.00  0.00     0.002 A 
HETATM   13  C           1     -15.777  -9.646  -3.933  0.00  0.00     0.001 A 
HETATM   14  H           1     -19.886 -10.066  -6.562  0.00  0.00     0.165 HD
HETATM   15  C           1     -20.354  -9.859  -4.473  0.00  0.00     0.096 A 
ENDBRANCH   5   6
ENDBRANCH   1   5
BRANCH   1  16
HETATM   16  N           1     -20.838  -7.314  -2.217  0.00  0.00    -0.344 N 
HETATM   17  H           1     -19.944  -6.958  -1.904  0.00  0.00     0.163 HD
HETATM   18  C           1     -21.679  -6.512  -2.941  0.00  0.00     0.249 C 
HETATM   19  O           1     -22.493  -5.822  -2.374  0.00  0.00    -0.271 OA
BRANCH  18  20
HETATM   20  C           1     -21.589  -6.490  -4.447  0.00  0.00     0.275 C 
BRANCH  20  21
HETATM   21  C           1     -20.610  -5.407  -4.883  0.00  0.00     0.053 C 
BRANCH  21  22
HETATM   22  C           1     -20.216  -5.633  -6.336  0.00  0.00     0.115 C 
BRANCH  22  23
HETATM   23  C           1     -20.672  -4.461  -7.170  0.00  0.00     0.172 C 
HETATM   24  O           1     -21.868  -4.100  -7.139  0.00  0.00    -0.648 OA
HETATM   25  O           1     -19.854  -3.852  -7.893  0.00  0.00    -0.648 OA
ENDBRANCH  22  23
ENDBRANCH  21  22
ENDBRANCH  20  21
BRANCH  20  26
HETATM   26  N           1     -22.943  -6.200  -5.024  0.00  0.00    -0.066 N 
HETATM   27  H           1     -23.102  -5.169  -5.038  0.00  0.00     0.275 HD
HETATM   28  H           1     -22.991  -6.572  -6.000  0.00  0.00     0.275 HD
HETATM   29  H           1     -23.677  -6.659  -4.439  0.00  0.00     0.275 HD
ENDBRANCH  20  26
ENDBRANCH  18  20
ENDBRANCH   1  16
TORSDOF 9
ENDMDL
MODEL 8
REMARK VINA RESULT:      -7.0      1.416      2.042
REMARK  9 active torsions:
REMARK  status: ('A' for Active; 'I' for Inactive)
REMARK    1  A    between atoms: C_2  and  C_4 
REMARK    2  A    between atoms: C_2  and  C_3 
REMARK    3  A    between atoms: C_4  and  C_19 
REMARK    4  A    between atoms: C_7  and  C_9 
REMARK    5  A    between atoms: C_9  and  C_26 
REMARK    6  A    between atoms: C_9  and  N_11 
REMARK       I    between atoms: N_11  and  C_29 
REMARK    7  A    between atoms: C_19  and  C_29 
REMARK    8  A    between atoms: C_19  and  N_25 
REMARK    9  A    between atoms: C_26  and  C_27 
ROOT
HETATM    1  C           1     -19.868  -7.923  -5.214  0.00  0.00     0.190 C 
ENDROOT
BRANCH   1   2
HETATM    2  C           1     -18.756  -8.942  -5.179  0.00  0.00     0.197 C 
HETATM    3  O           1     -18.415  -9.531  -6.228  0.00  0.00    -0.646 OA
HETATM    4  O           1     -18.175  -9.197  -4.103  0.00  0.00    -0.646 OA
ENDBRANCH   1   2
BRANCH   1   5
HETATM    5  C           1     -21.213  -8.639  -5.231  0.00  0.00     0.077 C 
BRANCH   5   6
HETATM    6  C           1     -21.515  -9.170  -3.865  0.00  0.00    -0.028 A 
HETATM    7  C           1     -21.789  -8.393  -2.705  0.00  0.00    -0.002 A 
HETATM    8  C           1     -22.013  -9.286  -1.657  0.00  0.00     0.042 A 
HETATM    9  C           1     -21.867  -7.012  -2.447  0.00  0.00     0.014 A 
HETATM   10  C           1     -22.314  -8.864  -0.356  0.00  0.00     0.030 A 
HETATM   11  N           1     -21.878 -10.556  -2.171  0.00  0.00    -0.365 N 
HETATM   12  C           1     -22.386  -7.487  -0.124  0.00  0.00     0.002 A 
HETATM   13  C           1     -22.167  -6.573  -1.152  0.00  0.00     0.001 A 
HETATM   14  H           1     -21.990 -11.443  -1.620  0.00  0.00     0.165 HD
HETATM   15  C           1     -21.577 -10.497  -3.506  0.00  0.00     0.096 A 
ENDBRANCH   5   6
ENDBRANCH   1   5
BRANCH   1  16
HETATM   16  N           1     -19.740  -7.108  -6.406  0.00  0.00    -0.344 N 
HETATM   17  H           1     -19.288  -7.483  -7.229  0.00  0.00     0.163 HD
HETATM   18  C           1     -20.231  -5.830  -6.417  0.00  0.00     0.249 C 
HETATM   19  O           1     -19.526  -4.909  -6.078  0.00  0.00    -0.271 OA
BRANCH  18  20
HETATM   20  C           1     -21.652  -5.571  -6.851  0.00  0.00     0.275 C 
BRANCH  20  21
HETATM   21  C           1     -21.726  -4.238  -7.585  0.00  0.00     0.053 C 
BRANCH  21  22
HETATM   22  C           1     -21.812  -4.488  -9.084  0.00  0.00     0.115 C 
BRANCH  22  23
HETATM   23  C           1     -23.254  -4.430  -9.523  0.00  0.00     0.172 C 
HETATM   24  O           1     -23.659  -5.178 -10.439  0.00  0.00    -0.648 OA
HETATM   25  O           1     -24.044  -3.633  -8.973  0.00  0.00    -0.648 OA
ENDBRANCH  22  23
ENDBRANCH  21  22
ENDBRANCH  20  21
BRANCH  20  26
HETATM   26  N           1     -22.543  -5.526  -5.645  0.00  0.00    -0.066 N 
HETATM   27  H           1     -22.866  -6.492  -5.413  0.00  0.00     0.275 HD
HETATM   28  H           1     -22.012  -5.133  -4.835  0.00  0.00     0.275 HD
HETATM   29  H           1     -23.371  -4.921  -5.846  0.00  0.00     0.275 HD
ENDBRANCH  20  26
ENDBRANCH  18  20
ENDBRANCH   1  16
TORSDOF 9
ENDMDL
MODEL 9
REMARK VINA RESULT:      -6.6      3.312      7.057
REMARK  9 active torsions:
REMARK  status: ('A' for Active; 'I' for Inactive)
REMARK    1  A    between atoms: C_2  and  C_4 
REMARK    2  A    between atoms: C_2  and  C_3 
REMARK    3  A    between atoms: C_4  and  C_19 
REMARK    4  A    between atoms: C_7  and  C_9 
REMARK    5  A    between atoms: C_9  and  C_26 
REMARK    6  A    between atoms: C_9  and  N_11 
REMARK       I    between atoms: N_11  and  C_29 
REMARK    7  A    between atoms: C_19  and  C_29 
REMARK    8  A    between atoms: C_19  and  N_25 
REMARK    9  A    between atoms: C_26  and  C_27 
ROOT
HETATM    1  C           1     -21.446  -7.378  -3.613  0.00  0.00     0.190 C 
ENDROOT
BRANCH   1   2
HETATM    2  C           1     -21.719  -6.779  -2.255  0.00  0.00     0.197 C 
HETATM    3  O           1     -22.149  -5.609  -2.163  0.00  0.00    -0.646 OA
HETATM    4  O           1     -21.514  -7.452  -1.223  0.00  0.00    -0.646 OA
ENDBRANCH   1   2
BRANCH   1   5
HETATM    5  C           1     -22.272  -6.651  -4.666  0.00  0.00     0.077 C 
BRANCH   5   6
HETATM    6  C           1     -21.395  -6.271  -5.816  0.00  0.00    -0.028 A 
HETATM    7  C           1     -21.750  -5.414  -6.895  0.00  0.00    -0.002 A 
HETATM    8  C           1     -20.641  -5.334  -7.738  0.00  0.00     0.042 A 
HETATM    9  C           1     -22.913  -4.698  -7.235  0.00  0.00     0.014 A 
HETATM   10  C           1     -20.637  -4.569  -8.911  0.00  0.00     0.030 A 
HETATM   11  N           1     -19.654  -6.117  -7.184  0.00  0.00    -0.365 N 
HETATM   12  C           1     -21.803  -3.866  -9.228  0.00  0.00     0.002 A 
HETATM   13  C           1     -22.925  -3.928  -8.404  0.00  0.00     0.001 A 
HETATM   14  H           1     -18.696  -6.256  -7.593  0.00  0.00     0.165 HD
HETATM   15  C           1     -20.099  -6.688  -6.021  0.00  0.00     0.096 A 
ENDBRANCH   5   6
ENDBRANCH   1   5
BRANCH   1  16
HETATM   16  N           1     -21.805  -8.782  -3.603  0.00  0.00    -0.344 N 
HETATM   17  H           1     -22.762  -9.058  -3.419  0.00  0.00     0.163 HD
HETATM   18  C           1     -20.852  -9.735  -3.842  0.00  0.00     0.249 C 
HETATM   19  O           1     -20.221 -10.202  -2.923  0.00  0.00    -0.271 OA
BRANCH  18  20
HETATM   20  C           1     -20.589 -10.202  -5.252  0.00  0.00     0.275 C 
BRANCH  20  21
HETATM   21  C           1     -20.934 -11.681  -5.371  0.00  0.00     0.053 C 
BRANCH  21  22
HETATM   22  C           1     -21.338 -11.994  -6.805  0.00  0.00     0.115 C 
BRANCH  22  23
HETATM   23  C           1     -20.196 -12.684  -7.511  0.00  0.00     0.172 C 
HETATM   24  O           1     -19.200 -12.025  -7.879  0.00  0.00    -0.648 OA
HETATM   25  O           1     -20.247 -13.913  -7.729  0.00  0.00    -0.648 OA
ENDBRANCH  22  23
ENDBRANCH  21  22
ENDBRANCH  20  21
BRANCH  20  26
HETATM   26  N           1     -19.139 -10.000  -5.583  0.00  0.00    -0.066 N 
HETATM   27  H           1     -18.571 -10.056  -4.709  0.00  0.00     0.275 HD
HETATM   28  H           1     -18.828 -10.745  -6.248  0.00  0.00     0.275 HD
HETATM   29  H           1     -19.010  -9.062  -6.024  0.00  0.00     0.275 HD
ENDBRANCH  20  26
ENDBRANCH  18  20
ENDBRANCH   1  16
TORSDOF 9
ENDMDL
