MODEL 1
REMARK VINA RESULT:      -6.8      0.000      0.000
REMARK  9 active torsions:
REMARK  status: ('A' for Active; 'I' for Inactive)
REMARK    1  A    between atoms: N_1  and  C_21 
REMARK       I    between atoms: N_1  and  C_10 
REMARK    2  A    between atoms: N_4  and  C_9 
REMARK    3  A    between atoms: Se_6  and  C_7 
REMARK    4  A    between atoms: C_7  and  C_8 
REMARK    5  A    between atoms: C_8  and  C_9 
REMARK    6  A    between atoms: C_9  and  C_10 
REMARK    7  A    between atoms: C_11  and  C_21 
REMARK    8  A    between atoms: C_21  and  C_22 
REMARK    9  A    between atoms: C_22  and  C_23 
ROOT
HETATM    1  N           1     -22.244  -5.738  -5.630  0.00  0.00    -0.344 N 
HETATM    2  O           1     -20.956  -5.749  -3.806  0.00  0.00    -0.271 OA
HETATM    3  C           1     -21.606  -6.381  -4.603  0.00  0.00     0.249 C 
HETATM    4  H           1     -23.191  -5.403  -5.506  0.00  0.00     0.163 HD
ENDROOT
BRANCH   1   5
HETATM    5  C           1     -21.563  -5.537  -6.894  0.00  0.00     0.189 C 
BRANCH   5   6
HETATM    6  C           1     -20.072  -5.584  -6.675  0.00  0.00     0.197 C 
HETATM    7  O           1     -19.468  -4.568  -6.268  0.00  0.00    -0.646 OA
HETATM    8  O           1     -19.440  -6.639  -6.899  0.00  0.00    -0.646 OA
ENDBRANCH   5   6
BRANCH   5   9
HETATM    9  C           1     -21.951  -4.181  -7.468  0.00  0.00     0.074 C 
BRANCH   9  10
HETATM   10  C           1     -21.905  -4.240  -8.964  0.00  0.00    -0.056 A 
HETATM   11  C           1     -23.060  -4.540  -9.685  0.00  0.00     0.007 A 
HETATM   12  C           1     -23.019  -4.594 -11.078  0.00  0.00     0.001 A 
HETATM   13  C           1     -21.821  -4.350 -11.750  0.00  0.00     0.000 A 
HETATM   14  C           1     -20.666  -4.049 -11.028  0.00  0.00     0.001 A 
HETATM   15  C           1     -20.708  -3.995  -9.635  0.00  0.00     0.007 A 
ENDBRANCH   9  10
ENDBRANCH   5   9
ENDBRANCH   1   5
BRANCH   3  16
HETATM   16  C           1     -21.716  -7.880  -4.468  0.00  0.00     0.274 C 
BRANCH  16  17
HETATM   17  N           1     -21.267  -8.531  -5.742  0.00  0.00    -0.067 N 
HETATM   18  H           1     -22.002  -8.409  -6.475  0.00  0.00     0.275 HD
HETATM   19  H           1     -20.377  -8.089  -6.064  0.00  0.00     0.275 HD
HETATM   20  H           1     -21.108  -9.551  -5.576  0.00  0.00     0.275 HD
ENDBRANCH  16  17
BRANCH  16  21
HETATM   21  C           1     -20.834  -8.354  -3.319  0.00  0.00     0.042 C 
BRANCH  21  22
HETATM   22  C           1     -21.637  -9.275  -2.410  0.00  0.00     0.003 C 
BRANCH  22  23
HETATM   23 Se           1     -21.448  -8.689  -0.561  0.00  0.00     0.000 Se
HETATM   24  C           1     -22.371  -6.993  -0.833  0.00  0.00     0.000 C 
ENDBRANCH  22  23
ENDBRANCH  21  22
ENDBRANCH  16  21
ENDBRANCH   3  16
TORSDOF 9
ENDMDL
MODEL 2
REMARK VINA RESULT:      -6.7      2.830      7.109
REMARK  9 active torsions:
REMARK  status: ('A' for Active; 'I' for Inactive)
REMARK    1  A    between atoms: N_1  and  C_21 
REMARK       I    between atoms: N_1  and  C_10 
REMARK    2  A    between atoms: N_4  and  C_9 
REMARK    3  A    between atoms: Se_6  and  C_7 
REMARK    4  A    between atoms: C_7  and  C_8 
REMARK    5  A    between atoms: C_8  and  C_9 
REMARK    6  A    between atoms: C_9  and  C_10 
REMARK    7  A    between atoms: C_11  and  C_21 
REMARK    8  A    between atoms: C_21  and  C_22 
REMARK    9  A    between atoms: C_22  and  C_23 
ROOT
HETATM    1  N           1     -20.775  -7.745  -5.917  0.00  0.00    -0.344 N 
HETATM    2  O           1     -19.444  -6.509  -7.216  0.00  0.00    -0.271 OA
HETATM    3  C           1     -20.354  -6.545  -6.424  0.00  0.00     0.249 C 
HETATM    4  H           1     -21.502  -8.267  -6.390  0.00  0.00     0.163 HD
ENDROOT
BRANCH   1   5
HETATM    5  C           1     -20.179  -8.271  -4.704  0.00  0.00     0.189 C 
BRANCH   5   6
HETATM    6  C           1     -18.986  -9.122  -5.058  0.00  0.00     0.197 C 
HETATM    7  O           1     -18.928  -9.683  -6.174  0.00  0.00    -0.646 OA
HETATM    8  O           1     -18.055  -9.267  -4.236  0.00  0.00    -0.646 OA
ENDBRANCH   5   6
BRANCH   5   9
HETATM    9  C           1     -21.205  -9.116  -3.960  0.00  0.00     0.074 C 
BRANCH   9  10
HETATM   10  C           1     -21.623  -8.408  -2.709  0.00  0.00    -0.056 A 
HETATM   11  C           1     -21.863  -9.136  -1.544  0.00  0.00     0.007 A 
HETATM   12  C           1     -22.251  -8.477  -0.377  0.00  0.00     0.001 A 
HETATM   13  C           1     -22.401  -7.090  -0.376  0.00  0.00     0.000 A 
HETATM   14  C           1     -22.161  -6.363  -1.542  0.00  0.00     0.001 A 
HETATM   15  C           1     -21.773  -7.022  -2.708  0.00  0.00     0.007 A 
ENDBRANCH   9  10
ENDBRANCH   5   9
ENDBRANCH   1   5
BRANCH   3  16
HETATM   16  C           1     -21.028  -5.266  -5.990  0.00  0.00     0.274 C 
BRANCH  16  17
HETATM   17  N           1     -20.189  -4.588  -4.947  0.00  0.00    -0.067 N 
HETATM   18  H           1     -19.245  -4.376  -5.341  0.00  0.00     0.275 HD
HETATM   19  H           1     -20.653  -3.698  -4.653  0.00  0.00     0.275 HD
HETATM   20  H           1     -20.087  -5.217  -4.118  0.00  0.00     0.275 HD
ENDBRANCH  16  17
BRANCH  16  21
HETATM   21  C           1     -21.187  -4.342  -7.191  0.00  0.00     0.042 C 
BRANCH  21  22
HETATM   22  C           1     -22.637  -4.361  -7.657  0.00  0.00     0.003 C 
BRANCH  22  23
HETATM   23 Se           1     -22.704  -4.058  -9.581  0.00  0.00     0.000 Se
HETATM   24  C           1     -20.786  -4.293  -9.850  0.00  0.00     0.000 C 
ENDBRANCH  22  23
ENDBRANCH  21  22
ENDBRANCH  16  21
ENDBRANCH   3  16
TORSDOF 9
ENDMDL
MODEL 3
REMARK VINA RESULT:      -6.6     12.660     14.762
REMARK  9 active torsions:
REMARK  status: ('A' for Active; 'I' for Inactive)
REMARK    1  A    between atoms: N_1  and  C_21 
REMARK       I    between atoms: N_1  and  C_10 
REMARK    2  A    between atoms: N_4  and  C_9 
REMARK    3  A    between atoms: Se_6  and  C_7 
REMARK    4  A    between atoms: C_7  and  C_8 
REMARK    5  A    between atoms: C_8  and  C_9 
REMARK    6  A    between atoms: C_9  and  C_10 
REMARK    7  A    between atoms: C_11  and  C_21 
REMARK    8  A    between atoms: C_21  and  C_22 
REMARK    9  A    between atoms: C_22  and  C_23 
ROOT
HETATM    1  N           1     -26.061  -7.092 -18.147  0.00  0.00    -0.344 N 
HETATM    2  O           1     -24.062  -6.303 -18.754  0.00  0.00    -0.271 OA
HETATM    3  C           1     -25.107  -6.807 -19.087  0.00  0.00     0.249 C 
HETATM    4  H           1     -26.065  -7.994 -17.688  0.00  0.00     0.163 HD
ENDROOT
BRANCH   1   5
HETATM    5  C           1     -27.065  -6.102 -17.807  0.00  0.00     0.189 C 
BRANCH   5   6
HETATM    6  C           1     -27.367  -6.179 -16.331  0.00  0.00     0.197 C 
HETATM    7  O           1     -27.445  -5.132 -15.654  0.00  0.00    -0.646 OA
HETATM    8  O           1     -27.539  -7.291 -15.787  0.00  0.00    -0.646 OA
ENDBRANCH   5   6
BRANCH   5   9
HETATM    9  C           1     -28.335  -6.375 -18.602  0.00  0.00     0.074 C 
BRANCH   9  10
HETATM   10  C           1     -29.459  -5.560 -18.041  0.00  0.00    -0.056 A 
HETATM   11  C           1     -30.512  -6.190 -17.378  0.00  0.00     0.007 A 
HETATM   12  C           1     -31.560  -5.433 -16.854  0.00  0.00     0.001 A 
HETATM   13  C           1     -31.555  -4.045 -16.996  0.00  0.00     0.000 A 
HETATM   14  C           1     -30.502  -3.416 -17.660  0.00  0.00     0.001 A 
HETATM   15  C           1     -29.455  -4.174 -18.183  0.00  0.00     0.007 A 
ENDBRANCH   9  10
ENDBRANCH   5   9
ENDBRANCH   1   5
BRANCH   3  16
HETATM   16  C           1     -25.364  -7.121 -20.540  0.00  0.00     0.274 C 
BRANCH  16  17
HETATM   17  N           1     -25.218  -5.871 -21.356  0.00  0.00    -0.067 N 
HETATM   18  H           1     -25.852  -5.131 -20.979  0.00  0.00     0.275 HD
HETATM   19  H           1     -24.228  -5.539 -21.309  0.00  0.00     0.275 HD
HETATM   20  H           1     -25.470  -6.072 -22.351  0.00  0.00     0.275 HD
ENDBRANCH  16  17
BRANCH  16  21
HETATM   21  C           1     -24.359  -8.160 -21.022  0.00  0.00     0.042 C 
BRANCH  21  22
HETATM   22  C           1     -23.917  -7.820 -22.439  0.00  0.00     0.003 C 
BRANCH  22  23
HETATM   23 Se           1     -22.345  -8.876 -22.899  0.00  0.00     0.000 Se
HETATM   24  C           1     -21.561  -8.786 -21.115  0.00  0.00     0.000 C 
ENDBRANCH  22  23
ENDBRANCH  21  22
ENDBRANCH  16  21
ENDBRANCH   3  16
TORSDOF 9
ENDMDL
MODEL 4
REMARK VINA RESULT:      -6.5      1.912      2.920
REMARK  9 active torsions:
REMARK  status: ('A' for Active; 'I' for Inactive)
REMARK    1  A    between atoms: N_1  and  C_21 
REMARK       I    between atoms: N_1  and  C_10 
REMARK    2  A    between atoms: N_4  and  C_9 
REMARK    3  A    between atoms: Se_6  and  C_7 
REMARK    4  A    between atoms: C_7  and  C_8 
REMARK    5  A    between atoms: C_8  and  C_9 
REMARK    6  A    between atoms: C_9  and  C_10 
REMARK    7  A    between atoms: C_11  and  C_21 
REMARK    8  A    between atoms: C_21  and  C_22 
REMARK    9  A    between atoms: C_22  and  C_23 
ROOT
HETATM    1  N           1     -22.560  -6.446  -3.884  0.00  0.00    -0.344 N 
HETATM    2  O           1     -21.563  -5.287  -2.257  0.00  0.00    -0.271 OA
HETATM    3  C           1     -21.949  -6.357  -2.662  0.00  0.00     0.249 C 
HETATM    4  H           1     -23.564  -6.343  -3.956  0.00  0.00     0.163 HD
ENDROOT
BRANCH   1   5
HETATM    5  C           1     -21.770  -6.689  -5.075  0.00  0.00     0.189 C 
BRANCH   5   6
HETATM    6  C           1     -21.000  -7.976  -4.913  0.00  0.00     0.197 C 
HETATM    7  O           1     -19.757  -7.950  -4.785  0.00  0.00    -0.646 OA
HETATM    8  O           1     -21.607  -9.070  -4.908  0.00  0.00    -0.646 OA
ENDBRANCH   5   6
BRANCH   5   9
HETATM    9  C           1     -20.796  -5.536  -5.281  0.00  0.00     0.074 C 
BRANCH   9  10
HETATM   10  C           1     -20.909  -5.031  -6.685  0.00  0.00    -0.056 A 
HETATM   11  C           1     -22.126  -4.532  -7.149  0.00  0.00     0.007 A 
HETATM   12  C           1     -22.233  -4.060  -8.458  0.00  0.00     0.001 A 
HETATM   13  C           1     -21.123  -4.088  -9.302  0.00  0.00     0.000 A 
HETATM   14  C           1     -19.906  -4.587  -8.837  0.00  0.00     0.001 A 
HETATM   15  C           1     -19.800  -5.059  -7.529  0.00  0.00     0.007 A 
ENDBRANCH   9  10
ENDBRANCH   5   9
ENDBRANCH   1   5
BRANCH   3  16
HETATM   16  C           1     -21.757  -7.596  -1.823  0.00  0.00     0.274 C 
BRANCH  16  17
HETATM   17  N           1     -20.291  -7.873  -1.668  0.00  0.00    -0.067 N 
HETATM   18  H           1     -20.052  -8.770  -2.148  0.00  0.00     0.275 HD
HETATM   19  H           1     -19.742  -7.092  -2.094  0.00  0.00     0.275 HD
HETATM   20  H           1     -20.055  -7.949  -0.652  0.00  0.00     0.275 HD
ENDBRANCH  16  17
BRANCH  16  21
HETATM   21  C           1     -22.379  -7.381  -0.449  0.00  0.00     0.042 C 
BRANCH  21  22
HETATM   22  C           1     -22.164  -8.624   0.405  0.00  0.00     0.003 C 
BRANCH  22  23
HETATM   23 Se           1     -23.043 -10.148  -0.433  0.00  0.00     0.000 Se
HETATM   24  C           1     -21.426 -11.233  -0.534  0.00  0.00     0.000 C 
ENDBRANCH  22  23
ENDBRANCH  21  22
ENDBRANCH  16  21
ENDBRANCH   3  16
TORSDOF 9
ENDMDL
MODEL 5
REMARK VINA RESULT:      -6.4      4.017      7.022
REMARK  9 active torsions:
REMARK  status: ('A' for Active; 'I' for Inactive)
REMARK    1  A    between atoms: N_1  and  C_21 
REMARK       I    between atoms: N_1  and  C_10 
REMARK    2  A    between atoms: N_4  and  C_9 
REMARK    3  A    between atoms: Se_6  and  C_7 
REMARK    4  A    between atoms: C_7  and  C_8 
REMARK    5  A    between atoms: C_8  and  C_9 
REMARK    6  A    between atoms: C_9  and  C_10 
REMARK    7  A    between atoms: C_11  and  C_21 
REMARK    8  A    between atoms: C_21  and  C_22 
REMARK    9  A    between atoms: C_22  and  C_23 
ROOT
HETATM    1  N           1     -19.858  -8.494  -4.495  0.00  0.00    -0.344 N 
HETATM    2  O           1     -19.889 -10.149  -5.993  0.00  0.00    -0.271 OA
HETATM    3  C           1     -19.722  -9.810  -4.847  0.00  0.00     0.249 C 
HETATM    4  H           1     -19.056  -7.877  -4.527  0.00  0.00     0.163 HD
ENDROOT
BRANCH   1   5
HETATM    5  C           1     -21.149  -7.984  -4.076  0.00  0.00     0.189 C 
BRANCH   5   6
HETATM    6  C           1     -21.689  -7.055  -5.135  0.00  0.00     0.197 C 
HETATM    7  O           1     -21.193  -7.060  -6.283  0.00  0.00    -0.646 OA
HETATM    8  O           1     -22.633  -6.282  -4.865  0.00  0.00    -0.646 OA
ENDBRANCH   5   6
BRANCH   5   9
HETATM    9  C           1     -20.993  -7.224  -2.765  0.00  0.00     0.074 C 
BRANCH   9  10
HETATM   10  C           1     -21.781  -7.911  -1.694  0.00  0.00    -0.056 A 
HETATM   11  C           1     -21.981  -9.290  -1.752  0.00  0.00     0.007 A 
HETATM   12  C           1     -22.714  -9.931  -0.753  0.00  0.00     0.001 A 
HETATM   13  C           1     -23.248  -9.192   0.303  0.00  0.00     0.000 A 
HETATM   14  C           1     -23.048  -7.813   0.360  0.00  0.00     0.001 A 
HETATM   15  C           1     -22.315  -7.173  -0.638  0.00  0.00     0.007 A 
ENDBRANCH   9  10
ENDBRANCH   5   9
ENDBRANCH   1   5
BRANCH   3  16
HETATM   16  C           1     -19.365 -10.837  -3.800  0.00  0.00     0.274 C 
BRANCH  16  17
HETATM   17  N           1     -18.576 -11.944  -4.435  0.00  0.00    -0.067 N 
HETATM   18  H           1     -17.556 -11.730  -4.364  0.00  0.00     0.275 HD
HETATM   19  H           1     -18.778 -12.843  -3.941  0.00  0.00     0.275 HD
HETATM   20  H           1     -18.845 -12.032  -5.441  0.00  0.00     0.275 HD
ENDBRANCH  16  17
BRANCH  16  21
HETATM   21  C           1     -18.530 -10.182  -2.708  0.00  0.00     0.042 C 
BRANCH  21  22
HETATM   22  C           1     -17.937 -11.258  -1.808  0.00  0.00     0.003 C 
BRANCH  22  23
HETATM   23 Se           1     -15.992 -11.144  -1.855  0.00  0.00     0.000 Se
HETATM   24  C           1     -15.950  -9.508  -2.916  0.00  0.00     0.000 C 
ENDBRANCH  22  23
ENDBRANCH  21  22
ENDBRANCH  16  21
ENDBRANCH   3  16
TORSDOF 9
ENDMDL
MODEL 6
REMARK VINA RESULT:      -6.4      4.696      7.286
REMARK  9 active torsions:
REMARK  status: ('A' for Active; 'I' for Inactive)
REMARK    1  A    between atoms: N_1  and  C_21 
REMARK       I    between atoms: N_1  and  C_10 
REMARK    2  A    between atoms: N_4  and  C_9 
REMARK    3  A    between atoms: Se_6  and  C_7 
REMARK    4  A    between atoms: C_7  and  C_8 
REMARK    5  A    between atoms: C_8  and  C_9 
REMARK    6  A    between atoms: C_9  and  C_10 
REMARK    7  A    between atoms: C_11  and  C_21 
REMARK    8  A    between atoms: C_21  and  C_22 
REMARK    9  A    between atoms: C_22  and  C_23 
ROOT
HETATM    1  N           1     -20.024  -7.746  -3.749  0.00  0.00    -0.344 N 
HETATM    2  O           1     -19.917  -7.915  -5.973  0.00  0.00    -0.271 OA
HETATM    3  C           1     -19.711  -8.423  -4.897  0.00  0.00     0.249 C 
HETATM    4  H           1     -19.336  -7.145  -3.313  0.00  0.00     0.163 HD
ENDROOT
BRANCH   1   5
HETATM    5  C           1     -21.340  -7.887  -3.158  0.00  0.00     0.189 C 
BRANCH   5   6
HETATM    6  C           1     -22.064  -6.566  -3.221  0.00  0.00     0.197 C 
HETATM    7  O           1     -22.379  -5.974  -2.166  0.00  0.00    -0.646 OA
HETATM    8  O           1     -22.349  -6.062  -4.329  0.00  0.00    -0.646 OA
ENDBRANCH   5   6
BRANCH   5   9
HETATM    9  C           1     -21.199  -8.321  -1.704  0.00  0.00     0.074 C 
BRANCH   9  10
HETATM   10  C           1     -22.168  -9.426  -1.416  0.00  0.00    -0.056 A 
HETATM   11  C           1     -22.318 -10.475  -2.324  0.00  0.00     0.007 A 
HETATM   12  C           1     -23.219 -11.505  -2.056  0.00  0.00     0.001 A 
HETATM   13  C           1     -23.972 -11.485  -0.882  0.00  0.00     0.000 A 
HETATM   14  C           1     -23.822 -10.435   0.025  0.00  0.00     0.001 A 
HETATM   15  C           1     -22.921  -9.406  -0.243  0.00  0.00     0.007 A 
ENDBRANCH   9  10
ENDBRANCH   5   9
ENDBRANCH   1   5
BRANCH   3  16
HETATM   16  C           1     -19.111  -9.805  -4.817  0.00  0.00     0.274 C 
BRANCH  16  17
HETATM   17  N           1     -18.368 -10.102  -6.086  0.00  0.00    -0.067 N 
HETATM   18  H           1     -18.818  -9.596  -6.881  0.00  0.00     0.275 HD
HETATM   19  H           1     -17.376  -9.788  -5.989  0.00  0.00     0.275 HD
HETATM   20  H           1     -18.391 -11.131  -6.271  0.00  0.00     0.275 HD
ENDBRANCH  16  17
BRANCH  16  21
HETATM   21  C           1     -18.148  -9.874  -3.639  0.00  0.00     0.042 C 
BRANCH  21  22
HETATM   22  C           1     -18.611 -10.951  -2.666  0.00  0.00     0.003 C 
BRANCH  22  23
HETATM   23 Se           1     -17.090 -11.584  -1.626  0.00  0.00     0.000 Se
HETATM   24  C           1     -15.805 -10.382  -2.467  0.00  0.00     0.000 C 
ENDBRANCH  22  23
ENDBRANCH  21  22
ENDBRANCH  16  21
ENDBRANCH   3  16
TORSDOF 9
ENDMDL
MODEL 7
REMARK VINA RESULT:      -6.4      3.470      5.882
REMARK  9 active torsions:
REMARK  status: ('A' for Active; 'I' for Inactive)
REMARK    1  A    between atoms: N_1  and  C_21 
REMARK       I    between atoms: N_1  and  C_10 
REMARK    2  A    between atoms: N_4  and  C_9 
REMARK    3  A    between atoms: Se_6  and  C_7 
REMARK    4  A    between atoms: C_7  and  C_8 
REMARK    5  A    between atoms: C_8  and  C_9 
REMARK    6  A    between atoms: C_9  and  C_10 
REMARK    7  A    between atoms: C_11  and  C_21 
REMARK    8  A    between atoms: C_21  and  C_22 
REMARK    9  A    between atoms: C_22  and  C_23 
ROOT
HETATM    1  N           1     -21.673  -7.648  -3.789  0.00  0.00    -0.344 N 
HETATM    2  O           1     -22.219  -5.918  -2.487  0.00  0.00    -0.271 OA
HETATM    3  C           1     -21.819  -7.054  -2.564  0.00  0.00     0.249 C 
HETATM    4  H           1     -22.444  -8.161  -4.197  0.00  0.00     0.163 HD
ENDROOT
BRANCH   1   5
HETATM    5  C           1     -20.415  -7.542  -4.502  0.00  0.00     0.189 C 
BRANCH   5   6
HETATM    6  C           1     -20.549  -6.525  -5.608  0.00  0.00     0.197 C 
HETATM    7  O           1     -20.771  -6.901  -6.779  0.00  0.00    -0.646 OA
HETATM    8  O           1     -20.437  -5.307  -5.353  0.00  0.00    -0.646 OA
ENDBRANCH   5   6
BRANCH   5   9
HETATM    9  C           1     -20.054  -8.897  -5.097  0.00  0.00     0.074 C 
BRANCH   9  10
HETATM   10  C           1     -18.659  -9.263  -4.695  0.00  0.00    -0.056 A 
HETATM   11  C           1     -17.732  -9.641  -5.666  0.00  0.00     0.007 A 
HETATM   12  C           1     -16.431  -9.981  -5.294  0.00  0.00     0.001 A 
HETATM   13  C           1     -16.059  -9.945  -3.949  0.00  0.00     0.000 A 
HETATM   14  C           1     -16.987  -9.567  -2.979  0.00  0.00     0.001 A 
HETATM   15  C           1     -18.287  -9.227  -3.352  0.00  0.00     0.007 A 
ENDBRANCH   9  10
ENDBRANCH   5   9
ENDBRANCH   1   5
BRANCH   3  16
HETATM   16  C           1     -21.479  -7.821  -1.309  0.00  0.00     0.274 C 
BRANCH  16  17
HETATM   17  N           1     -22.408  -7.411  -0.205  0.00  0.00    -0.067 N 
HETATM   18  H           1     -22.044  -6.546   0.254  0.00  0.00     0.275 HD
HETATM   19  H           1     -23.357  -7.224  -0.600  0.00  0.00     0.275 HD
HETATM   20  H           1     -22.470  -8.180   0.501  0.00  0.00     0.275 HD
ENDBRANCH  16  17
BRANCH  16  21
HETATM   21  C           1     -21.630  -9.315  -1.569  0.00  0.00     0.042 C 
BRANCH  21  22
HETATM   22  C           1     -22.773  -9.864  -0.726  0.00  0.00     0.003 C 
BRANCH  22  23
HETATM   23 Se           1     -22.209 -11.520   0.132  0.00  0.00     0.000 Se
HETATM   24  C           1     -20.555 -10.777   0.851  0.00  0.00     0.000 C 
ENDBRANCH  22  23
ENDBRANCH  21  22
ENDBRANCH  16  21
ENDBRANCH   3  16
TORSDOF 9
ENDMDL
MODEL 8
REMARK VINA RESULT:      -6.4     11.483     13.753
REMARK  9 active torsions:
REMARK  status: ('A' for Active; 'I' for Inactive)
REMARK    1  A    between atoms: N_1  and  C_21 
REMARK       I    between atoms: N_1  and  C_10 
REMARK    2  A    between atoms: N_4  and  C_9 
REMARK    3  A    between atoms: Se_6  and  C_7 
REMARK    4  A    between atoms: C_7  and  C_8 
REMARK    5  A    between atoms: C_8  and  C_9 
REMARK    6  A    between atoms: C_9  and  C_10 
REMARK    7  A    between atoms: C_11  and  C_21 
REMARK    8  A    between atoms: C_21  and  C_22 
REMARK    9  A    between atoms: C_22  and  C_23 
ROOT
HETATM    1  N           1     -27.977  -6.769 -16.375  0.00  0.00    -0.344 N 
HETATM    2  O           1     -29.279  -8.582 -16.300  0.00  0.00    -0.271 OA
HETATM    3  C           1     -29.039  -7.516 -16.812  0.00  0.00     0.249 C 
HETATM    4  H           1     -28.104  -6.096 -15.631  0.00  0.00     0.163 HD
ENDROOT
BRANCH   1   5
HETATM    5  C           1     -26.670  -6.943 -16.979  0.00  0.00     0.189 C 
BRANCH   5   6
HETATM    6  C           1     -25.601  -6.608 -15.969  0.00  0.00     0.197 C 
HETATM    7  O           1     -25.007  -5.510 -16.029  0.00  0.00    -0.646 OA
HETATM    8  O           1     -25.311  -7.428 -15.072  0.00  0.00    -0.646 OA
ENDBRANCH   5   6
BRANCH   5   9
HETATM    9  C           1     -26.541  -6.018 -18.183  0.00  0.00     0.074 C 
BRANCH   9  10
HETATM   10  C           1     -25.925  -6.766 -19.324  0.00  0.00    -0.056 A 
HETATM   11  C           1     -26.731  -7.261 -20.349  0.00  0.00     0.007 A 
HETATM   12  C           1     -26.158  -7.957 -21.413  0.00  0.00     0.001 A 
HETATM   13  C           1     -24.778  -8.161 -21.450  0.00  0.00     0.000 A 
HETATM   14  C           1     -23.973  -7.667 -20.425  0.00  0.00     0.001 A 
HETATM   15  C           1     -24.546  -6.970 -19.361  0.00  0.00     0.007 A 
ENDBRANCH   9  10
ENDBRANCH   5   9
ENDBRANCH   1   5
BRANCH   3  16
HETATM   16  C           1     -29.908  -7.005 -17.935  0.00  0.00     0.274 C 
BRANCH  16  17
HETATM   17  N           1     -30.223  -8.130 -18.875  0.00  0.00    -0.067 N 
HETATM   18  H           1     -31.256  -8.183 -19.023  0.00  0.00     0.275 HD
HETATM   19  H           1     -29.748  -7.961 -19.791  0.00  0.00     0.275 HD
HETATM   20  H           1     -29.883  -9.030 -18.468  0.00  0.00     0.275 HD
ENDBRANCH  16  17
BRANCH  16  21
HETATM   21  C           1     -31.204  -6.447 -17.361  0.00  0.00     0.042 C 
BRANCH  21  22
HETATM   22  C           1     -30.898  -5.217 -16.516  0.00  0.00     0.003 C 
BRANCH  22  23
HETATM   23 Se           1     -30.696  -3.665 -17.677  0.00  0.00     0.000 Se
HETATM   24  C           1     -28.832  -3.348 -17.203  0.00  0.00     0.000 C 
ENDBRANCH  22  23
ENDBRANCH  21  22
ENDBRANCH  16  21
ENDBRANCH   3  16
TORSDOF 9
ENDMDL
MODEL 9
REMARK VINA RESULT:      -6.4      4.090      7.281
REMARK  9 active torsions:
REMARK  status: ('A' for Active; 'I' for Inactive)
REMARK    1  A    between atoms: N_1  and  C_21 
REMARK       I    between atoms: N_1  and  C_10 
REMARK    2  A    between atoms: N_4  and  C_9 
REMARK    3  A    between atoms: Se_6  and  C_7 
REMARK    4  A    between atoms: C_7  and  C_8 
REMARK    5  A    between atoms: C_8  and  C_9 
REMARK    6  A    between atoms: C_9  and  C_10 
REMARK    7  A    between atoms: C_11  and  C_21 
REMARK    8  A    between atoms: C_21  and  C_22 
REMARK    9  A    between atoms: C_22  and  C_23 
ROOT
HETATM    1  N           1     -19.670  -8.061  -4.673  0.00  0.00    -0.344 N 
HETATM    2  O           1     -19.350 -10.004  -5.728  0.00  0.00    -0.271 OA
HETATM    3  C           1     -19.217  -9.353  -4.720  0.00  0.00     0.249 C 
HETATM    4  H           1     -19.058  -7.301  -4.941  0.00  0.00     0.163 HD
ENDROOT
BRANCH   1   5
HETATM    5  C           1     -21.025  -7.783  -4.240  0.00  0.00     0.189 C 
BRANCH   5   6
HETATM    6  C           1     -21.733  -6.971  -5.296  0.00  0.00     0.197 C 
HETATM    7  O           1     -22.722  -6.272  -4.989  0.00  0.00    -0.646 OA
HETATM    8  O           1     -21.329  -6.998  -6.479  0.00  0.00    -0.646 OA
ENDBRANCH   5   6
BRANCH   5   9
HETATM    9  C           1     -20.989  -6.998  -2.935  0.00  0.00     0.074 C 
BRANCH   9  10
HETATM   10  C           1     -21.702  -7.770  -1.869  0.00  0.00    -0.056 A 
HETATM   11  C           1     -22.277  -7.099  -0.789  0.00  0.00     0.007 A 
HETATM   12  C           1     -22.943  -7.817   0.204  0.00  0.00     0.001 A 
HETATM   13  C           1     -23.032  -9.207   0.119  0.00  0.00     0.000 A 
HETATM   14  C           1     -22.457  -9.877  -0.960  0.00  0.00     0.001 A 
HETATM   15  C           1     -21.791  -9.159  -1.953  0.00  0.00     0.007 A 
ENDBRANCH   9  10
ENDBRANCH   5   9
ENDBRANCH   1   5
BRANCH   3  16
HETATM   16  C           1     -18.552  -9.962  -3.510  0.00  0.00     0.274 C 
BRANCH  16  17
HETATM   17  N           1     -18.757 -11.449  -3.522  0.00  0.00    -0.067 N 
HETATM   18  H           1     -18.869 -11.794  -2.542  0.00  0.00     0.275 HD
HETATM   19  H           1     -19.615 -11.677  -4.072  0.00  0.00     0.275 HD
HETATM   20  H           1     -17.929 -11.911  -3.962  0.00  0.00     0.275 HD
ENDBRANCH  16  17
BRANCH  16  21
HETATM   21  C           1     -17.060  -9.657  -3.541  0.00  0.00     0.042 C 
BRANCH  21  22
HETATM   22  C           1     -16.285 -10.938  -3.822  0.00  0.00     0.003 C 
BRANCH  22  23
HETATM   23 Se           1     -15.671 -10.933  -5.672  0.00  0.00     0.000 Se
HETATM   24  C           1     -14.070 -11.987  -5.314  0.00  0.00     0.000 C 
ENDBRANCH  22  23
ENDBRANCH  21  22
ENDBRANCH  16  21
ENDBRANCH   3  16
TORSDOF 9
ENDMDL
