MODEL 1
REMARK VINA RESULT:      -6.6      0.000      0.000
REMARK  16 active torsions:
REMARK  status: ('A' for Active; 'I' for Inactive)
REMARK    1  A    between atoms: C_5  and  C_19 
REMARK    2  A    between atoms: C_5  and  C_6 
REMARK    3  A    between atoms: C_6  and  C_7 
REMARK    4  A    between atoms: C_7  and  N_8 
REMARK       I    between atoms: N_8  and  C_9 
REMARK       I    between atoms: C_9  and  N_10 
REMARK    5  A    between atoms: N_12  and  C_19 
REMARK    6  A    between atoms: C_13  and  C_20 
REMARK    7  A    between atoms: C_13  and  C_14 
REMARK    8  A    between atoms: C_13  and  N_28 
REMARK    9  A    between atoms: C_19  and  C_29 
REMARK   10  A    between atoms: C_20  and  C_21 
REMARK   11  A    between atoms: C_21  and  S_22 
REMARK   12  A    between atoms: C_24  and  C_25 
REMARK   13  A    between atoms: C_25  and  C_26 
REMARK   14  A    between atoms: C_25  and  N_30 
REMARK   15  A    between atoms: C_26  and  C_27 
REMARK   16  A    between atoms: C_27  and  N_28 
REMARK       I    between atoms: C_29  and  N_30 
ROOT
HETATM    1  O           1     -34.568  -3.418 -15.034  0.00  0.00    -0.271 OA
HETATM    2  H           1     -34.620  -1.260 -17.310  0.00  0.00     0.163 HD
HETATM    3  C           1     -34.327  -2.919 -16.107  0.00  0.00     0.249 C 
HETATM    4  N           1     -34.820  -1.678 -16.411  0.00  0.00    -0.345 N 
ENDROOT
BRANCH   3   5
HETATM    5  C           1     -33.486  -3.663 -17.115  0.00  0.00     0.274 C 
BRANCH   5   6
HETATM    6  C           1     -32.955  -4.944 -16.485  0.00  0.00     0.044 C 
BRANCH   6   7
HETATM    7  C           1     -31.434  -4.955 -16.560  0.00  0.00     0.023 C 
BRANCH   7   8
HETATM    8  C           1     -30.966  -6.247 -17.217  0.00  0.00     0.138 C 
BRANCH   8   9
HETATM    9  N           1     -29.682  -6.016 -17.894  0.00  0.00    -0.227 N 
HETATM   10  C           1     -29.029  -6.994 -18.363  0.00  0.00     0.665 C 
HETATM   11  N           1     -27.923  -6.795 -18.946  0.00  0.00    -0.235 N 
HETATM   12  N           1     -29.494  -8.202 -18.247  0.00  0.00    -0.235 N 
HETATM   13  H           1     -27.381  -7.606 -19.336  0.00  0.00     0.174 HD
HETATM   14  H           1     -27.547  -5.820 -19.040  0.00  0.00     0.174 HD
HETATM   15  H           1     -28.955  -9.009 -18.634  0.00  0.00     0.174 HD
HETATM   16  H           1     -30.407  -8.366 -17.765  0.00  0.00     0.174 HD
HETATM   17  H           1     -29.306  -5.041 -17.988  0.00  0.00     0.177 HD
ENDBRANCH   8   9
ENDBRANCH   7   8
ENDBRANCH   6   7
ENDBRANCH   5   6
BRANCH   5  18
HETATM   18  N           1     -32.334  -2.800 -17.537  0.00  0.00    -0.067 N 
HETATM   19  H           1     -31.693  -3.351 -18.153  0.00  0.00     0.275 HD
HETATM   20  H           1     -32.695  -1.972 -18.062  0.00  0.00     0.275 HD
HETATM   21  H           1     -31.812  -2.478 -16.692  0.00  0.00     0.275 HD
ENDBRANCH   5  18
ENDBRANCH   3   5
BRANCH   4  22
HETATM   22  C           1     -35.629  -0.963 -15.443  0.00  0.00     0.187 C 
BRANCH  22  23
HETATM   23  C           1     -36.733  -0.224 -16.159  0.00  0.00     0.196 C 
HETATM   24  O           1     -37.618  -0.862 -16.769  0.00  0.00    -0.646 OA
HETATM   25  O           1     -36.762   1.025 -16.143  0.00  0.00    -0.646 OA
ENDBRANCH  22  23
BRANCH  22  26
HETATM   26  C           1     -34.757   0.033 -14.690  0.00  0.00     0.066 C 
BRANCH  26  27
HETATM   27  C           1     -35.362   0.303 -13.319  0.00  0.00     0.273 C 
BRANCH  27  28
HETATM   28  N           1     -34.760  -0.570 -12.348  0.00  0.00     0.098 N 
HETATM   29  H           1     -34.396  -0.017 -11.571  0.00  0.00     0.317 HD
BRANCH  28  30
HETATM   30  C           1     -35.782  -1.459 -11.867  0.00  0.00     0.321 C 
BRANCH  30  31
HETATM   31  C           1     -35.141  -2.578 -11.056  0.00  0.00     0.057 C 
BRANCH  31  32
HETATM   32  C           1     -33.624  -2.451 -11.127  0.00  0.00     0.076 C 
BRANCH  32  33
HETATM   33  S           1     -32.919  -3.987 -11.789  0.00  0.00    -0.173 SA
HETATM   34  C           1     -33.917  -5.117 -10.778  0.00  0.00     0.089 C 
ENDBRANCH  32  33
ENDBRANCH  31  32
ENDBRANCH  30  31
BRANCH  30  35
HETATM   35  C           1     -36.744  -0.692 -10.994  0.00  0.00     0.207 C 
HETATM   36  O           1     -37.976  -0.800 -11.176  0.00  0.00    -0.646 OA
HETATM   37  O           1     -36.309   0.052 -10.088  0.00  0.00    -0.646 OA
ENDBRANCH  30  35
ENDBRANCH  28  30
ENDBRANCH  27  28
ENDBRANCH  26  27
ENDBRANCH  22  26
ENDBRANCH   4  22
TORSDOF 16
ENDMDL
MODEL 2
REMARK VINA RESULT:      -6.5      4.762      9.734
REMARK  16 active torsions:
REMARK  status: ('A' for Active; 'I' for Inactive)
REMARK    1  A    between atoms: C_5  and  C_19 
REMARK    2  A    between atoms: C_5  and  C_6 
REMARK    3  A    between atoms: C_6  and  C_7 
REMARK    4  A    between atoms: C_7  and  N_8 
REMARK       I    between atoms: N_8  and  C_9 
REMARK       I    between atoms: C_9  and  N_10 
REMARK    5  A    between atoms: N_12  and  C_19 
REMARK    6  A    between atoms: C_13  and  C_20 
REMARK    7  A    between atoms: C_13  and  C_14 
REMARK    8  A    between atoms: C_13  and  N_28 
REMARK    9  A    between atoms: C_19  and  C_29 
REMARK   10  A    between atoms: C_20  and  C_21 
REMARK   11  A    between atoms: C_21  and  S_22 
REMARK   12  A    between atoms: C_24  and  C_25 
REMARK   13  A    between atoms: C_25  and  C_26 
REMARK   14  A    between atoms: C_25  and  N_30 
REMARK   15  A    between atoms: C_26  and  C_27 
REMARK   16  A    between atoms: C_27  and  N_28 
REMARK       I    between atoms: C_29  and  N_30 
ROOT
HETATM    1  O           1     -31.391  -3.678 -17.249  0.00  0.00    -0.271 OA
HETATM    2  H           1     -32.276  -6.563 -16.393  0.00  0.00     0.163 HD
HETATM    3  C           1     -32.119  -4.546 -16.830  0.00  0.00     0.249 C 
HETATM    4  N           1     -31.667  -5.836 -16.743  0.00  0.00    -0.345 N 
ENDROOT
BRANCH   3   5
HETATM    5  C           1     -33.526  -4.210 -16.402  0.00  0.00     0.274 C 
BRANCH   5   6
HETATM    6  C           1     -33.943  -2.884 -17.024  0.00  0.00     0.044 C 
BRANCH   6   7
HETATM    7  C           1     -35.281  -2.448 -16.442  0.00  0.00     0.023 C 
BRANCH   7   8
HETATM    8  C           1     -35.432  -0.939 -16.587  0.00  0.00     0.138 C 
BRANCH   8   9
HETATM    9  N           1     -35.003  -0.282 -15.344  0.00  0.00    -0.227 N 
HETATM   10  C           1     -35.445   0.868 -15.052  0.00  0.00     0.665 C 
HETATM   11  N           1     -35.076   1.435 -13.981  0.00  0.00    -0.235 N 
HETATM   12  N           1     -36.278   1.467 -15.850  0.00  0.00    -0.235 N 
HETATM   13  H           1     -35.443   2.388 -13.738  0.00  0.00     0.174 HD
HETATM   14  H           1     -34.403   0.952 -13.337  0.00  0.00     0.174 HD
HETATM   15  H           1     -36.643   2.416 -15.609  0.00  0.00     0.174 HD
HETATM   16  H           1     -36.583   0.999 -16.734  0.00  0.00     0.174 HD
HETATM   17  H           1     -34.331  -0.765 -14.700  0.00  0.00     0.177 HD
ENDBRANCH   8   9
ENDBRANCH   7   8
ENDBRANCH   6   7
ENDBRANCH   5   6
BRANCH   5  18
HETATM   18  N           1     -33.580  -4.099 -14.907  0.00  0.00    -0.067 N 
HETATM   19  H           1     -34.278  -3.369 -14.636  0.00  0.00     0.275 HD
HETATM   20  H           1     -33.864  -5.019 -14.501  0.00  0.00     0.275 HD
HETATM   21  H           1     -32.638  -3.831 -14.543  0.00  0.00     0.275 HD
ENDBRANCH   5  18
ENDBRANCH   3   5
BRANCH   4  22
HETATM   22  C           1     -30.314  -6.158 -17.155  0.00  0.00     0.187 C 
BRANCH  22  23
HETATM   23  C           1     -30.310  -7.485 -17.874  0.00  0.00     0.196 C 
HETATM   24  O           1     -29.576  -8.412 -17.472  0.00  0.00    -0.646 OA
HETATM   25  O           1     -31.041  -7.656 -18.874  0.00  0.00    -0.646 OA
ENDBRANCH  22  23
BRANCH  22  26
HETATM   26  C           1     -29.417  -6.244 -15.927  0.00  0.00     0.066 C 
BRANCH  26  27
HETATM   27  C           1     -28.400  -5.111 -15.960  0.00  0.00     0.273 C 
BRANCH  27  28
HETATM   28  N           1     -27.684  -5.146 -17.206  0.00  0.00     0.098 N 
HETATM   29  H           1     -27.021  -4.371 -17.240  0.00  0.00     0.317 HD
BRANCH  28  30
HETATM   30  C           1     -26.970  -6.392 -17.266  0.00  0.00     0.321 C 
BRANCH  30  31
HETATM   31  C           1     -26.185  -6.465 -18.570  0.00  0.00     0.057 C 
BRANCH  31  32
HETATM   32  C           1     -27.155  -6.517 -19.744  0.00  0.00     0.076 C 
BRANCH  32  33
HETATM   33  S           1     -26.709  -7.897 -20.836  0.00  0.00    -0.173 SA
HETATM   34  C           1     -24.911  -7.685 -20.700  0.00  0.00     0.089 C 
ENDBRANCH  32  33
ENDBRANCH  31  32
ENDBRANCH  30  31
BRANCH  30  35
HETATM   35  C           1     -26.017  -6.480 -16.100  0.00  0.00     0.207 C 
HETATM   36  O           1     -25.146  -5.598 -15.935  0.00  0.00    -0.646 OA
HETATM   37  O           1     -26.097  -7.437 -15.298  0.00  0.00    -0.646 OA
ENDBRANCH  30  35
ENDBRANCH  28  30
ENDBRANCH  27  28
ENDBRANCH  26  27
ENDBRANCH  22  26
ENDBRANCH   4  22
TORSDOF 16
ENDMDL
MODEL 3
REMARK VINA RESULT:      -6.5      2.738      4.063
REMARK  16 active torsions:
REMARK  status: ('A' for Active; 'I' for Inactive)
REMARK    1  A    between atoms: C_5  and  C_19 
REMARK    2  A    between atoms: C_5  and  C_6 
REMARK    3  A    between atoms: C_6  and  C_7 
REMARK    4  A    between atoms: C_7  and  N_8 
REMARK       I    between atoms: N_8  and  C_9 
REMARK       I    between atoms: C_9  and  N_10 
REMARK    5  A    between atoms: N_12  and  C_19 
REMARK    6  A    between atoms: C_13  and  C_20 
REMARK    7  A    between atoms: C_13  and  C_14 
REMARK    8  A    between atoms: C_13  and  N_28 
REMARK    9  A    between atoms: C_19  and  C_29 
REMARK   10  A    between atoms: C_20  and  C_21 
REMARK   11  A    between atoms: C_21  and  S_22 
REMARK   12  A    between atoms: C_24  and  C_25 
REMARK   13  A    between atoms: C_25  and  C_26 
REMARK   14  A    between atoms: C_25  and  N_30 
REMARK   15  A    between atoms: C_26  and  C_27 
REMARK   16  A    between atoms: C_27  and  N_28 
REMARK       I    between atoms: C_29  and  N_30 
ROOT
HETATM    1  O           1     -31.110  -6.034 -17.238  0.00  0.00    -0.271 OA
HETATM    2  H           1     -31.651  -3.950 -14.957  0.00  0.00     0.163 HD
HETATM    3  C           1     -30.869  -5.332 -16.285  0.00  0.00     0.249 C 
HETATM    4  N           1     -31.852  -4.539 -15.754  0.00  0.00    -0.345 N 
ENDROOT
BRANCH   3   5
HETATM    5  C           1     -29.488  -5.327 -15.679  0.00  0.00     0.274 C 
BRANCH   5   6
HETATM    6  C           1     -28.539  -6.114 -16.573  0.00  0.00     0.044 C 
BRANCH   6   7
HETATM    7  C           1     -27.699  -7.055 -15.721  0.00  0.00     0.023 C 
BRANCH   7   8
HETATM    8  C           1     -26.229  -6.676 -15.841  0.00  0.00     0.138 C 
BRANCH   8   9
HETATM    9  N           1     -25.806  -6.789 -17.244  0.00  0.00    -0.227 N 
HETATM   10  C           1     -24.673  -7.279 -17.526  0.00  0.00     0.665 C 
HETATM   11  N           1     -24.309  -7.377 -18.734  0.00  0.00    -0.235 N 
HETATM   12  N           1     -23.884  -7.683 -16.574  0.00  0.00    -0.235 N 
HETATM   13  H           1     -23.370  -7.784 -18.969  0.00  0.00     0.174 HD
HETATM   14  H           1     -24.946  -7.051 -19.503  0.00  0.00     0.174 HD
HETATM   15  H           1     -22.950  -8.087 -16.808  0.00  0.00     0.174 HD
HETATM   16  H           1     -24.186  -7.602 -15.577  0.00  0.00     0.174 HD
HETATM   17  H           1     -26.443  -6.463 -18.011  0.00  0.00     0.177 HD
ENDBRANCH   8   9
ENDBRANCH   7   8
ENDBRANCH   6   7
ENDBRANCH   5   6
BRANCH   5  18
HETATM   18  N           1     -29.536  -5.963 -14.321  0.00  0.00    -0.067 N 
HETATM   19  H           1     -28.563  -6.085 -13.959  0.00  0.00     0.275 HD
HETATM   20  H           1     -30.075  -5.350 -13.670  0.00  0.00     0.275 HD
HETATM   21  H           1     -30.001  -6.896 -14.390  0.00  0.00     0.275 HD
ENDBRANCH   5  18
ENDBRANCH   3   5
BRANCH   4  22
HETATM   22  C           1     -33.180  -4.543 -16.336  0.00  0.00     0.187 C 
BRANCH  22  23
HETATM   23  C           1     -33.390  -3.270 -17.119  0.00  0.00     0.196 C 
HETATM   24  O           1     -34.436  -2.606 -16.963  0.00  0.00    -0.646 OA
HETATM   25  O           1     -32.517  -2.881 -17.925  0.00  0.00    -0.646 OA
ENDBRANCH  22  23
BRANCH  22  26
HETATM   26  C           1     -34.220  -4.635 -15.227  0.00  0.00     0.066 C 
BRANCH  26  27
HETATM   27  C           1     -33.650  -4.041 -13.946  0.00  0.00     0.273 C 
BRANCH  27  28
HETATM   28  N           1     -34.404  -2.873 -13.581  0.00  0.00     0.098 N 
HETATM   29  H           1     -35.297  -2.876 -14.075  0.00  0.00     0.317 HD
BRANCH  28  30
HETATM   30  C           1     -34.640  -2.930 -12.164  0.00  0.00     0.321 C 
BRANCH  30  31
HETATM   31  C           1     -33.466  -3.617 -11.481  0.00  0.00     0.057 C 
BRANCH  31  32
HETATM   32  C           1     -33.984  -4.549 -10.393  0.00  0.00     0.076 C 
BRANCH  32  33
HETATM   33  S           1     -34.010  -6.253 -11.017  0.00  0.00    -0.173 SA
HETATM   34  C           1     -34.938  -6.960  -9.626  0.00  0.00     0.089 C 
ENDBRANCH  32  33
ENDBRANCH  31  32
ENDBRANCH  30  31
BRANCH  30  35
HETATM   35  C           1     -34.788  -1.529 -11.623  0.00  0.00     0.207 C 
HETATM   36  O           1     -34.441  -0.551 -12.319  0.00  0.00    -0.646 OA
HETATM   37  O           1     -35.255  -1.347 -10.478  0.00  0.00    -0.646 OA
ENDBRANCH  30  35
ENDBRANCH  28  30
ENDBRANCH  27  28
ENDBRANCH  26  27
ENDBRANCH  22  26
ENDBRANCH   4  22
TORSDOF 16
ENDMDL
MODEL 4
REMARK VINA RESULT:      -6.4      3.091      4.920
REMARK  16 active torsions:
REMARK  status: ('A' for Active; 'I' for Inactive)
REMARK    1  A    between atoms: C_5  and  C_19 
REMARK    2  A    between atoms: C_5  and  C_6 
REMARK    3  A    between atoms: C_6  and  C_7 
REMARK    4  A    between atoms: C_7  and  N_8 
REMARK       I    between atoms: N_8  and  C_9 
REMARK       I    between atoms: C_9  and  N_10 
REMARK    5  A    between atoms: N_12  and  C_19 
REMARK    6  A    between atoms: C_13  and  C_20 
REMARK    7  A    between atoms: C_13  and  C_14 
REMARK    8  A    between atoms: C_13  and  N_28 
REMARK    9  A    between atoms: C_19  and  C_29 
REMARK   10  A    between atoms: C_20  and  C_21 
REMARK   11  A    between atoms: C_21  and  S_22 
REMARK   12  A    between atoms: C_24  and  C_25 
REMARK   13  A    between atoms: C_25  and  C_26 
REMARK   14  A    between atoms: C_25  and  N_30 
REMARK   15  A    between atoms: C_26  and  C_27 
REMARK   16  A    between atoms: C_27  and  N_28 
REMARK       I    between atoms: C_29  and  N_30 
ROOT
HETATM    1  O           1     -31.417  -6.955 -18.025  0.00  0.00    -0.271 OA
HETATM    2  H           1     -30.890  -4.818 -15.789  0.00  0.00     0.163 HD
HETATM    3  C           1     -30.825  -6.387 -17.139  0.00  0.00     0.249 C 
HETATM    4  N           1     -31.386  -5.295 -16.531  0.00  0.00    -0.345 N 
ENDROOT
BRANCH   3   5
HETATM    5  C           1     -29.468  -6.879 -16.701  0.00  0.00     0.274 C 
BRANCH   5   6
HETATM    6  C           1     -28.386  -6.006 -17.323  0.00  0.00     0.044 C 
BRANCH   6   7
HETATM    7  C           1     -27.430  -5.530 -16.238  0.00  0.00     0.023 C 
BRANCH   7   8
HETATM    8  C           1     -26.233  -6.468 -16.166  0.00  0.00     0.138 C 
BRANCH   8   9
HETATM    9  N           1     -25.687  -6.672 -17.515  0.00  0.00    -0.227 N 
HETATM   10  C           1     -24.570  -7.249 -17.666  0.00  0.00     0.665 C 
HETATM   11  N           1     -24.100  -7.425 -18.828  0.00  0.00    -0.235 N 
HETATM   12  N           1     -23.907  -7.662 -16.627  0.00  0.00    -0.235 N 
HETATM   13  H           1     -23.174  -7.904 -18.953  0.00  0.00     0.174 HD
HETATM   14  H           1     -24.636  -7.092 -19.667  0.00  0.00     0.174 HD
HETATM   15  H           1     -22.985  -8.138 -16.751  0.00  0.00     0.174 HD
HETATM   16  H           1     -24.295  -7.517 -15.667  0.00  0.00     0.174 HD
HETATM   17  H           1     -26.223  -6.339 -18.354  0.00  0.00     0.177 HD
ENDBRANCH   8   9
ENDBRANCH   7   8
ENDBRANCH   6   7
ENDBRANCH   5   6
BRANCH   5  18
HETATM   18  N           1     -29.283  -8.299 -17.150  0.00  0.00    -0.067 N 
HETATM   19  H           1     -29.989  -8.527 -17.886  0.00  0.00     0.275 HD
HETATM   20  H           1     -28.321  -8.416 -17.543  0.00  0.00     0.275 HD
HETATM   21  H           1     -29.409  -8.941 -16.336  0.00  0.00     0.275 HD
ENDBRANCH   5  18
ENDBRANCH   3   5
BRANCH   4  22
HETATM   22  C           1     -32.690  -4.822 -16.952  0.00  0.00     0.187 C 
BRANCH  22  23
HETATM   23  C           1     -32.569  -3.409 -17.469  0.00  0.00     0.196 C 
HETATM   24  O           1     -33.569  -2.659 -17.479  0.00  0.00    -0.646 OA
HETATM   25  O           1     -31.470  -2.989 -17.889  0.00  0.00    -0.646 OA
ENDBRANCH  22  23
BRANCH  22  26
HETATM   26  C           1     -33.647  -4.849 -15.768  0.00  0.00     0.066 C 
BRANCH  26  27
HETATM   27  C           1     -32.922  -4.368 -14.518  0.00  0.00     0.273 C 
BRANCH  27  28
HETATM   28  N           1     -33.878  -3.846 -13.580  0.00  0.00     0.098 N 
HETATM   29  H           1     -34.795  -4.256 -13.763  0.00  0.00     0.317 HD
BRANCH  28  30
HETATM   30  C           1     -33.443  -4.217 -12.260  0.00  0.00     0.321 C 
BRANCH  30  31
HETATM   31  C           1     -33.433  -2.985 -11.365  0.00  0.00     0.057 C 
BRANCH  31  32
HETATM   32  C           1     -34.444  -1.970 -11.885  0.00  0.00     0.076 C 
BRANCH  32  33
HETATM   33  S           1     -35.877  -1.918 -10.774  0.00  0.00    -0.173 SA
HETATM   34  C           1     -36.413  -0.242 -11.218  0.00  0.00     0.089 C 
ENDBRANCH  32  33
ENDBRANCH  31  32
ENDBRANCH  30  31
BRANCH  30  35
HETATM   35  C           1     -34.388  -5.246 -11.691  0.00  0.00     0.207 C 
HETATM   36  O           1     -34.361  -5.512 -10.470  0.00  0.00    -0.646 OA
HETATM   37  O           1     -35.199  -5.833 -12.440  0.00  0.00    -0.646 OA
ENDBRANCH  30  35
ENDBRANCH  28  30
ENDBRANCH  27  28
ENDBRANCH  26  27
ENDBRANCH  22  26
ENDBRANCH   4  22
TORSDOF 16
ENDMDL
MODEL 5
REMARK VINA RESULT:      -6.4     15.756     17.967
REMARK  16 active torsions:
REMARK  status: ('A' for Active; 'I' for Inactive)
REMARK    1  A    between atoms: C_5  and  C_19 
REMARK    2  A    between atoms: C_5  and  C_6 
REMARK    3  A    between atoms: C_6  and  C_7 
REMARK    4  A    between atoms: C_7  and  N_8 
REMARK       I    between atoms: N_8  and  C_9 
REMARK       I    between atoms: C_9  and  N_10 
REMARK    5  A    between atoms: N_12  and  C_19 
REMARK    6  A    between atoms: C_13  and  C_20 
REMARK    7  A    between atoms: C_13  and  C_14 
REMARK    8  A    between atoms: C_13  and  N_28 
REMARK    9  A    between atoms: C_19  and  C_29 
REMARK   10  A    between atoms: C_20  and  C_21 
REMARK   11  A    between atoms: C_21  and  S_22 
REMARK   12  A    between atoms: C_24  and  C_25 
REMARK   13  A    between atoms: C_25  and  C_26 
REMARK   14  A    between atoms: C_25  and  N_30 
REMARK   15  A    between atoms: C_26  and  C_27 
REMARK   16  A    between atoms: C_27  and  N_28 
REMARK       I    between atoms: C_29  and  N_30 
ROOT
HETATM    1  O           1     -19.183  -7.024  -6.710  0.00  0.00    -0.271 OA
HETATM    2  H           1     -21.390  -7.875  -4.649  0.00  0.00     0.163 HD
HETATM    3  C           1     -20.240  -6.991  -6.126  0.00  0.00     0.249 C 
HETATM    4  N           1     -20.505  -7.901  -5.138  0.00  0.00    -0.345 N 
ENDROOT
BRANCH   3   5
HETATM    5  C           1     -21.269  -5.947  -6.484  0.00  0.00     0.274 C 
BRANCH   5   6
HETATM    6  C           1     -20.572  -4.622  -6.764  0.00  0.00     0.044 C 
BRANCH   6   7
HETATM    7  C           1     -21.591  -3.606  -7.261  0.00  0.00     0.023 C 
BRANCH   7   8
HETATM    8  C           1     -22.180  -4.081  -8.583  0.00  0.00     0.138 C 
BRANCH   8   9
HETATM    9  N           1     -23.549  -3.564  -8.723  0.00  0.00    -0.227 N 
HETATM   10  C           1     -24.304  -4.012  -9.635  0.00  0.00     0.665 C 
HETATM   11  N           1     -25.483  -3.568  -9.756  0.00  0.00    -0.235 N 
HETATM   12  N           1     -23.868  -4.930 -10.447  0.00  0.00    -0.235 N 
HETATM   13  H           1     -26.110  -3.940 -10.512  0.00  0.00     0.174 HD
HETATM   14  H           1     -25.835  -2.828  -9.100  0.00  0.00     0.174 HD
HETATM   15  H           1     -24.491  -5.299 -11.200  0.00  0.00     0.174 HD
HETATM   16  H           1     -22.895  -5.296 -10.347  0.00  0.00     0.174 HD
HETATM   17  H           1     -23.901  -2.824  -8.067  0.00  0.00     0.177 HD
ENDBRANCH   8   9
ENDBRANCH   7   8
ENDBRANCH   6   7
ENDBRANCH   5   6
BRANCH   5  18
HETATM   18  N           1     -22.226  -5.776  -5.341  0.00  0.00    -0.067 N 
HETATM   19  H           1     -22.461  -4.763  -5.232  0.00  0.00     0.275 HD
HETATM   20  H           1     -23.098  -6.317  -5.535  0.00  0.00     0.275 HD
HETATM   21  H           1     -21.784  -6.127  -4.462  0.00  0.00     0.275 HD
ENDBRANCH   5  18
ENDBRANCH   3   5
BRANCH   4  22
HETATM   22  C           1     -19.517  -8.905  -4.794  0.00  0.00     0.187 C 
BRANCH  22  23
HETATM   23  C           1     -19.923 -10.233  -5.384  0.00  0.00     0.196 C 
HETATM   24  O           1     -20.978 -10.326  -6.047  0.00  0.00    -0.646 OA
HETATM   25  O           1     -19.205 -11.241  -5.208  0.00  0.00    -0.646 OA
ENDBRANCH  22  23
BRANCH  22  26
HETATM   26  C           1     -19.426  -9.028  -3.279  0.00  0.00     0.066 C 
BRANCH  26  27
HETATM   27  C           1     -20.778  -8.703  -2.660  0.00  0.00     0.273 C 
BRANCH  27  28
HETATM   28  N           1     -20.593  -8.277  -1.299  0.00  0.00     0.098 N 
HETATM   29  H           1     -20.665  -7.260  -1.247  0.00  0.00     0.317 HD
BRANCH  28  30
HETATM   30  C           1     -21.637  -8.873  -0.509  0.00  0.00     0.321 C 
BRANCH  30  31
HETATM   31  C           1     -21.037  -9.464   0.760  0.00  0.00     0.057 C 
BRANCH  31  32
HETATM   32  C           1     -21.116 -10.984   0.699  0.00  0.00     0.076 C 
BRANCH  32  33
HETATM   33  S           1     -19.601 -11.640  -0.054  0.00  0.00    -0.173 SA
HETATM   34  C           1     -20.391 -12.301  -1.548  0.00  0.00     0.089 C 
ENDBRANCH  32  33
ENDBRANCH  31  32
ENDBRANCH  30  31
BRANCH  30  35
HETATM   35  C           1     -22.652  -7.819  -0.142  0.00  0.00     0.207 C 
HETATM   36  O           1     -23.464  -8.029   0.785  0.00  0.00    -0.646 OA
HETATM   37  O           1     -22.683  -6.736  -0.767  0.00  0.00    -0.646 OA
ENDBRANCH  30  35
ENDBRANCH  28  30
ENDBRANCH  27  28
ENDBRANCH  26  27
ENDBRANCH  22  26
ENDBRANCH   4  22
TORSDOF 16
ENDMDL
MODEL 6
REMARK VINA RESULT:      -6.3     15.444     18.023
REMARK  16 active torsions:
REMARK  status: ('A' for Active; 'I' for Inactive)
REMARK    1  A    between atoms: C_5  and  C_19 
REMARK    2  A    between atoms: C_5  and  C_6 
REMARK    3  A    between atoms: C_6  and  C_7 
REMARK    4  A    between atoms: C_7  and  N_8 
REMARK       I    between atoms: N_8  and  C_9 
REMARK       I    between atoms: C_9  and  N_10 
REMARK    5  A    between atoms: N_12  and  C_19 
REMARK    6  A    between atoms: C_13  and  C_20 
REMARK    7  A    between atoms: C_13  and  C_14 
REMARK    8  A    between atoms: C_13  and  N_28 
REMARK    9  A    between atoms: C_19  and  C_29 
REMARK   10  A    between atoms: C_20  and  C_21 
REMARK   11  A    between atoms: C_21  and  S_22 
REMARK   12  A    between atoms: C_24  and  C_25 
REMARK   13  A    between atoms: C_25  and  C_26 
REMARK   14  A    between atoms: C_25  and  N_30 
REMARK   15  A    between atoms: C_26  and  C_27 
REMARK   16  A    between atoms: C_27  and  N_28 
REMARK       I    between atoms: C_29  and  N_30 
ROOT
HETATM    1  O           1     -21.943  -7.696  -5.246  0.00  0.00    -0.271 OA
HETATM    2  H           1     -20.355  -5.791  -3.325  0.00  0.00     0.163 HD
HETATM    3  C           1     -21.268  -6.750  -4.916  0.00  0.00     0.249 C 
HETATM    4  N           1     -20.919  -6.583  -3.602  0.00  0.00    -0.345 N 
ENDROOT
BRANCH   3   5
HETATM    5  C           1     -20.811  -5.751  -5.950  0.00  0.00     0.274 C 
BRANCH   5   6
HETATM    6  C           1     -22.024  -5.150  -6.646  0.00  0.00     0.044 C 
BRANCH   6   7
HETATM    7  C           1     -21.623  -3.855  -7.340  0.00  0.00     0.023 C 
BRANCH   7   8
HETATM    8  C           1     -22.118  -3.874  -8.780  0.00  0.00     0.138 C 
BRANCH   8   9
HETATM    9  N           1     -23.520  -3.438  -8.823  0.00  0.00    -0.227 N 
HETATM   10  C           1     -24.322  -3.965  -9.649  0.00  0.00     0.665 C 
HETATM   11  N           1     -25.530  -3.590  -9.686  0.00  0.00    -0.235 N 
HETATM   12  N           1     -23.903  -4.891 -10.460  0.00  0.00    -0.235 N 
HETATM   13  H           1     -26.195  -4.027 -10.371  0.00  0.00     0.174 HD
HETATM   14  H           1     -25.868  -2.843  -9.032  0.00  0.00     0.174 HD
HETATM   15  H           1     -24.565  -5.325 -11.142  0.00  0.00     0.174 HD
HETATM   16  H           1     -22.905  -5.200 -10.430  0.00  0.00     0.174 HD
HETATM   17  H           1     -23.858  -2.691  -8.168  0.00  0.00     0.177 HD
ENDBRANCH   8   9
ENDBRANCH   7   8
ENDBRANCH   6   7
ENDBRANCH   5   6
BRANCH   5  18
HETATM   18  N           1     -19.945  -6.441  -6.962  0.00  0.00    -0.067 N 
HETATM   19  H           1     -19.000  -5.995  -6.975  0.00  0.00     0.275 HD
HETATM   20  H           1     -19.851  -7.450  -6.707  0.00  0.00     0.275 HD
HETATM   21  H           1     -20.382  -6.358  -7.908  0.00  0.00     0.275 HD
ENDBRANCH   5  18
ENDBRANCH   3   5
BRANCH   4  22
HETATM   22  C           1     -21.359  -7.544  -2.608  0.00  0.00     0.187 C 
BRANCH  22  23
HETATM   23  C           1     -22.155  -6.833  -1.541  0.00  0.00     0.196 C 
HETATM   24  O           1     -22.459  -5.629  -1.685  0.00  0.00    -0.646 OA
HETATM   25  O           1     -22.508  -7.447  -0.512  0.00  0.00    -0.646 OA
ENDBRANCH  22  23
BRANCH  22  26
HETATM   26  C           1     -20.145  -8.212  -1.977  0.00  0.00     0.066 C 
BRANCH  26  27
HETATM   27  C           1     -19.994  -9.621  -2.533  0.00  0.00     0.273 C 
BRANCH  27  28
HETATM   28  N           1     -18.634  -9.828  -2.952  0.00  0.00     0.098 N 
HETATM   29  H           1     -18.135 -10.364  -2.241  0.00  0.00     0.317 HD
BRANCH  28  30
HETATM   30  C           1     -18.664 -10.574  -4.181  0.00  0.00     0.321 C 
BRANCH  30  31
HETATM   31  C           1     -20.104 -10.942  -4.516  0.00  0.00     0.057 C 
BRANCH  31  32
HETATM   32  C           1     -20.143 -12.336  -5.128  0.00  0.00     0.076 C 
BRANCH  32  33
HETATM   33  S           1     -20.775 -12.234  -6.827  0.00  0.00    -0.173 SA
HETATM   34  C           1     -19.167 -12.417  -7.649  0.00  0.00     0.089 C 
ENDBRANCH  32  33
ENDBRANCH  31  32
ENDBRANCH  30  31
BRANCH  30  35
HETATM   35  C           1     -18.088  -9.734  -5.293  0.00  0.00     0.207 C 
HETATM   36  O           1     -16.867  -9.795  -5.554  0.00  0.00    -0.646 OA
HETATM   37  O           1     -18.831  -8.975  -5.953  0.00  0.00    -0.646 OA
ENDBRANCH  30  35
ENDBRANCH  28  30
ENDBRANCH  27  28
ENDBRANCH  26  27
ENDBRANCH  22  26
ENDBRANCH   4  22
TORSDOF 16
ENDMDL
MODEL 7
REMARK VINA RESULT:      -6.3      5.881     11.131
REMARK  16 active torsions:
REMARK  status: ('A' for Active; 'I' for Inactive)
REMARK    1  A    between atoms: C_5  and  C_19 
REMARK    2  A    between atoms: C_5  and  C_6 
REMARK    3  A    between atoms: C_6  and  C_7 
REMARK    4  A    between atoms: C_7  and  N_8 
REMARK       I    between atoms: N_8  and  C_9 
REMARK       I    between atoms: C_9  and  N_10 
REMARK    5  A    between atoms: N_12  and  C_19 
REMARK    6  A    between atoms: C_13  and  C_20 
REMARK    7  A    between atoms: C_13  and  C_14 
REMARK    8  A    between atoms: C_13  and  N_28 
REMARK    9  A    between atoms: C_19  and  C_29 
REMARK   10  A    between atoms: C_20  and  C_21 
REMARK   11  A    between atoms: C_21  and  S_22 
REMARK   12  A    between atoms: C_24  and  C_25 
REMARK   13  A    between atoms: C_25  and  C_26 
REMARK   14  A    between atoms: C_25  and  N_30 
REMARK   15  A    between atoms: C_26  and  C_27 
REMARK   16  A    between atoms: C_27  and  N_28 
REMARK       I    between atoms: C_29  and  N_30 
ROOT
HETATM    1  O           1     -29.956  -5.949 -18.094  0.00  0.00    -0.271 OA
HETATM    2  H           1     -28.300  -4.696 -15.742  0.00  0.00     0.163 HD
HETATM    3  C           1     -29.687  -5.182 -17.200  0.00  0.00     0.249 C 
HETATM    4  N           1     -28.526  -5.337 -16.491  0.00  0.00    -0.345 N 
ENDROOT
BRANCH   3   5
HETATM    5  C           1     -30.630  -4.054 -16.863  0.00  0.00     0.274 C 
BRANCH   5   6
HETATM    6  C           1     -32.053  -4.590 -16.773  0.00  0.00     0.044 C 
BRANCH   6   7
HETATM    7  C           1     -33.012  -3.600 -17.418  0.00  0.00     0.023 C 
BRANCH   7   8
HETATM    8  C           1     -34.101  -3.222 -16.422  0.00  0.00     0.138 C 
BRANCH   8   9
HETATM    9  N           1     -35.095  -2.366 -17.083  0.00  0.00    -0.227 N 
HETATM   10  C           1     -35.497  -1.308 -16.515  0.00  0.00     0.665 C 
HETATM   11  N           1     -36.353  -0.570 -17.085  0.00  0.00    -0.235 N 
HETATM   12  N           1     -35.030  -0.980 -15.347  0.00  0.00    -0.235 N 
HETATM   13  H           1     -36.687   0.307 -16.614  0.00  0.00     0.174 HD
HETATM   14  H           1     -36.730  -0.834 -18.028  0.00  0.00     0.174 HD
HETATM   15  H           1     -35.363  -0.108 -14.878  0.00  0.00     0.174 HD
HETATM   16  H           1     -34.324  -1.590 -14.877  0.00  0.00     0.174 HD
HETATM   17  H           1     -35.471  -2.630 -18.027  0.00  0.00     0.177 HD
ENDBRANCH   8   9
ENDBRANCH   7   8
ENDBRANCH   6   7
ENDBRANCH   5   6
BRANCH   5  18
HETATM   18  N           1     -30.560  -3.007 -17.936  0.00  0.00    -0.067 N 
HETATM   19  H           1     -29.606  -2.580 -17.945  0.00  0.00     0.275 HD
HETATM   20  H           1     -30.752  -3.448 -18.864  0.00  0.00     0.275 HD
HETATM   21  H           1     -31.271  -2.266 -17.747  0.00  0.00     0.275 HD
ENDBRANCH   5  18
ENDBRANCH   3   5
BRANCH   4  22
HETATM   22  C           1     -27.619  -6.422 -16.814  0.00  0.00     0.187 C 
BRANCH  22  23
HETATM   23  C           1     -27.294  -7.196 -15.560  0.00  0.00     0.196 C 
HETATM   24  O           1     -28.212  -7.564 -14.796  0.00  0.00    -0.646 OA
HETATM   25  O           1     -26.105  -7.467 -15.284  0.00  0.00    -0.646 OA
ENDBRANCH  22  23
BRANCH  22  26
HETATM   26  C           1     -26.338  -5.853 -17.407  0.00  0.00     0.066 C 
BRANCH  26  27
HETATM   27  C           1     -26.015  -6.574 -18.708  0.00  0.00     0.273 C 
BRANCH  27  28
HETATM   28  N           1     -27.203  -6.669 -19.512  0.00  0.00     0.098 N 
HETATM   29  H           1     -27.558  -5.733 -19.708  0.00  0.00     0.317 HD
BRANCH  28  30
HETATM   30  C           1     -26.845  -7.315 -20.746  0.00  0.00     0.321 C 
BRANCH  30  31
HETATM   31  C           1     -25.376  -7.711 -20.704  0.00  0.00     0.057 C 
BRANCH  31  32
HETATM   32  C           1     -24.619  -6.976 -21.803  0.00  0.00     0.076 C 
BRANCH  32  33
HETATM   33  S           1     -23.668  -8.168 -22.787  0.00  0.00    -0.173 SA
HETATM   34  C           1     -22.446  -8.556 -21.503  0.00  0.00     0.089 C 
ENDBRANCH  32  33
ENDBRANCH  31  32
ENDBRANCH  30  31
BRANCH  30  35
HETATM   35  C           1     -27.695  -8.547 -20.933  0.00  0.00     0.207 C 
HETATM   36  O           1     -27.357  -9.419 -21.762  0.00  0.00    -0.646 OA
HETATM   37  O           1     -28.737  -8.697 -20.258  0.00  0.00    -0.646 OA
ENDBRANCH  30  35
ENDBRANCH  28  30
ENDBRANCH  27  28
ENDBRANCH  26  27
ENDBRANCH  22  26
ENDBRANCH   4  22
TORSDOF 16
ENDMDL
MODEL 8
REMARK VINA RESULT:      -6.3     15.972     18.440
REMARK  16 active torsions:
REMARK  status: ('A' for Active; 'I' for Inactive)
REMARK    1  A    between atoms: C_5  and  C_19 
REMARK    2  A    between atoms: C_5  and  C_6 
REMARK    3  A    between atoms: C_6  and  C_7 
REMARK    4  A    between atoms: C_7  and  N_8 
REMARK       I    between atoms: N_8  and  C_9 
REMARK       I    between atoms: C_9  and  N_10 
REMARK    5  A    between atoms: N_12  and  C_19 
REMARK    6  A    between atoms: C_13  and  C_20 
REMARK    7  A    between atoms: C_13  and  C_14 
REMARK    8  A    between atoms: C_13  and  N_28 
REMARK    9  A    between atoms: C_19  and  C_29 
REMARK   10  A    between atoms: C_20  and  C_21 
REMARK   11  A    between atoms: C_21  and  S_22 
REMARK   12  A    between atoms: C_24  and  C_25 
REMARK   13  A    between atoms: C_25  and  C_26 
REMARK   14  A    between atoms: C_25  and  N_30 
REMARK   15  A    between atoms: C_26  and  C_27 
REMARK   16  A    between atoms: C_27  and  N_28 
REMARK       I    between atoms: C_29  and  N_30 
ROOT
HETATM    1  O           1     -21.407  -7.967  -5.743  0.00  0.00    -0.271 OA
HETATM    2  H           1     -20.712  -5.757  -3.628  0.00  0.00     0.163 HD
HETATM    3  C           1     -21.056  -6.889  -5.327  0.00  0.00     0.249 C 
HETATM    4  N           1     -21.005  -6.660  -3.977  0.00  0.00    -0.345 N 
ENDROOT
BRANCH   3   5
HETATM    5  C           1     -20.673  -5.794  -6.292  0.00  0.00     0.274 C 
BRANCH   5   6
HETATM    6  C           1     -21.928  -5.235  -6.948  0.00  0.00     0.044 C 
BRANCH   6   7
HETATM    7  C           1     -21.641  -3.841  -7.489  0.00  0.00     0.023 C 
BRANCH   7   8
HETATM    8  C           1     -22.162  -3.731  -8.916  0.00  0.00     0.138 C 
BRANCH   8   9
HETATM    9  N           1     -23.586  -3.365  -8.891  0.00  0.00    -0.227 N 
HETATM   10  C           1     -24.393  -3.910  -9.700  0.00  0.00     0.665 C 
HETATM   11  N           1     -25.619  -3.596  -9.678  0.00  0.00    -0.235 N 
HETATM   12  N           1     -23.963  -4.794 -10.552  0.00  0.00    -0.235 N 
HETATM   13  H           1     -26.289  -4.048 -10.349  0.00  0.00     0.174 HD
HETATM   14  H           1     -25.966  -2.883  -8.991  0.00  0.00     0.174 HD
HETATM   15  H           1     -24.629  -5.243 -11.219  0.00  0.00     0.174 HD
HETATM   16  H           1     -22.951  -5.053 -10.569  0.00  0.00     0.174 HD
HETATM   17  H           1     -23.933  -2.653  -8.203  0.00  0.00     0.177 HD
ENDBRANCH   8   9
ENDBRANCH   7   8
ENDBRANCH   6   7
ENDBRANCH   5   6
BRANCH   5  18
HETATM   18  N           1     -19.765  -6.354  -7.347  0.00  0.00    -0.067 N 
HETATM   19  H           1     -19.482  -5.591  -8.004  0.00  0.00     0.275 HD
HETATM   20  H           1     -18.914  -6.757  -6.895  0.00  0.00     0.275 HD
HETATM   21  H           1     -20.267  -7.101  -7.877  0.00  0.00     0.275 HD
ENDBRANCH   5  18
ENDBRANCH   3   5
BRANCH   4  22
HETATM   22  C           1     -21.373  -7.712  -3.050  0.00  0.00     0.187 C 
BRANCH  22  23
HETATM   23  C           1     -22.046  -7.106  -1.843  0.00  0.00     0.196 C 
HETATM   24  O           1     -22.178  -7.778  -0.797  0.00  0.00    -0.646 OA
HETATM   25  O           1     -22.472  -5.932  -1.889  0.00  0.00    -0.646 OA
ENDBRANCH  22  23
BRANCH  22  26
HETATM   26  C           1     -20.122  -8.462  -2.611  0.00  0.00     0.066 C 
BRANCH  26  27
HETATM   27  C           1     -20.253  -9.932  -2.985  0.00  0.00     0.273 C 
BRANCH  27  28
HETATM   28  N           1     -19.743 -10.137  -4.313  0.00  0.00     0.098 N 
HETATM   29  H           1     -20.128  -9.430  -4.939  0.00  0.00     0.317 HD
BRANCH  28  30
HETATM   30  C           1     -18.313 -10.001  -4.258  0.00  0.00     0.321 C 
BRANCH  30  31
HETATM   31  C           1     -17.701 -11.284  -3.711  0.00  0.00     0.057 C 
BRANCH  31  32
HETATM   32  C           1     -16.770 -10.949  -2.552  0.00  0.00     0.076 C 
BRANCH  32  33
HETATM   33  S           1     -17.328 -11.815  -1.058  0.00  0.00    -0.173 SA
HETATM   34  C           1     -18.240 -13.128  -1.917  0.00  0.00     0.089 C 
ENDBRANCH  32  33
ENDBRANCH  31  32
ENDBRANCH  30  31
BRANCH  30  35
HETATM   35  C           1     -17.779  -9.741  -5.645  0.00  0.00     0.207 C 
HETATM   36  O           1     -16.755 -10.337  -6.043  0.00  0.00    -0.646 OA
HETATM   37  O           1     -18.361  -8.928  -6.397  0.00  0.00    -0.646 OA
ENDBRANCH  30  35
ENDBRANCH  28  30
ENDBRANCH  27  28
ENDBRANCH  26  27
ENDBRANCH  22  26
ENDBRANCH   4  22
TORSDOF 16
ENDMDL
MODEL 9
REMARK VINA RESULT:      -6.3     15.782     18.267
REMARK  16 active torsions:
REMARK  status: ('A' for Active; 'I' for Inactive)
REMARK    1  A    between atoms: C_5  and  C_19 
REMARK    2  A    between atoms: C_5  and  C_6 
REMARK    3  A    between atoms: C_6  and  C_7 
REMARK    4  A    between atoms: C_7  and  N_8 
REMARK       I    between atoms: N_8  and  C_9 
REMARK       I    between atoms: C_9  and  N_10 
REMARK    5  A    between atoms: N_12  and  C_19 
REMARK    6  A    between atoms: C_13  and  C_20 
REMARK    7  A    between atoms: C_13  and  C_14 
REMARK    8  A    between atoms: C_13  and  N_28 
REMARK    9  A    between atoms: C_19  and  C_29 
REMARK   10  A    between atoms: C_20  and  C_21 
REMARK   11  A    between atoms: C_21  and  S_22 
REMARK   12  A    between atoms: C_24  and  C_25 
REMARK   13  A    between atoms: C_25  and  C_26 
REMARK   14  A    between atoms: C_25  and  N_30 
REMARK   15  A    between atoms: C_26  and  C_27 
REMARK   16  A    between atoms: C_27  and  N_28 
REMARK       I    between atoms: C_29  and  N_30 
ROOT
HETATM    1  O           1     -22.847  -6.338  -5.100  0.00  0.00    -0.271 OA
HETATM    2  H           1     -20.085  -7.093  -3.818  0.00  0.00     0.163 HD
HETATM    3  C           1     -21.646  -6.416  -4.998  0.00  0.00     0.249 C 
HETATM    4  N           1     -21.090  -7.028  -3.905  0.00  0.00    -0.345 N 
ENDROOT
BRANCH   3   5
HETATM    5  C           1     -20.757  -5.839  -6.071  0.00  0.00     0.274 C 
BRANCH   5   6
HETATM    6  C           1     -21.590  -5.529  -7.308  0.00  0.00     0.044 C 
BRANCH   6   7
HETATM    7  C           1     -21.796  -4.025  -7.419  0.00  0.00     0.023 C 
BRANCH   7   8
HETATM    8  C           1     -22.265  -3.678  -8.826  0.00  0.00     0.138 C 
BRANCH   8   9
HETATM    9  N           1     -23.706  -3.392  -8.806  0.00  0.00    -0.227 N 
HETATM   10  C           1     -24.446  -3.804  -9.747  0.00  0.00     0.665 C 
HETATM   11  N           1     -25.688  -3.559  -9.729  0.00  0.00    -0.235 N 
HETATM   12  N           1     -23.931  -4.480 -10.730  0.00  0.00    -0.235 N 
HETATM   13  H           1     -26.302  -3.900 -10.509  0.00  0.00     0.174 HD
HETATM   14  H           1     -26.104  -3.013  -8.935  0.00  0.00     0.174 HD
HETATM   15  H           1     -24.542  -4.820 -11.507  0.00  0.00     0.174 HD
HETATM   16  H           1     -22.906  -4.683 -10.744  0.00  0.00     0.174 HD
HETATM   17  H           1     -24.122  -2.847  -8.011  0.00  0.00     0.177 HD
ENDBRANCH   8   9
ENDBRANCH   7   8
ENDBRANCH   6   7
ENDBRANCH   5   6
BRANCH   5  18
HETATM   18  N           1     -19.691  -6.834  -6.425  0.00  0.00    -0.067 N 
HETATM   19  H           1     -19.526  -6.817  -7.457  0.00  0.00     0.275 HD
HETATM   20  H           1     -18.807  -6.587  -5.926  0.00  0.00     0.275 HD
HETATM   21  H           1     -19.998  -7.790  -6.138  0.00  0.00     0.275 HD
ENDBRANCH   5  18
ENDBRANCH   3   5
BRANCH   4  22
HETATM   22  C           1     -21.945  -7.582  -2.873  0.00  0.00     0.187 C 
BRANCH  22  23
HETATM   23  C           1     -22.176  -6.545  -1.802  0.00  0.00     0.196 C 
HETATM   24  O           1     -21.819  -5.362  -1.990  0.00  0.00    -0.646 OA
HETATM   25  O           1     -22.724  -6.868  -0.726  0.00  0.00    -0.646 OA
ENDBRANCH  22  23
BRANCH  22  26
HETATM   26  C           1     -21.273  -8.804  -2.260  0.00  0.00     0.066 C 
BRANCH  26  27
HETATM   27  C           1     -19.765  -8.596  -2.237  0.00  0.00     0.273 C 
BRANCH  27  28
HETATM   28  N           1     -19.104  -9.841  -2.520  0.00  0.00     0.098 N 
HETATM   29  H           1     -19.794 -10.592  -2.559  0.00  0.00     0.317 HD
BRANCH  28  30
HETATM   30  C           1     -18.461  -9.714  -3.799  0.00  0.00     0.321 C 
BRANCH  30  31
HETATM   31  C           1     -17.143 -10.476  -3.782  0.00  0.00     0.057 C 
BRANCH  31  32
HETATM   32  C           1     -16.263  -9.996  -4.930  0.00  0.00     0.076 C 
BRANCH  32  33
HETATM   33  S           1     -15.909 -11.384  -6.044  0.00  0.00    -0.173 SA
HETATM   34  C           1     -14.283 -11.789  -5.348  0.00  0.00     0.089 C 
ENDBRANCH  32  33
ENDBRANCH  31  32
ENDBRANCH  30  31
BRANCH  30  35
HETATM   35  C           1     -19.358 -10.283  -4.871  0.00  0.00     0.207 C 
HETATM   36  O           1     -19.494 -11.521  -4.979  0.00  0.00    -0.646 OA
HETATM   37  O           1     -19.963  -9.517  -5.652  0.00  0.00    -0.646 OA
ENDBRANCH  30  35
ENDBRANCH  28  30
ENDBRANCH  27  28
ENDBRANCH  26  27
ENDBRANCH  22  26
ENDBRANCH   4  22
TORSDOF 16
ENDMDL
