MODEL 1
REMARK VINA RESULT:      -6.6      0.000      0.000
REMARK  9 active torsions:
REMARK  status: ('A' for Active; 'I' for Inactive)
REMARK       I    between atoms: N_2  and  C_3 
REMARK    1  A    between atoms: C_3  and  C_18 
REMARK    2  A    between atoms: N_5  and  C_11 
REMARK       I    between atoms: N_5  and  C_8 
REMARK    3  A    between atoms: C_7  and  C_8 
REMARK    4  A    between atoms: C_7  and  C_17 
REMARK    5  A    between atoms: C_7  and  N_16 
REMARK    6  A    between atoms: O_9  and  C_12 
REMARK    7  A    between atoms: C_10  and  C_11 
REMARK    8  A    between atoms: C_11  and  C_12 
REMARK    9  A    between atoms: C_17  and  C_18 
ROOT
HETATM    1  C           1     -34.373  -1.774 -11.951  0.00  0.00     0.275 C 
ENDROOT
BRANCH   1   2
HETATM    2  C           1     -35.382  -1.207 -12.919  0.00  0.00     0.249 C 
HETATM    3  N           1     -34.960  -0.625 -14.085  0.00  0.00    -0.343 N 
HETATM    4  H           1     -33.972  -0.575 -14.297  0.00  0.00     0.163 HD
HETATM    5  O           1     -36.562  -1.268 -12.667  0.00  0.00    -0.271 OA
BRANCH   3   6
HETATM    6  C           1     -35.930  -0.080 -15.015  0.00  0.00     0.209 C 
BRANCH   6   7
HETATM    7  C           1     -35.884  -0.863 -16.304  0.00  0.00     0.198 C 
HETATM    8  O           1     -34.892  -1.577 -16.566  0.00  0.00    -0.646 OA
HETATM    9  O           1     -36.836  -0.795 -17.110  0.00  0.00    -0.646 OA
ENDBRANCH   6   7
BRANCH   6  10
HETATM   10  C           1     -35.599   1.380 -15.294  0.00  0.00     0.200 C 
BRANCH  10  11
HETATM   11  O           1     -36.556   1.918 -16.165  0.00  0.00    -0.398 OA
HETATM   12  H           1     -36.543   1.392 -16.946  0.00  0.00     0.209 HD
ENDBRANCH  10  11
ENDBRANCH   6  10
ENDBRANCH   3   6
ENDBRANCH   1   2
BRANCH   1  13
HETATM   13  C           1     -34.084  -3.226 -12.309  0.00  0.00     0.052 C 
BRANCH  13  14
HETATM   14  C           1     -33.671  -3.986 -11.055  0.00  0.00     0.105 C 
BRANCH  14  15
HETATM   15  C           1     -34.256  -5.376 -11.094  0.00  0.00     0.215 C 
HETATM   16  O           1     -34.346  -6.023 -10.077  0.00  0.00    -0.274 OA
HETATM   17  N           1     -34.683  -5.905 -12.282  0.00  0.00    -0.370 N 
HETATM   18  H           1     -35.075  -6.838 -12.308  0.00  0.00     0.159 HD
HETATM   19  H           1     -34.607  -5.364 -13.134  0.00  0.00     0.159 HD
ENDBRANCH  14  15
ENDBRANCH  13  14
ENDBRANCH   1  13
BRANCH   1  20
HETATM   20  N           1     -34.925  -1.703 -10.558  0.00  0.00    -0.066 N 
HETATM   21  H           1     -34.163  -1.434  -9.895  0.00  0.00     0.275 HD
HETATM   22  H           1     -35.688  -0.990 -10.521  0.00  0.00     0.275 HD
HETATM   23  H           1     -35.307  -2.638 -10.287  0.00  0.00     0.275 HD
ENDBRANCH   1  20
TORSDOF 9
ENDMDL
MODEL 2
REMARK VINA RESULT:      -6.4      8.615     10.443
REMARK  9 active torsions:
REMARK  status: ('A' for Active; 'I' for Inactive)
REMARK       I    between atoms: N_2  and  C_3 
REMARK    1  A    between atoms: C_3  and  C_18 
REMARK    2  A    between atoms: N_5  and  C_11 
REMARK       I    between atoms: N_5  and  C_8 
REMARK    3  A    between atoms: C_7  and  C_8 
REMARK    4  A    between atoms: C_7  and  C_17 
REMARK    5  A    between atoms: C_7  and  N_16 
REMARK    6  A    between atoms: O_9  and  C_12 
REMARK    7  A    between atoms: C_10  and  C_11 
REMARK    8  A    between atoms: C_11  and  C_12 
REMARK    9  A    between atoms: C_17  and  C_18 
ROOT
HETATM    1  C           1     -29.316  -6.278 -16.343  0.00  0.00     0.275 C 
ENDROOT
BRANCH   1   2
HETATM    2  C           1     -27.885  -5.881 -16.609  0.00  0.00     0.249 C 
HETATM    3  N           1     -26.968  -6.829 -16.977  0.00  0.00    -0.343 N 
HETATM    4  H           1     -27.250  -7.797 -17.071  0.00  0.00     0.163 HD
HETATM    5  O           1     -27.548  -4.726 -16.498  0.00  0.00    -0.271 OA
BRANCH   3   6
HETATM    6  C           1     -25.593  -6.447 -17.232  0.00  0.00     0.209 C 
BRANCH   6   7
HETATM    7  C           1     -25.276  -6.658 -18.692  0.00  0.00     0.198 C 
HETATM    8  O           1     -26.199  -6.685 -19.535  0.00  0.00    -0.646 OA
HETATM    9  O           1     -24.091  -6.807 -19.059  0.00  0.00    -0.646 OA
ENDBRANCH   6   7
BRANCH   6  10
HETATM   10  C           1     -24.663  -7.303 -16.381  0.00  0.00     0.200 C 
BRANCH  10  11
HETATM   11  O           1     -24.963  -7.111 -15.025  0.00  0.00    -0.398 OA
HETATM   12  H           1     -25.887  -6.938 -14.970  0.00  0.00     0.209 HD
ENDBRANCH  10  11
ENDBRANCH   6  10
ENDBRANCH   3   6
ENDBRANCH   1   2
BRANCH   1  13
HETATM   13  C           1     -30.197  -5.808 -17.493  0.00  0.00     0.052 C 
BRANCH  13  14
HETATM   14  C           1     -31.331  -4.951 -16.947  0.00  0.00     0.105 C 
BRANCH  14  15
HETATM   15  C           1     -31.222  -3.554 -17.508  0.00  0.00     0.215 C 
HETATM   16  O           1     -32.221  -2.923 -17.757  0.00  0.00    -0.274 OA
HETATM   17  N           1     -29.989  -3.004 -17.736  0.00  0.00    -0.370 N 
HETATM   18  H           1     -29.915  -2.068 -18.113  0.00  0.00     0.159 HD
HETATM   19  H           1     -29.152  -3.534 -17.528  0.00  0.00     0.159 HD
ENDBRANCH  14  15
ENDBRANCH  13  14
ENDBRANCH   1  13
BRANCH   1  20
HETATM   20  N           1     -29.781  -5.642 -15.065  0.00  0.00    -0.066 N 
HETATM   21  H           1     -28.952  -5.320 -14.516  0.00  0.00     0.275 HD
HETATM   22  H           1     -30.392  -4.824 -15.285  0.00  0.00     0.275 HD
HETATM   23  H           1     -30.320  -6.341 -14.505  0.00  0.00     0.275 HD
ENDBRANCH   1  20
TORSDOF 9
ENDMDL
MODEL 3
REMARK VINA RESULT:      -6.3     12.829     15.534
REMARK  9 active torsions:
REMARK  status: ('A' for Active; 'I' for Inactive)
REMARK       I    between atoms: N_2  and  C_3 
REMARK    1  A    between atoms: C_3  and  C_18 
REMARK    2  A    between atoms: N_5  and  C_11 
REMARK       I    between atoms: N_5  and  C_8 
REMARK    3  A    between atoms: C_7  and  C_8 
REMARK    4  A    between atoms: C_7  and  C_17 
REMARK    5  A    between atoms: C_7  and  N_16 
REMARK    6  A    between atoms: O_9  and  C_12 
REMARK    7  A    between atoms: C_10  and  C_11 
REMARK    8  A    between atoms: C_11  and  C_12 
REMARK    9  A    between atoms: C_17  and  C_18 
ROOT
HETATM    1  C           1     -21.653  -3.638 -10.731  0.00  0.00     0.275 C 
ENDROOT
BRANCH   1   2
HETATM    2  C           1     -20.805  -4.496  -9.825  0.00  0.00     0.249 C 
HETATM    3  N           1     -21.155  -4.659  -8.511  0.00  0.00    -0.343 N 
HETATM    4  H           1     -21.983  -4.205  -8.148  0.00  0.00     0.163 HD
HETATM    5  O           1     -19.817  -5.039 -10.259  0.00  0.00    -0.271 OA
BRANCH   3   6
HETATM    6  C           1     -20.339  -5.483  -7.641  0.00  0.00     0.209 C 
BRANCH   6   7
HETATM    7  C           1     -21.225  -6.198  -6.650  0.00  0.00     0.198 C 
HETATM    8  O           1     -22.197  -5.601  -6.139  0.00  0.00    -0.646 OA
HETATM    9  O           1     -20.985  -7.384  -6.340  0.00  0.00    -0.646 OA
ENDBRANCH   6   7
BRANCH   6  10
HETATM   10  C           1     -19.346  -4.602  -6.893  0.00  0.00     0.200 C 
BRANCH  10  11
HETATM   11  O           1     -19.666  -4.592  -5.528  0.00  0.00    -0.398 OA
HETATM   12  H           1     -20.125  -3.786  -5.361  0.00  0.00     0.209 HD
ENDBRANCH  10  11
ENDBRANCH   6  10
ENDBRANCH   3   6
ENDBRANCH   1   2
BRANCH   1  13
HETATM   13  C           1     -22.589  -4.524 -11.542  0.00  0.00     0.052 C 
BRANCH  13  14
HETATM   14  C           1     -23.731  -5.003 -10.655  0.00  0.00     0.105 C 
BRANCH  14  15
HETATM   15  C           1     -24.501  -3.812 -10.140  0.00  0.00     0.215 C 
HETATM   16  O           1     -25.129  -3.121 -10.907  0.00  0.00    -0.274 OA
HETATM   17  N           1     -24.487  -3.513  -8.804  0.00  0.00    -0.370 N 
HETATM   18  H           1     -25.003  -2.714  -8.459  0.00  0.00     0.159 HD
HETATM   19  H           1     -23.960  -4.092  -8.162  0.00  0.00     0.159 HD
ENDBRANCH  14  15
ENDBRANCH  13  14
ENDBRANCH   1  13
BRANCH   1  20
HETATM   20  N           1     -20.765  -2.865 -11.661  0.00  0.00    -0.066 N 
HETATM   21  H           1     -20.067  -2.323 -11.105  0.00  0.00     0.275 HD
HETATM   22  H           1     -20.266  -3.527 -12.297  0.00  0.00     0.275 HD
HETATM   23  H           1     -21.346  -2.207 -12.229  0.00  0.00     0.275 HD
ENDBRANCH   1  20
TORSDOF 9
ENDMDL
MODEL 4
REMARK VINA RESULT:      -6.3     12.917     14.794
REMARK  9 active torsions:
REMARK  status: ('A' for Active; 'I' for Inactive)
REMARK       I    between atoms: N_2  and  C_3 
REMARK    1  A    between atoms: C_3  and  C_18 
REMARK    2  A    between atoms: N_5  and  C_11 
REMARK       I    between atoms: N_5  and  C_8 
REMARK    3  A    between atoms: C_7  and  C_8 
REMARK    4  A    between atoms: C_7  and  C_17 
REMARK    5  A    between atoms: C_7  and  N_16 
REMARK    6  A    between atoms: O_9  and  C_12 
REMARK    7  A    between atoms: C_10  and  C_11 
REMARK    8  A    between atoms: C_11  and  C_12 
REMARK    9  A    between atoms: C_17  and  C_18 
ROOT
HETATM    1  C           1     -21.273  -5.892  -6.967  0.00  0.00     0.275 C 
ENDROOT
BRANCH   1   2
HETATM    2  C           1     -21.692  -4.718  -7.816  0.00  0.00     0.249 C 
HETATM    3  N           1     -22.149  -4.922  -9.091  0.00  0.00    -0.343 N 
HETATM    4  H           1     -22.205  -5.861  -9.464  0.00  0.00     0.163 HD
HETATM    5  O           1     -21.626  -3.596  -7.371  0.00  0.00    -0.271 OA
BRANCH   3   6
HETATM    6  C           1     -22.552  -3.793  -9.906  0.00  0.00     0.209 C 
BRANCH   6   7
HETATM    7  C           1     -24.030  -3.885 -10.196  0.00  0.00     0.198 C 
HETATM    8  O           1     -24.655  -4.935  -9.930  0.00  0.00    -0.646 OA
HETATM    9  O           1     -24.629  -2.912 -10.702  0.00  0.00    -0.646 OA
ENDBRANCH   6   7
BRANCH   6  10
HETATM   10  C           1     -21.775  -3.811 -11.216  0.00  0.00     0.200 C 
BRANCH  10  11
HETATM   11  O           1     -22.554  -4.412 -12.214  0.00  0.00    -0.398 OA
HETATM   12  H           1     -22.240  -4.087 -13.040  0.00  0.00     0.209 HD
ENDBRANCH  10  11
ENDBRANCH   6  10
ENDBRANCH   3   6
ENDBRANCH   1   2
BRANCH   1  13
HETATM   13  C           1     -21.354  -5.511  -5.495  0.00  0.00     0.052 C 
BRANCH  13  14
HETATM   14  C           1     -22.215  -6.525  -4.754  0.00  0.00     0.105 C 
BRANCH  14  15
HETATM   15  C           1     -21.754  -6.625  -3.320  0.00  0.00     0.215 C 
HETATM   16  O           1     -20.848  -7.368  -3.027  0.00  0.00    -0.274 OA
HETATM   17  N           1     -22.365  -5.874  -2.352  0.00  0.00    -0.370 N 
HETATM   18  H           1     -22.056  -5.941  -1.391  0.00  0.00     0.159 HD
HETATM   19  H           1     -23.124  -5.252  -2.598  0.00  0.00     0.159 HD
ENDBRANCH  14  15
ENDBRANCH  13  14
ENDBRANCH   1  13
BRANCH   1  20
HETATM   20  N           1     -19.862  -6.275  -7.307  0.00  0.00    -0.066 N 
HETATM   21  H           1     -19.808  -7.308  -7.453  0.00  0.00     0.275 HD
HETATM   22  H           1     -19.569  -5.784  -8.182  0.00  0.00     0.275 HD
HETATM   23  H           1     -19.229  -6.000  -6.523  0.00  0.00     0.275 HD
ENDBRANCH   1  20
TORSDOF 9
ENDMDL
MODEL 5
REMARK VINA RESULT:      -6.0     12.823     14.589
REMARK  9 active torsions:
REMARK  status: ('A' for Active; 'I' for Inactive)
REMARK       I    between atoms: N_2  and  C_3 
REMARK    1  A    between atoms: C_3  and  C_18 
REMARK    2  A    between atoms: N_5  and  C_11 
REMARK       I    between atoms: N_5  and  C_8 
REMARK    3  A    between atoms: C_7  and  C_8 
REMARK    4  A    between atoms: C_7  and  C_17 
REMARK    5  A    between atoms: C_7  and  N_16 
REMARK    6  A    between atoms: O_9  and  C_12 
REMARK    7  A    between atoms: C_10  and  C_11 
REMARK    8  A    between atoms: C_11  and  C_12 
REMARK    9  A    between atoms: C_17  and  C_18 
ROOT
HETATM    1  C           1     -20.384  -4.886  -8.000  0.00  0.00     0.275 C 
ENDROOT
BRANCH   1   2
HETATM    2  C           1     -21.090  -4.402  -9.243  0.00  0.00     0.249 C 
HETATM    3  N           1     -22.445  -4.555  -9.366  0.00  0.00    -0.343 N 
HETATM    4  H           1     -22.974  -4.994  -8.623  0.00  0.00     0.163 HD
HETATM    5  O           1     -20.458  -3.877 -10.130  0.00  0.00    -0.271 OA
BRANCH   3   6
HETATM    6  C           1     -23.121  -4.090 -10.561  0.00  0.00     0.209 C 
BRANCH   6   7
HETATM    7  C           1     -24.414  -3.413 -10.174  0.00  0.00     0.198 C 
HETATM    8  O           1     -25.252  -3.119 -11.054  0.00  0.00    -0.646 OA
HETATM    9  O           1     -24.645  -3.146  -8.976  0.00  0.00    -0.646 OA
ENDBRANCH   6   7
BRANCH   6  10
HETATM   10  C           1     -23.420  -5.276 -11.468  0.00  0.00     0.200 C 
BRANCH  10  11
HETATM   11  O           1     -23.609  -4.824 -12.781  0.00  0.00    -0.398 OA
HETATM   12  H           1     -23.340  -5.523 -13.353  0.00  0.00     0.209 HD
ENDBRANCH  10  11
ENDBRANCH   6  10
ENDBRANCH   3   6
ENDBRANCH   1   2
BRANCH   1  13
HETATM   13  C           1     -21.218  -4.538  -6.773  0.00  0.00     0.052 C 
BRANCH  13  14
HETATM   14  C           1     -20.414  -4.830  -5.513  0.00  0.00     0.105 C 
BRANCH  14  15
HETATM   15  C           1     -20.959  -6.068  -4.844  0.00  0.00     0.215 C 
HETATM   16  O           1     -21.906  -5.985  -4.099  0.00  0.00    -0.274 OA
HETATM   17  N           1     -20.378  -7.285  -5.081  0.00  0.00    -0.370 N 
HETATM   18  H           1     -20.743  -8.115  -4.632  0.00  0.00     0.159 HD
HETATM   19  H           1     -19.584  -7.354  -5.704  0.00  0.00     0.159 HD
ENDBRANCH  14  15
ENDBRANCH  13  14
ENDBRANCH   1  13
BRANCH   1  20
HETATM   20  N           1     -19.043  -4.222  -7.897  0.00  0.00    -0.066 N 
HETATM   21  H           1     -19.173  -3.199  -7.732  0.00  0.00     0.275 HD
HETATM   22  H           1     -18.508  -4.638  -7.101  0.00  0.00     0.275 HD
HETATM   23  H           1     -18.514  -4.367  -8.787  0.00  0.00     0.275 HD
ENDBRANCH   1  20
TORSDOF 9
ENDMDL
MODEL 6
REMARK VINA RESULT:      -5.9      1.973      3.383
REMARK  9 active torsions:
REMARK  status: ('A' for Active; 'I' for Inactive)
REMARK       I    between atoms: N_2  and  C_3 
REMARK    1  A    between atoms: C_3  and  C_18 
REMARK    2  A    between atoms: N_5  and  C_11 
REMARK       I    between atoms: N_5  and  C_8 
REMARK    3  A    between atoms: C_7  and  C_8 
REMARK    4  A    between atoms: C_7  and  C_17 
REMARK    5  A    between atoms: C_7  and  N_16 
REMARK    6  A    between atoms: O_9  and  C_12 
REMARK    7  A    between atoms: C_10  and  C_11 
REMARK    8  A    between atoms: C_11  and  C_12 
REMARK    9  A    between atoms: C_17  and  C_18 
ROOT
HETATM    1  C           1     -34.182  -4.125 -12.149  0.00  0.00     0.275 C 
ENDROOT
BRANCH   1   2
HETATM    2  C           1     -34.279  -2.645 -11.870  0.00  0.00     0.249 C 
HETATM    3  N           1     -35.028  -1.842 -12.687  0.00  0.00    -0.343 N 
HETATM    4  H           1     -35.517  -2.240 -13.478  0.00  0.00     0.163 HD
HETATM    5  O           1     -33.696  -2.170 -10.925  0.00  0.00    -0.271 OA
BRANCH   3   6
HETATM    6  C           1     -35.120  -0.420 -12.418  0.00  0.00     0.209 C 
BRANCH   6   7
HETATM    7  C           1     -36.440  -0.119 -11.752  0.00  0.00     0.198 C 
HETATM    8  O           1     -37.507  -0.500 -12.279  0.00  0.00    -0.646 OA
HETATM    9  O           1     -36.465   0.511 -10.673  0.00  0.00    -0.646 OA
ENDBRANCH   6   7
BRANCH   6  10
HETATM   10  C           1     -35.025   0.350 -13.729  0.00  0.00     0.200 C 
BRANCH  10  11
HETATM   11  O           1     -34.894  -0.553 -14.793  0.00  0.00    -0.398 OA
HETATM   12  H           1     -34.597  -1.368 -14.426  0.00  0.00     0.209 HD
ENDBRANCH  10  11
ENDBRANCH   6  10
ENDBRANCH   3   6
ENDBRANCH   1   2
BRANCH   1  13
HETATM   13  C           1     -34.374  -4.901 -10.852  0.00  0.00     0.052 C 
BRANCH  13  14
HETATM   14  C           1     -33.547  -6.180 -10.899  0.00  0.00     0.105 C 
BRANCH  14  15
HETATM   15  C           1     -34.337  -7.312 -10.288  0.00  0.00     0.215 C 
HETATM   16  O           1     -35.337  -7.077  -9.652  0.00  0.00    -0.274 OA
HETATM   17  N           1     -33.918  -8.605 -10.454  0.00  0.00    -0.370 N 
HETATM   18  H           1     -34.447  -9.364 -10.044  0.00  0.00     0.159 HD
HETATM   19  H           1     -33.080  -8.801 -10.986  0.00  0.00     0.159 HD
ENDBRANCH  14  15
ENDBRANCH  13  14
ENDBRANCH   1  13
BRANCH   1  20
HETATM   20  N           1     -32.832  -4.438 -12.724  0.00  0.00    -0.066 N 
HETATM   21  H           1     -32.108  -3.855 -12.247  0.00  0.00     0.275 HD
HETATM   22  H           1     -32.616  -5.449 -12.577  0.00  0.00     0.275 HD
HETATM   23  H           1     -32.832  -4.225 -13.747  0.00  0.00     0.275 HD
ENDBRANCH   1  20
TORSDOF 9
ENDMDL
MODEL 7
REMARK VINA RESULT:      -5.9     10.408     11.745
REMARK  9 active torsions:
REMARK  status: ('A' for Active; 'I' for Inactive)
REMARK       I    between atoms: N_2  and  C_3 
REMARK    1  A    between atoms: C_3  and  C_18 
REMARK    2  A    between atoms: N_5  and  C_11 
REMARK       I    between atoms: N_5  and  C_8 
REMARK    3  A    between atoms: C_7  and  C_8 
REMARK    4  A    between atoms: C_7  and  C_17 
REMARK    5  A    between atoms: C_7  and  N_16 
REMARK    6  A    between atoms: O_9  and  C_12 
REMARK    7  A    between atoms: C_10  and  C_11 
REMARK    8  A    between atoms: C_11  and  C_12 
REMARK    9  A    between atoms: C_17  and  C_18 
ROOT
HETATM    1  C           1     -24.629  -6.752 -17.249  0.00  0.00     0.275 C 
ENDROOT
BRANCH   1   2
HETATM    2  C           1     -25.886  -6.901 -16.428  0.00  0.00     0.249 C 
HETATM    3  N           1     -27.089  -6.490 -16.935  0.00  0.00    -0.343 N 
HETATM    4  H           1     -27.136  -6.086 -17.862  0.00  0.00     0.163 HD
HETATM    5  O           1     -25.830  -7.385 -15.322  0.00  0.00    -0.271 OA
BRANCH   3   6
HETATM    6  C           1     -28.296  -6.634 -16.145  0.00  0.00     0.209 C 
BRANCH   6   7
HETATM    7  C           1     -29.445  -7.011 -17.048  0.00  0.00     0.198 C 
HETATM    8  O           1     -29.678  -8.214 -17.294  0.00  0.00    -0.646 OA
HETATM    9  O           1     -30.163  -6.119 -17.550  0.00  0.00    -0.646 OA
ENDBRANCH   6   7
BRANCH   6  10
HETATM   10  C           1     -28.607  -5.315 -15.450  0.00  0.00     0.200 C 
BRANCH  10  11
HETATM   11  O           1     -28.121  -4.252 -16.225  0.00  0.00    -0.398 OA
HETATM   12  H           1     -28.608  -3.486 -15.976  0.00  0.00     0.209 HD
ENDBRANCH  10  11
ENDBRANCH   6  10
ENDBRANCH   3   6
ENDBRANCH   1   2
BRANCH   1  13
HETATM   13  C           1     -24.985  -6.750 -18.730  0.00  0.00     0.052 C 
BRANCH  13  14
HETATM   14  C           1     -23.918  -7.506 -19.510  0.00  0.00     0.105 C 
BRANCH  14  15
HETATM   15  C           1     -24.487  -7.956 -20.834  0.00  0.00     0.215 C 
HETATM   16  O           1     -23.754  -8.128 -21.779  0.00  0.00    -0.274 OA
HETATM   17  N           1     -25.833  -8.167 -20.963  0.00  0.00    -0.370 N 
HETATM   18  H           1     -26.214  -8.468 -21.850  0.00  0.00     0.159 HD
HETATM   19  H           1     -26.446  -8.022 -20.171  0.00  0.00     0.159 HD
ENDBRANCH  14  15
ENDBRANCH  13  14
ENDBRANCH   1  13
BRANCH   1  20
HETATM   20  N           1     -23.704  -7.897 -16.959  0.00  0.00    -0.066 N 
HETATM   21  H           1     -24.221  -8.798 -17.069  0.00  0.00     0.275 HD
HETATM   22  H           1     -22.900  -7.873 -17.625  0.00  0.00     0.275 HD
HETATM   23  H           1     -23.348  -7.817 -15.979  0.00  0.00     0.275 HD
ENDBRANCH   1  20
TORSDOF 9
ENDMDL
MODEL 8
REMARK VINA RESULT:      -5.8     11.534     12.783
REMARK  9 active torsions:
REMARK  status: ('A' for Active; 'I' for Inactive)
REMARK       I    between atoms: N_2  and  C_3 
REMARK    1  A    between atoms: C_3  and  C_18 
REMARK    2  A    between atoms: N_5  and  C_11 
REMARK       I    between atoms: N_5  and  C_8 
REMARK    3  A    between atoms: C_7  and  C_8 
REMARK    4  A    between atoms: C_7  and  C_17 
REMARK    5  A    between atoms: C_7  and  N_16 
REMARK    6  A    between atoms: O_9  and  C_12 
REMARK    7  A    between atoms: C_10  and  C_11 
REMARK    8  A    between atoms: C_11  and  C_12 
REMARK    9  A    between atoms: C_17  and  C_18 
ROOT
HETATM    1  C           1     -25.013  -6.936 -19.764  0.00  0.00     0.275 C 
ENDROOT
BRANCH   1   2
HETATM    2  C           1     -26.435  -6.513 -19.485  0.00  0.00     0.249 C 
HETATM    3  N           1     -26.914  -6.524 -18.202  0.00  0.00    -0.343 N 
HETATM    4  H           1     -26.314  -6.815 -17.441  0.00  0.00     0.163 HD
HETATM    5  O           1     -27.150  -6.164 -20.394  0.00  0.00    -0.271 OA
BRANCH   3   6
HETATM    6  C           1     -28.280  -6.117 -17.935  0.00  0.00     0.209 C 
BRANCH   6   7
HETATM    7  C           1     -28.288  -4.705 -17.402  0.00  0.00     0.198 C 
HETATM    8  O           1     -27.406  -4.336 -16.598  0.00  0.00    -0.646 OA
HETATM    9  O           1     -29.178  -3.907 -17.765  0.00  0.00    -0.646 OA
ENDBRANCH   6   7
BRANCH   6  10
HETATM   10  C           1     -28.894  -7.054 -16.903  0.00  0.00     0.200 C 
BRANCH  10  11
HETATM   11  O           1     -29.310  -8.235 -17.533  0.00  0.00    -0.398 OA
HETATM   12  H           1     -28.738  -8.370 -18.269  0.00  0.00     0.209 HD
ENDBRANCH  10  11
ENDBRANCH   6  10
ENDBRANCH   3   6
ENDBRANCH   1   2
BRANCH   1  13
HETATM   13  C           1     -25.008  -8.042 -20.811  0.00  0.00     0.052 C 
BRANCH  13  14
HETATM   14  C           1     -24.056  -7.667 -21.940  0.00  0.00     0.105 C 
BRANCH  14  15
HETATM   15  C           1     -22.860  -8.586 -21.916  0.00  0.00     0.215 C 
HETATM   16  O           1     -22.036  -8.482 -21.038  0.00  0.00    -0.274 OA
HETATM   17  N           1     -22.708  -9.537 -22.889  0.00  0.00    -0.370 N 
HETATM   18  H           1     -21.905 -10.153 -22.873  0.00  0.00     0.159 HD
HETATM   19  H           1     -23.398  -9.624 -23.624  0.00  0.00     0.159 HD
ENDBRANCH  14  15
ENDBRANCH  13  14
ENDBRANCH   1  13
BRANCH   1  20
HETATM   20  N           1     -24.386  -7.442 -18.498  0.00  0.00    -0.066 N 
HETATM   21  H           1     -23.645  -6.776 -18.187  0.00  0.00     0.275 HD
HETATM   22  H           1     -25.117  -7.523 -17.755  0.00  0.00     0.275 HD
HETATM   23  H           1     -23.961  -8.381 -18.673  0.00  0.00     0.275 HD
ENDBRANCH   1  20
TORSDOF 9
ENDMDL
MODEL 9
REMARK VINA RESULT:      -5.7     12.865     14.717
REMARK  9 active torsions:
REMARK  status: ('A' for Active; 'I' for Inactive)
REMARK       I    between atoms: N_2  and  C_3 
REMARK    1  A    between atoms: C_3  and  C_18 
REMARK    2  A    between atoms: N_5  and  C_11 
REMARK       I    between atoms: N_5  and  C_8 
REMARK    3  A    between atoms: C_7  and  C_8 
REMARK    4  A    between atoms: C_7  and  C_17 
REMARK    5  A    between atoms: C_7  and  N_16 
REMARK    6  A    between atoms: O_9  and  C_12 
REMARK    7  A    between atoms: C_10  and  C_11 
REMARK    8  A    between atoms: C_11  and  C_12 
REMARK    9  A    between atoms: C_17  and  C_18 
ROOT
HETATM    1  C           1     -21.583  -5.227  -6.291  0.00  0.00     0.275 C 
ENDROOT
BRANCH   1   2
HETATM    2  C           1     -21.808  -4.292  -7.455  0.00  0.00     0.249 C 
HETATM    3  N           1     -22.384  -4.758  -8.606  0.00  0.00    -0.343 N 
HETATM    4  H           1     -22.660  -5.729  -8.677  0.00  0.00     0.163 HD
HETATM    5  O           1     -21.480  -3.132  -7.370  0.00  0.00    -0.271 OA
BRANCH   3   6
HETATM    6  C           1     -22.600  -3.859  -9.723  0.00  0.00     0.209 C 
BRANCH   6   7
HETATM    7  C           1     -24.061  -3.869 -10.101  0.00  0.00     0.198 C 
HETATM    8  O           1     -24.561  -2.884 -10.686  0.00  0.00    -0.646 OA
HETATM    9  O           1     -24.769  -4.861  -9.829  0.00  0.00    -0.646 OA
ENDBRANCH   6   7
BRANCH   6  10
HETATM   10  C           1     -21.764  -4.318 -10.911  0.00  0.00     0.200 C 
BRANCH  10  11
HETATM   11  O           1     -22.597  -4.512 -12.022  0.00  0.00    -0.398 OA
HETATM   12  H           1     -23.313  -3.906 -11.936  0.00  0.00     0.209 HD
ENDBRANCH  10  11
ENDBRANCH   6  10
ENDBRANCH   3   6
ENDBRANCH   1   2
BRANCH   1  13
HETATM   13  C           1     -20.881  -6.487  -6.779  0.00  0.00     0.052 C 
BRANCH  13  14
HETATM   14  C           1     -20.079  -7.097  -5.637  0.00  0.00     0.105 C 
BRANCH  14  15
HETATM   15  C           1     -20.793  -8.321  -5.119  0.00  0.00     0.215 C 
HETATM   16  O           1     -21.665  -8.207  -4.290  0.00  0.00    -0.274 OA
HETATM   17  N           1     -20.451  -9.562  -5.587  0.00  0.00    -0.370 N 
HETATM   18  H           1     -20.930 -10.383  -5.239  0.00  0.00     0.159 HD
HETATM   19  H           1     -19.721  -9.657  -6.281  0.00  0.00     0.159 HD
ENDBRANCH  14  15
ENDBRANCH  13  14
ENDBRANCH   1  13
BRANCH   1  20
HETATM   20  N           1     -22.905  -5.593  -5.684  0.00  0.00    -0.066 N 
HETATM   21  H           1     -22.750  -6.006  -4.736  0.00  0.00     0.275 HD
HETATM   22  H           1     -23.498  -4.738  -5.598  0.00  0.00     0.275 HD
HETATM   23  H           1     -23.386  -6.293  -6.294  0.00  0.00     0.275 HD
ENDBRANCH   1  20
TORSDOF 9
ENDMDL
