MODEL 1
REMARK VINA RESULT:      -6.4      0.000      0.000
REMARK  9 active torsions:
REMARK  status: ('A' for Active; 'I' for Inactive)
REMARK    1  A    between atoms: C_2  and  O_4 
REMARK    2  A    between atoms: C_2  and  C_3 
REMARK    3  A    between atoms: C_3  and  C_21 
REMARK    4  A    between atoms: C_3  and  N_20 
REMARK    5  A    between atoms: C_5  and  C_6 
REMARK    6  A    between atoms: C_5  and  C_11 
REMARK    7  A    between atoms: C_6  and  C_7 
REMARK    8  A    between atoms: C_6  and  N_15 
REMARK       I    between atoms: C_7  and  N_20 
REMARK    9  A    between atoms: C_11  and  C_18 
ROOT
HETATM    1  C           1     -28.424  -6.316 -18.614  0.00  0.00     0.249 C 
HETATM    2  H           1     -27.523  -8.173 -18.754  0.00  0.00     0.163 HD
HETATM    3  O           1     -28.493  -5.210 -19.094  0.00  0.00    -0.271 OA
HETATM    4  N           1     -27.579  -7.247 -19.156  0.00  0.00    -0.343 N 
ENDROOT
BRANCH   1   5
HETATM    5  C           1     -29.272  -6.672 -17.417  0.00  0.00     0.275 C 
BRANCH   5   6
HETATM    6  C           1     -28.622  -6.126 -16.153  0.00  0.00     0.053 C 
BRANCH   6   7
HETATM    7  C           1     -27.689  -7.176 -15.567  0.00  0.00     0.115 C 
BRANCH   7   8
HETATM    8  C           1     -26.256  -6.769 -15.811  0.00  0.00     0.172 C 
HETATM    9  O           1     -25.326  -7.558 -15.535  0.00  0.00    -0.648 OA
HETATM   10  O           1     -25.998  -5.643 -16.290  0.00  0.00    -0.648 OA
ENDBRANCH   7   8
ENDBRANCH   6   7
ENDBRANCH   5   6
BRANCH   5  11
HETATM   11  N           1     -29.388  -8.164 -17.314  0.00  0.00    -0.066 N 
HETATM   12  H           1     -28.940  -8.607 -18.148  0.00  0.00     0.275 HD
HETATM   13  H           1     -30.397  -8.432 -17.276  0.00  0.00     0.275 HD
HETATM   14  H           1     -28.909  -8.492 -16.446  0.00  0.00     0.275 HD
ENDBRANCH   5  11
ENDBRANCH   1   5
BRANCH   4  15
HETATM   15  C           1     -26.765  -6.904 -20.306  0.00  0.00     0.209 C 
BRANCH  15  16
HETATM   16  C           1     -25.394  -6.435 -19.834  0.00  0.00     0.200 C 
BRANCH  16  17
HETATM   17  O           1     -24.962  -7.246 -18.775  0.00  0.00    -0.398 OA
HETATM   18  H           1     -25.593  -7.152 -18.082  0.00  0.00     0.209 HD
ENDBRANCH  16  17
ENDBRANCH  15  16
BRANCH  15  19
HETATM   19  C           1     -26.606  -8.117 -21.188  0.00  0.00     0.198 C 
HETATM   20  O           1     -25.478  -8.427 -21.628  0.00  0.00    -0.646 OA
HETATM   21  O           1     -27.603  -8.813 -21.481  0.00  0.00    -0.646 OA
ENDBRANCH  15  19
ENDBRANCH   4  15
TORSDOF 9
ENDMDL
MODEL 2
REMARK VINA RESULT:      -6.2     10.087     11.244
REMARK  9 active torsions:
REMARK  status: ('A' for Active; 'I' for Inactive)
REMARK    1  A    between atoms: C_2  and  O_4 
REMARK    2  A    between atoms: C_2  and  C_3 
REMARK    3  A    between atoms: C_3  and  C_21 
REMARK    4  A    between atoms: C_3  and  N_20 
REMARK    5  A    between atoms: C_5  and  C_6 
REMARK    6  A    between atoms: C_5  and  C_11 
REMARK    7  A    between atoms: C_6  and  C_7 
REMARK    8  A    between atoms: C_6  and  N_15 
REMARK       I    between atoms: C_7  and  N_20 
REMARK    9  A    between atoms: C_11  and  C_18 
ROOT
HETATM    1  C           1     -35.398  -1.156 -12.928  0.00  0.00     0.249 C 
HETATM    2  H           1     -33.977  -0.524 -14.292  0.00  0.00     0.163 HD
HETATM    3  O           1     -36.580  -1.216 -12.685  0.00  0.00    -0.271 OA
HETATM    4  N           1     -34.967  -0.572 -14.089  0.00  0.00    -0.343 N 
ENDROOT
BRANCH   1   5
HETATM    5  C           1     -34.399  -1.726 -11.952  0.00  0.00     0.275 C 
BRANCH   5   6
HETATM    6  C           1     -34.005  -3.130 -12.390  0.00  0.00     0.053 C 
BRANCH   6   7
HETATM    7  C           1     -33.196  -3.798 -11.287  0.00  0.00     0.115 C 
BRANCH   7   8
HETATM    8  C           1     -33.863  -5.092 -10.886  0.00  0.00     0.172 C 
HETATM    9  O           1     -35.028  -5.080 -10.434  0.00  0.00    -0.648 OA
HETATM   10  O           1     -33.250  -6.175 -11.007  0.00  0.00    -0.648 OA
ENDBRANCH   7   8
ENDBRANCH   6   7
ENDBRANCH   5   6
BRANCH   5  11
HETATM   11  N           1     -35.013  -1.783 -10.585  0.00  0.00    -0.066 N 
HETATM   12  H           1     -34.752  -0.924 -10.050  0.00  0.00     0.275 HD
HETATM   13  H           1     -34.662  -2.629 -10.082  0.00  0.00     0.275 HD
HETATM   14  H           1     -36.053  -1.837 -10.672  0.00  0.00     0.275 HD
ENDBRANCH   5  11
ENDBRANCH   1   5
BRANCH   4  15
HETATM   15  C           1     -35.928  -0.025 -15.026  0.00  0.00     0.209 C 
BRANCH  15  16
HETATM   16  C           1     -35.574   1.426 -15.326  0.00  0.00     0.200 C 
BRANCH  16  17
HETATM   17  O           1     -36.549   1.982 -16.165  0.00  0.00    -0.398 OA
HETATM   18  H           1     -37.272   2.233 -15.616  0.00  0.00     0.209 HD
ENDBRANCH  16  17
ENDBRANCH  15  16
BRANCH  15  19
HETATM   19  C           1     -35.895  -0.826 -16.305  0.00  0.00     0.198 C 
HETATM   20  O           1     -34.909  -1.549 -16.564  0.00  0.00    -0.646 OA
HETATM   21  O           1     -36.854  -0.766 -17.105  0.00  0.00    -0.646 OA
ENDBRANCH  15  19
ENDBRANCH   4  15
TORSDOF 9
ENDMDL
MODEL 3
REMARK VINA RESULT:      -5.9     10.240     12.419
REMARK  9 active torsions:
REMARK  status: ('A' for Active; 'I' for Inactive)
REMARK    1  A    between atoms: C_2  and  O_4 
REMARK    2  A    between atoms: C_2  and  C_3 
REMARK    3  A    between atoms: C_3  and  C_21 
REMARK    4  A    between atoms: C_3  and  N_20 
REMARK    5  A    between atoms: C_5  and  C_6 
REMARK    6  A    between atoms: C_5  and  C_11 
REMARK    7  A    between atoms: C_6  and  C_7 
REMARK    8  A    between atoms: C_6  and  N_15 
REMARK       I    between atoms: C_7  and  N_20 
REMARK    9  A    between atoms: C_11  and  C_18 
ROOT
HETATM    1  C           1     -21.635  -4.709  -7.844  0.00  0.00     0.249 C 
HETATM    2  H           1     -22.343  -5.855  -9.414  0.00  0.00     0.163 HD
HETATM    3  O           1     -21.463  -3.584  -7.438  0.00  0.00    -0.271 OA
HETATM    4  N           1     -22.199  -4.914  -9.075  0.00  0.00    -0.343 N 
ENDROOT
BRANCH   1   5
HETATM    5  C           1     -21.229  -5.888  -6.994  0.00  0.00     0.275 C 
BRANCH   5   6
HETATM    6  C           1     -21.374  -5.526  -5.522  0.00  0.00     0.053 C 
BRANCH   6   7
HETATM    7  C           1     -22.180  -6.604  -4.811  0.00  0.00     0.115 C 
BRANCH   7   8
HETATM    8  C           1     -21.794  -6.641  -3.352  0.00  0.00     0.172 C 
HETATM    9  O           1     -20.856  -7.375  -2.972  0.00  0.00    -0.648 OA
HETATM   10  O           1     -22.413  -5.937  -2.524  0.00  0.00    -0.648 OA
ENDBRANCH   7   8
ENDBRANCH   6   7
ENDBRANCH   5   6
BRANCH   5  11
HETATM   11  N           1     -19.800  -6.242  -7.283  0.00  0.00    -0.066 N 
HETATM   12  H           1     -19.199  -5.396  -7.159  0.00  0.00     0.275 HD
HETATM   13  H           1     -19.720  -6.587  -8.266  0.00  0.00     0.275 HD
HETATM   14  H           1     -19.487  -6.992  -6.625  0.00  0.00     0.275 HD
ENDBRANCH   5  11
ENDBRANCH   1   5
BRANCH   4  15
HETATM   15  C           1     -22.588  -3.781  -9.891  0.00  0.00     0.209 C 
BRANCH  15  16
HETATM   16  C           1     -21.786  -3.790 -11.186  0.00  0.00     0.200 C 
BRANCH  16  17
HETATM   17  O           1     -22.512  -4.461 -12.181  0.00  0.00    -0.398 OA
HETATM   18  H           1     -22.490  -3.917 -12.949  0.00  0.00     0.209 HD
ENDBRANCH  16  17
ENDBRANCH  15  16
BRANCH  15  19
HETATM   19  C           1     -24.060  -3.874 -10.210  0.00  0.00     0.198 C 
HETATM   20  O           1     -24.693  -4.918  -9.943  0.00  0.00    -0.646 OA
HETATM   21  O           1     -24.648  -2.906 -10.741  0.00  0.00    -0.646 OA
ENDBRANCH  15  19
ENDBRANCH   4  15
TORSDOF 9
ENDMDL
MODEL 4
REMARK VINA RESULT:      -5.8      9.522     11.170
REMARK  9 active torsions:
REMARK  status: ('A' for Active; 'I' for Inactive)
REMARK    1  A    between atoms: C_2  and  O_4 
REMARK    2  A    between atoms: C_2  and  C_3 
REMARK    3  A    between atoms: C_3  and  C_21 
REMARK    4  A    between atoms: C_3  and  N_20 
REMARK    5  A    between atoms: C_5  and  C_6 
REMARK    6  A    between atoms: C_5  and  C_11 
REMARK    7  A    between atoms: C_6  and  C_7 
REMARK    8  A    between atoms: C_6  and  N_15 
REMARK       I    between atoms: C_7  and  N_20 
REMARK    9  A    between atoms: C_11  and  C_18 
ROOT
HETATM    1  C           1     -35.087  -0.074 -13.467  0.00  0.00     0.249 C 
HETATM    2  H           1     -35.507  -1.983 -14.143  0.00  0.00     0.163 HD
HETATM    3  O           1     -34.962   1.085 -13.787  0.00  0.00    -0.271 OA
HETATM    4  N           1     -35.402  -1.014 -14.411  0.00  0.00    -0.343 N 
ENDROOT
BRANCH   1   5
HETATM    5  C           1     -34.894  -0.483 -12.028  0.00  0.00     0.275 C 
BRANCH   5   6
HETATM    6  C           1     -35.083  -1.989 -11.898  0.00  0.00     0.053 C 
BRANCH   6   7
HETATM    7  C           1     -33.796  -2.621 -11.387  0.00  0.00     0.115 C 
BRANCH   7   8
HETATM    8  C           1     -33.358  -3.709 -12.337  0.00  0.00     0.172 C 
HETATM    9  O           1     -32.563  -4.593 -11.950  0.00  0.00    -0.648 OA
HETATM   10  O           1     -33.791  -3.728 -13.509  0.00  0.00    -0.648 OA
ENDBRANCH   7   8
ENDBRANCH   6   7
ENDBRANCH   5   6
BRANCH   5  11
HETATM   11  N           1     -35.902   0.222 -11.170  0.00  0.00    -0.066 N 
HETATM   12  H           1     -36.042  -0.314 -10.284  0.00  0.00     0.275 HD
HETATM   13  H           1     -36.809   0.290 -11.684  0.00  0.00     0.275 HD
HETATM   14  H           1     -35.558   1.183 -10.946  0.00  0.00     0.275 HD
ENDBRANCH   5  11
ENDBRANCH   1   5
BRANCH   4  15
HETATM   15  C           1     -35.587  -0.619 -15.794  0.00  0.00     0.209 C 
BRANCH  15  16
HETATM   16  C           1     -35.063  -1.719 -16.708  0.00  0.00     0.200 C 
BRANCH  16  17
HETATM   17  O           1     -34.958  -2.917 -15.987  0.00  0.00    -0.398 OA
HETATM   18  H           1     -34.051  -3.168 -16.003  0.00  0.00     0.209 HD
ENDBRANCH  16  17
ENDBRANCH  15  16
BRANCH  15  19
HETATM   19  C           1     -37.055  -0.399 -16.062  0.00  0.00     0.198 C 
HETATM   20  O           1     -37.799  -1.373 -16.307  0.00  0.00    -0.646 OA
HETATM   21  O           1     -37.529   0.758 -16.039  0.00  0.00    -0.646 OA
ENDBRANCH  15  19
ENDBRANCH   4  15
TORSDOF 9
ENDMDL
MODEL 5
REMARK VINA RESULT:      -5.7      1.868      3.151
REMARK  9 active torsions:
REMARK  status: ('A' for Active; 'I' for Inactive)
REMARK    1  A    between atoms: C_2  and  O_4 
REMARK    2  A    between atoms: C_2  and  C_3 
REMARK    3  A    between atoms: C_3  and  C_21 
REMARK    4  A    between atoms: C_3  and  N_20 
REMARK    5  A    between atoms: C_5  and  C_6 
REMARK    6  A    between atoms: C_5  and  C_11 
REMARK    7  A    between atoms: C_6  and  C_7 
REMARK    8  A    between atoms: C_6  and  N_15 
REMARK       I    between atoms: C_7  and  N_20 
REMARK    9  A    between atoms: C_11  and  C_18 
ROOT
HETATM    1  C           1     -28.416  -6.304 -18.959  0.00  0.00     0.249 C 
HETATM    2  H           1     -27.607  -8.205 -19.056  0.00  0.00     0.163 HD
HETATM    3  O           1     -28.311  -5.162 -19.340  0.00  0.00    -0.271 OA
HETATM    4  N           1     -27.518  -7.250 -19.375  0.00  0.00    -0.343 N 
ENDROOT
BRANCH   1   5
HETATM    5  C           1     -29.539  -6.687 -18.026  0.00  0.00     0.275 C 
BRANCH   5   6
HETATM    6  C           1     -29.639  -5.663 -16.904  0.00  0.00     0.053 C 
BRANCH   6   7
HETATM    7  C           1     -31.035  -5.056 -16.892  0.00  0.00     0.115 C 
BRANCH   7   8
HETATM    8  C           1     -30.972  -3.637 -17.403  0.00  0.00     0.172 C 
HETATM    9  O           1     -32.004  -3.086 -17.843  0.00  0.00    -0.648 OA
HETATM   10  O           1     -29.889  -3.013 -17.385  0.00  0.00    -0.648 OA
ENDBRANCH   7   8
ENDBRANCH   6   7
ENDBRANCH   5   6
BRANCH   5  11
HETATM   11  N           1     -29.263  -8.041 -17.444  0.00  0.00    -0.066 N 
HETATM   12  H           1     -29.818  -8.163 -16.567  0.00  0.00     0.275 HD
HETATM   13  H           1     -28.244  -8.125 -17.227  0.00  0.00     0.275 HD
HETATM   14  H           1     -29.533  -8.779 -18.133  0.00  0.00     0.275 HD
ENDBRANCH   5  11
ENDBRANCH   1   5
BRANCH   4  15
HETATM   15  C           1     -26.439  -6.880 -20.271  0.00  0.00     0.209 C 
BRANCH  15  16
HETATM   16  C           1     -25.166  -6.659 -19.466  0.00  0.00     0.200 C 
BRANCH  16  17
HETATM   17  O           1     -24.516  -7.887 -19.271  0.00  0.00    -0.398 OA
HETATM   18  H           1     -24.014  -8.058 -20.049  0.00  0.00     0.209 HD
ENDBRANCH  16  17
ENDBRANCH  15  16
BRANCH  15  19
HETATM   19  C           1     -26.217  -7.988 -21.272  0.00  0.00     0.198 C 
HETATM   20  O           1     -27.119  -8.825 -21.488  0.00  0.00    -0.646 OA
HETATM   21  O           1     -25.130  -8.068 -21.885  0.00  0.00    -0.646 OA
ENDBRANCH  15  19
ENDBRANCH   4  15
TORSDOF 9
ENDMDL
MODEL 6
REMARK VINA RESULT:      -5.5      2.327      4.058
REMARK  9 active torsions:
REMARK  status: ('A' for Active; 'I' for Inactive)
REMARK    1  A    between atoms: C_2  and  O_4 
REMARK    2  A    between atoms: C_2  and  C_3 
REMARK    3  A    between atoms: C_3  and  C_21 
REMARK    4  A    between atoms: C_3  and  N_20 
REMARK    5  A    between atoms: C_5  and  C_6 
REMARK    6  A    between atoms: C_5  and  C_11 
REMARK    7  A    between atoms: C_6  and  C_7 
REMARK    8  A    between atoms: C_6  and  N_15 
REMARK       I    between atoms: C_7  and  N_20 
REMARK    9  A    between atoms: C_11  and  C_18 
ROOT
HETATM    1  C           1     -28.471  -6.035 -17.920  0.00  0.00     0.249 C 
HETATM    2  H           1     -27.526  -7.817 -17.459  0.00  0.00     0.163 HD
HETATM    3  O           1     -28.328  -4.842 -18.047  0.00  0.00    -0.271 OA
HETATM    4  N           1     -27.406  -6.818 -17.564  0.00  0.00    -0.343 N 
ENDROOT
BRANCH   1   5
HETATM    5  C           1     -29.824  -6.661 -18.153  0.00  0.00     0.275 C 
BRANCH   5   6
HETATM    6  C           1     -30.697  -6.459 -16.922  0.00  0.00     0.053 C 
BRANCH   6   7
HETATM    7  C           1     -32.050  -5.905 -17.343  0.00  0.00     0.115 C 
BRANCH   7   8
HETATM    8  C           1     -32.175  -4.474 -16.879  0.00  0.00     0.172 C 
HETATM    9  O           1     -31.369  -3.612 -17.289  0.00  0.00    -0.648 OA
HETATM   10  O           1     -33.087  -4.151 -16.086  0.00  0.00    -0.648 OA
ENDBRANCH   7   8
ENDBRANCH   6   7
ENDBRANCH   5   6
BRANCH   5  11
HETATM   11  N           1     -29.656  -8.129 -18.412  0.00  0.00    -0.066 N 
HETATM   12  H           1     -30.593  -8.591 -18.417  0.00  0.00     0.275 HD
HETATM   13  H           1     -29.064  -8.548 -17.661  0.00  0.00     0.275 HD
HETATM   14  H           1     -29.194  -8.269 -19.339  0.00  0.00     0.275 HD
ENDBRANCH   5  11
ENDBRANCH   1   5
BRANCH   4  15
HETATM   15  C           1     -26.106  -6.216 -17.340  0.00  0.00     0.209 C 
BRANCH  15  16
HETATM   16  C           1     -25.592  -6.619 -15.963  0.00  0.00     0.200 C 
BRANCH  16  17
HETATM   17  O           1     -24.661  -5.671 -15.516  0.00  0.00    -0.398 OA
HETATM   18  H           1     -24.197  -5.363 -16.275  0.00  0.00     0.209 HD
ENDBRANCH  16  17
ENDBRANCH  15  16
BRANCH  15  19
HETATM   19  C           1     -25.142  -6.694 -18.397  0.00  0.00     0.198 C 
HETATM   20  O           1     -23.967  -6.983 -18.087  0.00  0.00    -0.646 OA
HETATM   21  O           1     -25.518  -6.800 -19.585  0.00  0.00    -0.646 OA
ENDBRANCH  15  19
ENDBRANCH   4  15
TORSDOF 9
ENDMDL
MODEL 7
REMARK VINA RESULT:      -5.3     10.279     13.175
REMARK  9 active torsions:
REMARK  status: ('A' for Active; 'I' for Inactive)
REMARK    1  A    between atoms: C_2  and  O_4 
REMARK    2  A    between atoms: C_2  and  C_3 
REMARK    3  A    between atoms: C_3  and  C_21 
REMARK    4  A    between atoms: C_3  and  N_20 
REMARK    5  A    between atoms: C_5  and  C_6 
REMARK    6  A    between atoms: C_5  and  C_11 
REMARK    7  A    between atoms: C_6  and  C_7 
REMARK    8  A    between atoms: C_6  and  N_15 
REMARK       I    between atoms: C_7  and  N_20 
REMARK    9  A    between atoms: C_11  and  C_18 
ROOT
HETATM    1  C           1     -20.527  -4.767  -7.459  0.00  0.00     0.249 C 
HETATM    2  H           1     -22.230  -5.466  -6.514  0.00  0.00     0.163 HD
HETATM    3  O           1     -19.319  -4.740  -7.430  0.00  0.00    -0.271 OA
HETATM    4  N           1     -21.219  -5.442  -6.489  0.00  0.00    -0.343 N 
ENDROOT
BRANCH   1   5
HETATM    5  C           1     -21.272  -4.059  -8.564  0.00  0.00     0.275 C 
BRANCH   5   6
HETATM    6  C           1     -22.554  -4.818  -8.879  0.00  0.00     0.053 C 
BRANCH   6   7
HETATM    7  C           1     -23.699  -3.830  -9.056  0.00  0.00     0.115 C 
BRANCH   7   8
HETATM    8  C           1     -24.062  -3.736 -10.518  0.00  0.00     0.172 C 
HETATM    9  O           1     -25.134  -3.193 -10.862  0.00  0.00    -0.648 OA
HETATM   10  O           1     -23.289  -4.199 -11.386  0.00  0.00    -0.648 OA
ENDBRANCH   7   8
ENDBRANCH   6   7
ENDBRANCH   5   6
BRANCH   5  11
HETATM   11  N           1     -20.410  -4.003  -9.790  0.00  0.00    -0.066 N 
HETATM   12  H           1     -20.929  -4.412 -10.600  0.00  0.00     0.275 HD
HETATM   13  H           1     -19.535  -4.550  -9.624  0.00  0.00     0.275 HD
HETATM   14  H           1     -20.164  -3.009  -9.998  0.00  0.00     0.275 HD
ENDBRANCH   5  11
ENDBRANCH   1   5
BRANCH   4  15
HETATM   15  C           1     -20.502  -6.122  -5.428  0.00  0.00     0.209 C 
BRANCH  15  16
HETATM   16  C           1     -21.285  -5.996  -4.127  0.00  0.00     0.200 C 
BRANCH  16  17
HETATM   17  O           1     -22.651  -6.179  -4.383  0.00  0.00    -0.398 OA
HETATM   18  H           1     -22.756  -6.179  -5.319  0.00  0.00     0.209 HD
ENDBRANCH  16  17
ENDBRANCH  15  16
BRANCH  15  19
HETATM   19  C           1     -20.346  -7.581  -5.782  0.00  0.00     0.198 C 
HETATM   20  O           1     -19.209  -8.056  -5.985  0.00  0.00    -0.646 OA
HETATM   21  O           1     -21.355  -8.314  -5.872  0.00  0.00    -0.646 OA
ENDBRANCH  15  19
ENDBRANCH   4  15
TORSDOF 9
ENDMDL
MODEL 8
REMARK VINA RESULT:      -5.1      4.007      5.570
REMARK  9 active torsions:
REMARK  status: ('A' for Active; 'I' for Inactive)
REMARK    1  A    between atoms: C_2  and  O_4 
REMARK    2  A    between atoms: C_2  and  C_3 
REMARK    3  A    between atoms: C_3  and  C_21 
REMARK    4  A    between atoms: C_3  and  N_20 
REMARK    5  A    between atoms: C_5  and  C_6 
REMARK    6  A    between atoms: C_5  and  C_11 
REMARK    7  A    between atoms: C_6  and  C_7 
REMARK    8  A    between atoms: C_6  and  N_15 
REMARK       I    between atoms: C_7  and  N_20 
REMARK    9  A    between atoms: C_11  and  C_18 
ROOT
HETATM    1  C           1     -30.165  -5.502 -17.083  0.00  0.00     0.249 C 
HETATM    2  H           1     -28.439  -4.361 -17.044  0.00  0.00     0.163 HD
HETATM    3  O           1     -30.612  -6.618 -17.201  0.00  0.00    -0.271 OA
HETATM    4  N           1     -28.813  -5.295 -17.145  0.00  0.00    -0.343 N 
ENDROOT
BRANCH   1   5
HETATM    5  C           1     -31.098  -4.335 -16.865  0.00  0.00     0.275 C 
BRANCH   5   6
HETATM    6  C           1     -32.540  -4.814 -16.962  0.00  0.00     0.053 C 
BRANCH   6   7
HETATM    7  C           1     -33.479  -3.679 -16.578  0.00  0.00     0.115 C 
BRANCH   7   8
HETATM    8  C           1     -34.334  -4.106 -15.410  0.00  0.00     0.172 C 
HETATM    9  O           1     -35.065  -5.115 -15.506  0.00  0.00    -0.648 OA
HETATM   10  O           1     -34.310  -3.450 -14.345  0.00  0.00    -0.648 OA
ENDBRANCH   7   8
ENDBRANCH   6   7
ENDBRANCH   5   6
BRANCH   5  11
HETATM   11  N           1     -30.845  -3.293 -17.913  0.00  0.00    -0.066 N 
HETATM   12  H           1     -31.448  -3.483 -18.746  0.00  0.00     0.275 HD
HETATM   13  H           1     -29.840  -3.321 -18.197  0.00  0.00     0.275 HD
HETATM   14  H           1     -31.071  -2.349 -17.527  0.00  0.00     0.275 HD
ENDBRANCH   5  11
ENDBRANCH   1   5
BRANCH   4  15
HETATM   15  C           1     -27.917  -6.417 -17.354  0.00  0.00     0.209 C 
BRANCH  15  16
HETATM   16  C           1     -27.297  -6.317 -18.741  0.00  0.00     0.200 C 
BRANCH  16  17
HETATM   17  O           1     -25.969  -6.762 -18.692  0.00  0.00    -0.398 OA
HETATM   18  H           1     -25.582  -6.388 -17.919  0.00  0.00     0.209 HD
ENDBRANCH  16  17
ENDBRANCH  15  16
BRANCH  15  19
HETATM   19  C           1     -26.827  -6.390 -16.311  0.00  0.00     0.198 C 
HETATM   20  O           1     -26.050  -5.413 -16.244  0.00  0.00    -0.646 OA
HETATM   21  O           1     -26.700  -7.345 -15.514  0.00  0.00    -0.646 OA
ENDBRANCH  15  19
ENDBRANCH   4  15
TORSDOF 9
ENDMDL
MODEL 9
REMARK VINA RESULT:      -5.1     12.744     15.148
REMARK  9 active torsions:
REMARK  status: ('A' for Active; 'I' for Inactive)
REMARK    1  A    between atoms: C_2  and  O_4 
REMARK    2  A    between atoms: C_2  and  C_3 
REMARK    3  A    between atoms: C_3  and  C_21 
REMARK    4  A    between atoms: C_3  and  N_20 
REMARK    5  A    between atoms: C_5  and  C_6 
REMARK    6  A    between atoms: C_5  and  C_11 
REMARK    7  A    between atoms: C_6  and  C_7 
REMARK    8  A    between atoms: C_6  and  N_15 
REMARK       I    between atoms: C_7  and  N_20 
REMARK    9  A    between atoms: C_11  and  C_18 
ROOT
HETATM    1  C           1     -21.536  -7.151  -5.402  0.00  0.00     0.249 C 
HETATM    2  H           1     -22.030  -5.166  -5.092  0.00  0.00     0.163 HD
HETATM    3  O           1     -21.150  -7.960  -6.212  0.00  0.00    -0.271 OA
HETATM    4  N           1     -21.709  -5.843  -5.771  0.00  0.00    -0.343 N 
ENDROOT
BRANCH   1   5
HETATM    5  C           1     -21.825  -7.580  -3.985  0.00  0.00     0.275 C 
BRANCH   5   6
HETATM    6  C           1     -21.195  -6.590  -3.015  0.00  0.00     0.053 C 
BRANCH   6   7
HETATM    7  C           1     -22.214  -6.200  -1.953  0.00  0.00     0.115 C 
BRANCH   7   8
HETATM    8  C           1     -22.183  -7.210  -0.831  0.00  0.00     0.172 C 
HETATM    9  O           1     -21.161  -7.903  -0.642  0.00  0.00    -0.648 OA
HETATM   10  O           1     -23.181  -7.351  -0.090  0.00  0.00    -0.648 OA
ENDBRANCH   7   8
ENDBRANCH   6   7
ENDBRANCH   5   6
BRANCH   5  11
HETATM   11  N           1     -21.247  -8.945  -3.750  0.00  0.00    -0.066 N 
HETATM   12  H           1     -20.208  -8.874  -3.670  0.00  0.00     0.275 HD
HETATM   13  H           1     -21.495  -9.569  -4.550  0.00  0.00     0.275 HD
HETATM   14  H           1     -21.639  -9.341  -2.866  0.00  0.00     0.275 HD
ENDBRANCH   5  11
ENDBRANCH   1   5
BRANCH   4  15
HETATM   15  C           1     -21.431  -5.431  -7.133  0.00  0.00     0.209 C 
BRANCH  15  16
HETATM   16  C           1     -22.477  -4.418  -7.578  0.00  0.00     0.200 C 
BRANCH  16  17
HETATM   17  O           1     -21.980  -3.120  -7.392  0.00  0.00    -0.398 OA
HETATM   18  H           1     -21.084  -3.126  -7.682  0.00  0.00     0.209 HD
ENDBRANCH  16  17
ENDBRANCH  15  16
BRANCH  15  19
HETATM   19  C           1     -20.061  -4.802  -7.197  0.00  0.00     0.198 C 
HETATM   20  O           1     -19.543  -4.545  -8.305  0.00  0.00    -0.646 OA
HETATM   21  O           1     -19.443  -4.539  -6.143  0.00  0.00    -0.646 OA
ENDBRANCH  15  19
ENDBRANCH   4  15
TORSDOF 9
ENDMDL
