MODEL 1
REMARK VINA RESULT:      -5.4      0.000      0.000
REMARK  8 active torsions:
REMARK  status: ('A' for Active; 'I' for Inactive)
REMARK    1  A    between atoms: Se_2  and  C_14 
REMARK    2  A    between atoms: N_3  and  C_7 
REMARK       I    between atoms: N_3  and  C_5 
REMARK    3  A    between atoms: N_4  and  C_19 
REMARK    4  A    between atoms: C_5  and  C_19 
REMARK    5  A    between atoms: C_7  and  C_14 
REMARK    6  A    between atoms: C_7  and  C_10 
REMARK    7  A    between atoms: O_16  and  C_18 
REMARK    8  A    between atoms: C_18  and  C_19 
ROOT
HETATM    1  H           1     -35.346  -2.033 -13.738  0.00  0.00     0.163 HD
HETATM    2  N           1     -34.879  -1.694 -12.907  0.00  0.00    -0.345 N 
HETATM    3  C           1     -34.114  -2.547 -12.156  0.00  0.00     0.251 C 
HETATM    4  O           1     -33.556  -2.142 -11.165  0.00  0.00    -0.271 OA
ENDROOT
BRANCH   3   5
HETATM    5  C           1     -33.970  -3.991 -12.568  0.00  0.00     0.302 C 
BRANCH   5   6
HETATM    6  N           1     -32.559  -4.440 -12.328  0.00  0.00    -0.064 N 
HETATM    7  H           1     -32.524  -5.484 -12.311  0.00  0.00     0.275 HD
HETATM    8  H           1     -31.945  -4.084 -13.095  0.00  0.00     0.275 HD
HETATM    9  H           1     -32.225  -4.065 -11.411  0.00  0.00     0.275 HD
ENDBRANCH   5   6
BRANCH   5  10
HETATM   10  C           1     -34.922  -4.851 -11.747  0.00  0.00     0.153 C 
HETATM   11  C           1     -34.125  -5.676 -10.745  0.00  0.00     0.042 C 
BRANCH  10  12
HETATM   12  O           1     -35.824  -4.026 -11.061  0.00  0.00    -0.393 OA
HETATM   13  H           1     -35.475  -3.151 -11.096  0.00  0.00     0.210 HD
ENDBRANCH  10  12
ENDBRANCH   5  10
ENDBRANCH   3   5
BRANCH   2  14
HETATM   14  C           1     -35.018  -0.306 -12.512  0.00  0.00     0.185 C 
BRANCH  14  15
HETATM   15  C           1     -35.062   0.573 -13.755  0.00  0.00     0.039 C 
BRANCH  15  16
HETATM   16 Se           1     -35.650  -0.488 -15.280  0.00  0.00     0.000 Se
HETATM   17  H           1     -36.314   0.639 -15.956  0.00  0.00     0.000 HD
ENDBRANCH  15  16
ENDBRANCH  14  15
BRANCH  14  18
HETATM   18  C           1     -36.295  -0.133 -11.727  0.00  0.00     0.196 C 
HETATM   19  O           1     -36.285   0.497 -10.647  0.00  0.00    -0.646 OA
HETATM   20  O           1     -37.363  -0.619 -12.157  0.00  0.00    -0.646 OA
ENDBRANCH  14  18
ENDBRANCH   2  14
TORSDOF 8
ENDMDL
MODEL 2
REMARK VINA RESULT:      -5.1      2.561      4.739
REMARK  8 active torsions:
REMARK  status: ('A' for Active; 'I' for Inactive)
REMARK    1  A    between atoms: Se_2  and  C_14 
REMARK    2  A    between atoms: N_3  and  C_7 
REMARK       I    between atoms: N_3  and  C_5 
REMARK    3  A    between atoms: N_4  and  C_19 
REMARK    4  A    between atoms: C_5  and  C_19 
REMARK    5  A    between atoms: C_7  and  C_14 
REMARK    6  A    between atoms: C_7  and  C_10 
REMARK    7  A    between atoms: O_16  and  C_18 
REMARK    8  A    between atoms: C_18  and  C_19 
ROOT
HETATM    1  H           1     -33.977  -1.243 -13.702  0.00  0.00     0.163 HD
HETATM    2  N           1     -34.853  -1.433 -13.233  0.00  0.00    -0.345 N 
HETATM    3  C           1     -35.980  -0.737 -13.580  0.00  0.00     0.251 C 
HETATM    4  O           1     -37.026  -0.965 -13.020  0.00  0.00    -0.271 OA
ENDROOT
BRANCH   3   5
HETATM    5  C           1     -35.915   0.314 -14.661  0.00  0.00     0.302 C 
BRANCH   5   6
HETATM    6  N           1     -34.482   0.670 -14.925  0.00  0.00    -0.064 N 
HETATM    7  H           1     -34.218   0.362 -15.888  0.00  0.00     0.275 HD
HETATM    8  H           1     -34.361   1.705 -14.846  0.00  0.00     0.275 HD
HETATM    9  H           1     -33.870   0.193 -14.226  0.00  0.00     0.275 HD
ENDBRANCH   5   6
BRANCH   5  10
HETATM   10  C           1     -36.546  -0.229 -15.936  0.00  0.00     0.153 C 
HETATM   11  C           1     -35.587  -1.209 -16.599  0.00  0.00     0.042 C 
BRANCH  10  12
HETATM   12  O           1     -37.743  -0.888 -15.622  0.00  0.00    -0.393 OA
HETATM   13  H           1     -37.995  -0.601 -14.760  0.00  0.00     0.210 HD
ENDBRANCH  10  12
ENDBRANCH   5  10
ENDBRANCH   3   5
BRANCH   2  14
HETATM   14  C           1     -34.915  -2.443 -12.194  0.00  0.00     0.185 C 
BRANCH  14  15
HETATM   15  C           1     -34.017  -3.614 -12.572  0.00  0.00     0.039 C 
BRANCH  15  16
HETATM   16 Se           1     -34.520  -5.181 -11.529  0.00  0.00     0.000 Se
HETATM   17  H           1     -35.966  -4.990 -11.722  0.00  0.00     0.000 HD
ENDBRANCH  15  16
ENDBRANCH  14  15
BRANCH  14  18
HETATM   18  C           1     -34.447  -1.849 -10.889  0.00  0.00     0.196 C 
HETATM   19  O           1     -33.231  -1.861 -10.597  0.00  0.00    -0.646 OA
HETATM   20  O           1     -35.274  -1.345 -10.099  0.00  0.00    -0.646 OA
ENDBRANCH  14  18
ENDBRANCH   2  14
TORSDOF 8
ENDMDL
MODEL 3
REMARK VINA RESULT:      -5.1     10.533     11.809
REMARK  8 active torsions:
REMARK  status: ('A' for Active; 'I' for Inactive)
REMARK    1  A    between atoms: Se_2  and  C_14 
REMARK    2  A    between atoms: N_3  and  C_7 
REMARK       I    between atoms: N_3  and  C_5 
REMARK    3  A    between atoms: N_4  and  C_19 
REMARK    4  A    between atoms: C_5  and  C_19 
REMARK    5  A    between atoms: C_7  and  C_14 
REMARK    6  A    between atoms: C_7  and  C_10 
REMARK    7  A    between atoms: O_16  and  C_18 
REMARK    8  A    between atoms: C_18  and  C_19 
ROOT
HETATM    1  H           1     -26.240  -6.638 -17.579  0.00  0.00     0.163 HD
HETATM    2  N           1     -26.843  -6.371 -18.347  0.00  0.00    -0.345 N 
HETATM    3  C           1     -26.363  -6.378 -19.629  0.00  0.00     0.251 C 
HETATM    4  O           1     -27.084  -6.060 -20.544  0.00  0.00    -0.271 OA
ENDROOT
BRANCH   3   5
HETATM    5  C           1     -24.935  -6.783 -19.897  0.00  0.00     0.302 C 
BRANCH   5   6
HETATM    6  N           1     -24.418  -7.586 -18.741  0.00  0.00    -0.064 N 
HETATM    7  H           1     -24.274  -8.577 -19.042  0.00  0.00     0.275 HD
HETATM    8  H           1     -23.508  -7.186 -18.418  0.00  0.00     0.275 HD
HETATM    9  H           1     -25.110  -7.556 -17.959  0.00  0.00     0.275 HD
ENDBRANCH   5   6
BRANCH   5  10
HETATM   10  C           1     -24.874  -7.623 -21.166  0.00  0.00     0.153 C 
HETATM   11  C           1     -23.524  -8.323 -21.247  0.00  0.00     0.042 C 
BRANCH  10  12
HETATM   12  O           1     -25.897  -8.582 -21.141  0.00  0.00    -0.393 OA
HETATM   13  H           1     -25.502  -9.409 -21.361  0.00  0.00     0.210 HD
ENDBRANCH  10  12
ENDBRANCH   5  10
ENDBRANCH   3   5
BRANCH   2  14
HETATM   14  C           1     -28.216  -5.983 -18.088  0.00  0.00     0.185 C 
BRANCH  14  15
HETATM   15  C           1     -28.876  -7.021 -17.190  0.00  0.00     0.039 C 
BRANCH  15  16
HETATM   16 Se           1     -30.803  -7.001 -17.481  0.00  0.00     0.000 Se
HETATM   17  H           1     -31.050  -5.888 -16.551  0.00  0.00     0.000 HD
ENDBRANCH  15  16
ENDBRANCH  14  15
BRANCH  14  18
HETATM   18  C           1     -28.236  -4.639 -17.403  0.00  0.00     0.196 C 
HETATM   19  O           1     -27.469  -4.416 -16.441  0.00  0.00    -0.646 OA
HETATM   20  O           1     -29.019  -3.748 -17.797  0.00  0.00    -0.646 OA
ENDBRANCH  14  18
ENDBRANCH   2  14
TORSDOF 8
ENDMDL
MODEL 4
REMARK VINA RESULT:      -5.1     12.549     13.875
REMARK  8 active torsions:
REMARK  status: ('A' for Active; 'I' for Inactive)
REMARK    1  A    between atoms: Se_2  and  C_14 
REMARK    2  A    between atoms: N_3  and  C_7 
REMARK       I    between atoms: N_3  and  C_5 
REMARK    3  A    between atoms: N_4  and  C_19 
REMARK    4  A    between atoms: C_5  and  C_19 
REMARK    5  A    between atoms: C_7  and  C_14 
REMARK    6  A    between atoms: C_7  and  C_10 
REMARK    7  A    between atoms: O_16  and  C_18 
REMARK    8  A    between atoms: C_18  and  C_19 
ROOT
HETATM    1  H           1     -22.369  -5.689  -9.517  0.00  0.00     0.163 HD
HETATM    2  N           1     -22.358  -4.787  -9.058  0.00  0.00    -0.345 N 
HETATM    3  C           1     -21.842  -4.668  -7.795  0.00  0.00     0.251 C 
HETATM    4  O           1     -21.828  -3.592  -7.248  0.00  0.00    -0.271 OA
ENDROOT
BRANCH   3   5
HETATM    5  C           1     -21.290  -5.881  -7.088  0.00  0.00     0.302 C 
BRANCH   5   6
HETATM    6  N           1     -19.842  -6.050  -7.443  0.00  0.00    -0.064 N 
HETATM    7  H           1     -19.387  -5.111  -7.505  0.00  0.00     0.275 HD
HETATM    8  H           1     -19.367  -6.618  -6.706  0.00  0.00     0.275 HD
HETATM    9  H           1     -19.763  -6.538  -8.364  0.00  0.00     0.275 HD
ENDBRANCH   5   6
BRANCH   5  10
HETATM   10  C           1     -21.424  -5.697  -5.582  0.00  0.00     0.153 C 
HETATM   11  C           1     -21.371  -7.057  -4.898  0.00  0.00     0.042 C 
BRANCH  10  12
HETATM   12  O           1     -20.373  -4.897  -5.113  0.00  0.00    -0.393 OA
HETATM   13  H           1     -20.763  -4.126  -4.737  0.00  0.00     0.210 HD
ENDBRANCH  10  12
ENDBRANCH   5  10
ENDBRANCH   3   5
BRANCH   2  14
HETATM   14  C           1     -22.889  -3.622  -9.738  0.00  0.00     0.185 C 
BRANCH  14  15
HETATM   15  C           1     -22.044  -3.325 -10.970  0.00  0.00     0.039 C 
BRANCH  15  16
HETATM   16 Se           1     -20.373  -4.324 -10.868  0.00  0.00     0.000 Se
HETATM   17  H           1     -20.562  -4.722  -9.464  0.00  0.00     0.000 HD
ENDBRANCH  15  16
ENDBRANCH  14  15
BRANCH  14  18
HETATM   18  C           1     -24.313  -3.891 -10.157  0.00  0.00     0.196 C 
HETATM   19  O           1     -24.910  -3.080 -10.898  0.00  0.00    -0.646 OA
HETATM   20  O           1     -24.896  -4.924  -9.764  0.00  0.00    -0.646 OA
ENDBRANCH  14  18
ENDBRANCH   2  14
TORSDOF 8
ENDMDL
MODEL 5
REMARK VINA RESULT:      -4.5      3.501      4.879
REMARK  8 active torsions:
REMARK  status: ('A' for Active; 'I' for Inactive)
REMARK    1  A    between atoms: Se_2  and  C_14 
REMARK    2  A    between atoms: N_3  and  C_7 
REMARK       I    between atoms: N_3  and  C_5 
REMARK    3  A    between atoms: N_4  and  C_19 
REMARK    4  A    between atoms: C_5  and  C_19 
REMARK    5  A    between atoms: C_7  and  C_14 
REMARK    6  A    between atoms: C_7  and  C_10 
REMARK    7  A    between atoms: O_16  and  C_18 
REMARK    8  A    between atoms: C_18  and  C_19 
ROOT
HETATM    1  H           1     -37.815  -0.709 -12.606  0.00  0.00     0.163 HD
HETATM    2  N           1     -36.932  -0.254 -12.411  0.00  0.00    -0.345 N 
HETATM    3  C           1     -36.191   0.272 -13.435  0.00  0.00     0.251 C 
HETATM    4  O           1     -35.139   0.815 -13.202  0.00  0.00    -0.271 OA
ENDROOT
BRANCH   3   5
HETATM    5  C           1     -36.692   0.173 -14.855  0.00  0.00     0.302 C 
BRANCH   5   6
HETATM    6  N           1     -36.126   1.303 -15.663  0.00  0.00    -0.064 N 
HETATM    7  H           1     -35.838   2.079 -15.025  0.00  0.00     0.275 HD
HETATM    8  H           1     -35.294   0.967 -16.198  0.00  0.00     0.275 HD
HETATM    9  H           1     -36.851   1.652 -16.330  0.00  0.00     0.275 HD
ENDBRANCH   5   6
BRANCH   5  10
HETATM   10  C           1     -36.249  -1.153 -15.459  0.00  0.00     0.153 C 
HETATM   11  C           1     -35.754  -0.923 -16.881  0.00  0.00     0.042 C 
BRANCH  10  12
HETATM   12  O           1     -35.212  -1.696 -14.686  0.00  0.00    -0.393 OA
HETATM   13  H           1     -34.973  -2.515 -15.086  0.00  0.00     0.210 HD
ENDBRANCH  10  12
ENDBRANCH   5  10
ENDBRANCH   3   5
BRANCH   2  14
HETATM   14  C           1     -36.452  -0.160 -11.046  0.00  0.00     0.185 C 
BRANCH  14  15
HETATM   15  C           1     -37.619   0.152 -10.118  0.00  0.00     0.039 C 
BRANCH  15  16
HETATM   16 Se           1     -36.963   0.358  -8.294  0.00  0.00     0.000 Se
HETATM   17  H           1     -35.873   1.273  -8.666  0.00  0.00     0.000 HD
ENDBRANCH  15  16
ENDBRANCH  14  15
BRANCH  14  18
HETATM   18  C           1     -35.825  -1.472 -10.643  0.00  0.00     0.196 C 
HETATM   19  O           1     -36.507  -2.520 -10.652  0.00  0.00    -0.646 OA
HETATM   20  O           1     -34.624  -1.512 -10.300  0.00  0.00    -0.646 OA
ENDBRANCH  14  18
ENDBRANCH   2  14
TORSDOF 8
ENDMDL
MODEL 6
REMARK VINA RESULT:      -4.4     25.212     26.301
REMARK  8 active torsions:
REMARK  status: ('A' for Active; 'I' for Inactive)
REMARK    1  A    between atoms: Se_2  and  C_14 
REMARK    2  A    between atoms: N_3  and  C_7 
REMARK       I    between atoms: N_3  and  C_5 
REMARK    3  A    between atoms: N_4  and  C_19 
REMARK    4  A    between atoms: C_5  and  C_19 
REMARK    5  A    between atoms: C_7  and  C_14 
REMARK    6  A    between atoms: C_7  and  C_10 
REMARK    7  A    between atoms: O_16  and  C_18 
REMARK    8  A    between atoms: C_18  and  C_19 
ROOT
HETATM    1  H           1     -12.988   7.719 -19.261  0.00  0.00     0.163 HD
HETATM    2  N           1     -12.435   7.727 -20.108  0.00  0.00    -0.345 N 
HETATM    3  C           1     -12.343   6.599 -20.877  0.00  0.00     0.251 C 
HETATM    4  O           1     -11.684   6.610 -21.889  0.00  0.00    -0.271 OA
ENDROOT
BRANCH   3   5
HETATM    5  C           1     -13.067   5.341 -20.461  0.00  0.00     0.302 C 
BRANCH   5   6
HETATM    6  N           1     -13.354   4.506 -21.674  0.00  0.00    -0.064 N 
HETATM    7  H           1     -13.896   5.072 -22.366  0.00  0.00     0.275 HD
HETATM    8  H           1     -12.453   4.199 -22.106  0.00  0.00     0.275 HD
HETATM    9  H           1     -13.911   3.668 -21.395  0.00  0.00     0.275 HD
ENDBRANCH   5   6
BRANCH   5  10
HETATM   10  C           1     -12.195   4.550 -19.496  0.00  0.00     0.153 C 
HETATM   11  C           1     -11.444   3.468 -20.260  0.00  0.00     0.042 C 
BRANCH  10  12
HETATM   12  O           1     -11.276   5.412 -18.881  0.00  0.00    -0.393 OA
HETATM   13  H           1     -11.420   6.269 -19.244  0.00  0.00     0.210 HD
ENDBRANCH  10  12
ENDBRANCH   5  10
ENDBRANCH   3   5
BRANCH   2  14
HETATM   14  C           1     -11.740   8.936 -20.507  0.00  0.00     0.185 C 
BRANCH  14  15
HETATM   15  C           1     -12.600  10.148 -20.175  0.00  0.00     0.039 C 
BRANCH  15  16
HETATM   16 Se           1     -13.485   9.868 -18.461  0.00  0.00     0.000 Se
HETATM   17  H           1     -14.388   8.822 -18.967  0.00  0.00     0.000 HD
ENDBRANCH  15  16
ENDBRANCH  14  15
BRANCH  14  18
HETATM   18  C           1     -10.429   9.029 -19.764  0.00  0.00     0.196 C 
HETATM   19  O           1     -10.267   8.393 -18.700  0.00  0.00    -0.646 OA
HETATM   20  O           1      -9.506   9.742 -20.213  0.00  0.00    -0.646 OA
ENDBRANCH  14  18
ENDBRANCH   2  14
TORSDOF 8
ENDMDL
MODEL 7
REMARK VINA RESULT:      -4.3     14.587     16.375
REMARK  8 active torsions:
REMARK  status: ('A' for Active; 'I' for Inactive)
REMARK    1  A    between atoms: Se_2  and  C_14 
REMARK    2  A    between atoms: N_3  and  C_7 
REMARK       I    between atoms: N_3  and  C_5 
REMARK    3  A    between atoms: N_4  and  C_19 
REMARK    4  A    between atoms: C_5  and  C_19 
REMARK    5  A    between atoms: C_7  and  C_14 
REMARK    6  A    between atoms: C_7  and  C_10 
REMARK    7  A    between atoms: O_16  and  C_18 
REMARK    8  A    between atoms: C_18  and  C_19 
ROOT
HETATM    1  H           1     -20.795  -4.898  -4.388  0.00  0.00     0.163 HD
HETATM    2  N           1     -20.984  -5.714  -4.957  0.00  0.00    -0.345 N 
HETATM    3  C           1     -20.924  -5.625  -6.322  0.00  0.00     0.251 C 
HETATM    4  O           1     -21.149  -6.599  -7.000  0.00  0.00    -0.271 OA
ENDROOT
BRANCH   3   5
HETATM    5  C           1     -20.577  -4.312  -6.978  0.00  0.00     0.302 C 
BRANCH   5   6
HETATM    6  N           1     -19.514  -4.535  -8.012  0.00  0.00    -0.064 N 
HETATM    7  H           1     -19.718  -3.953  -8.855  0.00  0.00     0.275 HD
HETATM    8  H           1     -18.584  -4.263  -7.619  0.00  0.00     0.275 HD
HETATM    9  H           1     -19.496  -5.545  -8.281  0.00  0.00     0.275 HD
ENDBRANCH   5   6
BRANCH   5  10
HETATM   10  C           1     -21.818  -3.734  -7.646  0.00  0.00     0.153 C 
HETATM   11  C           1     -21.768  -4.016  -9.141  0.00  0.00     0.042 C 
BRANCH  10  12
HETATM   12  O           1     -22.964  -4.327  -7.096  0.00  0.00    -0.393 OA
HETATM   13  H           1     -23.398  -3.663  -6.587  0.00  0.00     0.210 HD
ENDBRANCH  10  12
ENDBRANCH   5  10
ENDBRANCH   3   5
BRANCH   2  14
HETATM   14  C           1     -21.317  -6.976  -4.325  0.00  0.00     0.185 C 
BRANCH  14  15
HETATM   15  C           1     -20.144  -7.937  -4.464  0.00  0.00     0.039 C 
BRANCH  15  16
HETATM   16 Se           1     -20.802  -9.692  -5.001  0.00  0.00     0.000 Se
HETATM   17  H           1     -20.871 -10.215  -3.627  0.00  0.00     0.000 HD
ENDBRANCH  15  16
ENDBRANCH  14  15
BRANCH  14  18
HETATM   18  C           1     -21.608  -6.744  -2.863  0.00  0.00     0.196 C 
HETATM   19  O           1     -22.478  -5.912  -2.523  0.00  0.00    -0.646 OA
HETATM   20  O           1     -20.980  -7.382  -1.992  0.00  0.00    -0.646 OA
ENDBRANCH  14  18
ENDBRANCH   2  14
TORSDOF 8
ENDMDL
MODEL 8
REMARK VINA RESULT:      -4.3     24.753     25.957
REMARK  8 active torsions:
REMARK  status: ('A' for Active; 'I' for Inactive)
REMARK    1  A    between atoms: Se_2  and  C_14 
REMARK    2  A    between atoms: N_3  and  C_7 
REMARK       I    between atoms: N_3  and  C_5 
REMARK    3  A    between atoms: N_4  and  C_19 
REMARK    4  A    between atoms: C_5  and  C_19 
REMARK    5  A    between atoms: C_7  and  C_14 
REMARK    6  A    between atoms: C_7  and  C_10 
REMARK    7  A    between atoms: O_16  and  C_18 
REMARK    8  A    between atoms: C_18  and  C_19 
ROOT
HETATM    1  H           1     -12.131   4.960 -19.366  0.00  0.00     0.163 HD
HETATM    2  N           1     -12.190   5.253 -20.333  0.00  0.00    -0.345 N 
HETATM    3  C           1     -11.325   6.199 -20.816  0.00  0.00     0.251 C 
HETATM    4  O           1     -11.396   6.547 -21.970  0.00  0.00    -0.271 OA
ENDROOT
BRANCH   3   5
HETATM    5  C           1     -10.285   6.804 -19.906  0.00  0.00     0.302 C 
BRANCH   5   6
HETATM    6  N           1      -9.027   7.054 -20.684  0.00  0.00    -0.064 N 
HETATM    7  H           1      -9.158   6.736 -21.671  0.00  0.00     0.275 HD
HETATM    8  H           1      -8.808   8.076 -20.674  0.00  0.00     0.275 HD
HETATM    9  H           1      -8.237   6.524 -20.249  0.00  0.00     0.275 HD
ENDBRANCH   5   6
BRANCH   5  10
HETATM   10  C           1     -10.804   8.121 -19.346  0.00  0.00     0.153 C 
HETATM   11  C           1     -10.205   9.279 -20.133  0.00  0.00     0.042 C 
BRANCH  10  12
HETATM   12  O           1     -12.202   8.156 -19.453  0.00  0.00    -0.393 OA
HETATM   13  H           1     -12.430   9.011 -19.779  0.00  0.00     0.210 HD
ENDBRANCH  10  12
ENDBRANCH   5  10
ENDBRANCH   3   5
BRANCH   2  14
HETATM   14  C           1     -13.191   4.671 -21.207  0.00  0.00     0.185 C 
BRANCH  14  15
HETATM   15  C           1     -13.117   3.152 -21.121  0.00  0.00     0.039 C 
BRANCH  15  16
HETATM   16 Se           1     -11.277   2.610 -20.776  0.00  0.00     0.000 Se
HETATM   17  H           1     -11.299   1.502 -21.745  0.00  0.00     0.000 HD
ENDBRANCH  15  16
ENDBRANCH  14  15
BRANCH  14  18
HETATM   18  C           1     -14.561   5.134 -20.778  0.00  0.00     0.196 C 
HETATM   19  O           1     -14.808   5.318 -19.566  0.00  0.00    -0.646 OA
HETATM   20  O           1     -15.450   5.335 -21.634  0.00  0.00    -0.646 OA
ENDBRANCH  14  18
ENDBRANCH   2  14
TORSDOF 8
ENDMDL
MODEL 9
REMARK VINA RESULT:      -4.3      2.639      4.894
REMARK  8 active torsions:
REMARK  status: ('A' for Active; 'I' for Inactive)
REMARK    1  A    between atoms: Se_2  and  C_14 
REMARK    2  A    between atoms: N_3  and  C_7 
REMARK       I    between atoms: N_3  and  C_5 
REMARK    3  A    between atoms: N_4  and  C_19 
REMARK    4  A    between atoms: C_5  and  C_19 
REMARK    5  A    between atoms: C_7  and  C_14 
REMARK    6  A    between atoms: C_7  and  C_10 
REMARK    7  A    between atoms: O_16  and  C_18 
REMARK    8  A    between atoms: C_18  and  C_19 
ROOT
HETATM    1  H           1     -35.451  -2.065 -13.869  0.00  0.00     0.163 HD
HETATM    2  N           1     -34.870  -2.227 -13.056  0.00  0.00    -0.345 N 
HETATM    3  C           1     -34.703  -1.236 -12.126  0.00  0.00     0.251 C 
HETATM    4  O           1     -34.011  -1.430 -11.156  0.00  0.00    -0.271 OA
ENDROOT
BRANCH   3   5
HETATM    5  C           1     -35.384   0.097 -12.313  0.00  0.00     0.302 C 
BRANCH   5   6
HETATM    6  N           1     -35.168   0.575 -13.719  0.00  0.00    -0.064 N 
HETATM    7  H           1     -34.453  -0.027 -14.186  0.00  0.00     0.275 HD
HETATM    8  H           1     -36.068   0.518 -14.248  0.00  0.00     0.275 HD
HETATM    9  H           1     -34.835   1.565 -13.703  0.00  0.00     0.275 HD
ENDBRANCH   5   6
BRANCH   5  10
HETATM   10  C           1     -36.877  -0.053 -12.053  0.00  0.00     0.153 C 
HETATM   11  C           1     -37.622  -0.094 -13.380  0.00  0.00     0.042 C 
BRANCH  10  12
HETATM   12  O           1     -37.111  -1.243 -11.349  0.00  0.00    -0.393 OA
HETATM   13  H           1     -37.960  -1.161 -10.948  0.00  0.00     0.210 HD
ENDBRANCH  10  12
ENDBRANCH   5  10
ENDBRANCH   3   5
BRANCH   2  14
HETATM   14  C           1     -34.216  -3.508 -12.877  0.00  0.00     0.185 C 
BRANCH  14  15
HETATM   15  C           1     -34.923  -4.289 -11.777  0.00  0.00     0.039 C 
BRANCH  15  16
HETATM   16 Se           1     -33.704  -5.616 -11.034  0.00  0.00     0.000 Se
HETATM   17  H           1     -33.138  -5.996 -12.338  0.00  0.00     0.000 HD
ENDBRANCH  15  16
ENDBRANCH  14  15
BRANCH  14  18
HETATM   18  C           1     -34.278  -4.288 -14.168  0.00  0.00     0.196 C 
HETATM   19  O           1     -33.566  -3.949 -15.138  0.00  0.00    -0.646 OA
HETATM   20  O           1     -35.041  -5.273 -14.267  0.00  0.00    -0.646 OA
ENDBRANCH  14  18
ENDBRANCH   2  14
TORSDOF 8
ENDMDL
