MODEL 1
REMARK VINA RESULT:      -6.9      0.000      0.000
REMARK  10 active torsions:
REMARK  status: ('A' for Active; 'I' for Inactive)
REMARK    1  A    between atoms: C_1  and  C_3 
REMARK    2  A    between atoms: C_1  and  C_2 
REMARK    3  A    between atoms: C_1  and  N_6 
REMARK    4  A    between atoms: C_2  and  C_19 
REMARK       I    between atoms: C_3  and  N_18 
REMARK    5  A    between atoms: N_7  and  C_22 
REMARK    6  A    between atoms: C_8  and  C_20 
REMARK    7  A    between atoms: C_8  and  C_12 
REMARK    8  A    between atoms: C_8  and  N_18 
REMARK    9  A    between atoms: C_12  and  C_23 
REMARK   10  A    between atoms: C_19  and  C_22 
ROOT
HETATM    1  C           1     -34.030  -3.051 -11.139  0.00  0.00     0.249 C 
HETATM    2  H           1     -34.619  -1.830  -9.575  0.00  0.00     0.163 HD
HETATM    3  N           1     -34.613  -1.946 -10.581  0.00  0.00    -0.344 N 
HETATM    4  O           1     -32.860  -3.031 -11.439  0.00  0.00    -0.271 OA
ENDROOT
BRANCH   1   5
HETATM    5  C           1     -34.849  -4.296 -11.381  0.00  0.00     0.274 C 
BRANCH   5   6
HETATM    6  C           1     -34.610  -5.288 -10.250  0.00  0.00     0.044 C 
BRANCH   6   7
HETATM    7  C           1     -33.986  -6.558 -10.812  0.00  0.00     0.033 C 
BRANCH   7   8
HETATM    8  C           1     -34.611  -7.773 -10.140  0.00  0.00     0.620 C 
BRANCH   8   9
HETATM    9  N           1     -33.641  -8.917 -10.168  0.00  0.00    -0.077 N 
HETATM   10  H           1     -34.065  -9.721 -10.683  0.00  0.00     0.274 HD
HETATM   11  H           1     -33.418  -9.209  -9.190  0.00  0.00     0.274 HD
HETATM   12  H           1     -32.764  -8.617 -10.651  0.00  0.00     0.274 HD
ENDBRANCH   8   9
ENDBRANCH   7   8
ENDBRANCH   6   7
ENDBRANCH   5   6
BRANCH   5  13
HETATM   13  N           1     -34.443  -4.917 -12.684  0.00  0.00    -0.067 N 
HETATM   14  H           1     -33.413  -5.089 -12.683  0.00  0.00     0.275 HD
HETATM   15  H           1     -34.947  -5.824 -12.810  0.00  0.00     0.275 HD
HETATM   16  H           1     -34.688  -4.271 -13.468  0.00  0.00     0.275 HD
ENDBRANCH   5  13
ENDBRANCH   1   5
BRANCH   3  17
HETATM   17  C           1     -35.222  -0.940 -11.430  0.00  0.00     0.191 C 
BRANCH  17  18
HETATM   18  C           1     -36.527  -0.491 -10.820  0.00  0.00     0.197 C 
HETATM   19  O           1     -36.584   0.585 -10.187  0.00  0.00    -0.646 OA
HETATM   20  O           1     -37.553  -1.196 -10.948  0.00  0.00    -0.646 OA
ENDBRANCH  17  18
BRANCH  17  21
HETATM   21  C           1     -35.483  -1.532 -12.809  0.00  0.00     0.094 C 
BRANCH  21  22
HETATM   22  C           1     -35.679  -0.425 -13.797  0.00  0.00     0.034 A 
HETATM   23  C           1     -36.876  -0.116 -14.399  0.00  0.00     0.212 A 
HETATM   24  N           1     -36.599   0.946 -15.215  0.00  0.00    -0.072 N 
HETATM   25  C           1     -35.271   1.233 -15.079  0.00  0.00     0.277 A 
HETATM   26  H           1     -37.282   1.448 -15.834  0.00  0.00     0.272 HD
HETATM   27  N           1     -34.689   0.420 -14.228  0.00  0.00    -0.349 N 
ATOM     28  HN          1     -33.708   0.418 -13.948  1.00  0.00     0.166 HD
ENDBRANCH  21  22
ENDBRANCH  17  21
ENDBRANCH   3  17
TORSDOF 10
ENDMDL
MODEL 2
REMARK VINA RESULT:      -6.9     11.335     12.608
REMARK  10 active torsions:
REMARK  status: ('A' for Active; 'I' for Inactive)
REMARK    1  A    between atoms: C_1  and  C_3 
REMARK    2  A    between atoms: C_1  and  C_2 
REMARK    3  A    between atoms: C_1  and  N_6 
REMARK    4  A    between atoms: C_2  and  C_19 
REMARK       I    between atoms: C_3  and  N_18 
REMARK    5  A    between atoms: N_7  and  C_22 
REMARK    6  A    between atoms: C_8  and  C_20 
REMARK    7  A    between atoms: C_8  and  C_12 
REMARK    8  A    between atoms: C_8  and  N_18 
REMARK    9  A    between atoms: C_12  and  C_23 
REMARK   10  A    between atoms: C_19  and  C_22 
ROOT
HETATM    1  C           1     -24.814  -6.788 -19.279  0.00  0.00     0.249 C 
HETATM    2  H           1     -25.434  -8.184 -17.882  0.00  0.00     0.163 HD
HETATM    3  N           1     -25.481  -7.212 -18.162  0.00  0.00    -0.344 N 
HETATM    4  O           1     -23.677  -6.393 -19.192  0.00  0.00    -0.271 OA
ENDROOT
BRANCH   1   5
HETATM    5  C           1     -25.502  -6.816 -20.623  0.00  0.00     0.274 C 
BRANCH   5   6
HETATM    6  C           1     -25.048  -8.045 -21.400  0.00  0.00     0.044 C 
BRANCH   6   7
HETATM    7  C           1     -24.061  -7.627 -22.482  0.00  0.00     0.033 C 
BRANCH   7   8
HETATM    8  C           1     -22.838  -8.534 -22.432  0.00  0.00     0.620 C 
BRANCH   8   9
HETATM    9  N           1     -22.566  -8.933 -21.012  0.00  0.00    -0.077 N 
HETATM   10  H           1     -21.940  -8.227 -20.565  0.00  0.00     0.274 HD
HETATM   11  H           1     -22.103  -9.869 -20.997  0.00  0.00     0.274 HD
HETATM   12  H           1     -23.468  -8.982 -20.486  0.00  0.00     0.274 HD
ENDBRANCH   8   9
ENDBRANCH   7   8
ENDBRANCH   6   7
ENDBRANCH   5   6
BRANCH   5  13
HETATM   13  N           1     -25.144  -5.579 -21.393  0.00  0.00    -0.067 N 
HETATM   14  H           1     -24.598  -4.933 -20.781  0.00  0.00     0.275 HD
HETATM   15  H           1     -24.567  -5.841 -22.225  0.00  0.00     0.275 HD
HETATM   16  H           1     -26.018  -5.102 -21.711  0.00  0.00     0.275 HD
ENDBRANCH   5  13
ENDBRANCH   1   5
BRANCH   3  17
HETATM   17  C           1     -26.255  -6.269 -17.378  0.00  0.00     0.191 C 
BRANCH  17  18
HETATM   18  C           1     -26.004  -6.511 -15.909  0.00  0.00     0.197 C 
HETATM   19  O           1     -26.665  -7.376 -15.296  0.00  0.00    -0.646 OA
HETATM   20  O           1     -25.134  -5.845 -15.306  0.00  0.00    -0.646 OA
ENDBRANCH  17  18
BRANCH  17  21
HETATM   21  C           1     -27.737  -6.457 -17.677  0.00  0.00     0.094 C 
BRANCH  21  22
HETATM   22  C           1     -28.421  -5.126 -17.659  0.00  0.00     0.034 A 
HETATM   23  C           1     -29.536  -4.810 -18.399  0.00  0.00     0.212 A 
HETATM   24  N           1     -29.816  -3.510 -18.079  0.00  0.00    -0.072 N 
HETATM   25  C           1     -28.878  -3.097 -17.177  0.00  0.00     0.277 A 
HETATM   26  H           1     -30.608  -2.934 -18.459  0.00  0.00     0.272 HD
HETATM   27  N           1     -28.021  -4.053 -16.904  0.00  0.00    -0.349 N 
ATOM     28  HN          1     -27.226  -4.008 -16.266  1.00  0.00     0.166 HD
ENDBRANCH  21  22
ENDBRANCH  17  21
ENDBRANCH   3  17
TORSDOF 10
ENDMDL
MODEL 3
REMARK VINA RESULT:      -6.6      9.390     10.684
REMARK  10 active torsions:
REMARK  status: ('A' for Active; 'I' for Inactive)
REMARK    1  A    between atoms: C_1  and  C_3 
REMARK    2  A    between atoms: C_1  and  C_2 
REMARK    3  A    between atoms: C_1  and  N_6 
REMARK    4  A    between atoms: C_2  and  C_19 
REMARK       I    between atoms: C_3  and  N_18 
REMARK    5  A    between atoms: N_7  and  C_22 
REMARK    6  A    between atoms: C_8  and  C_20 
REMARK    7  A    between atoms: C_8  and  C_12 
REMARK    8  A    between atoms: C_8  and  N_18 
REMARK    9  A    between atoms: C_12  and  C_23 
REMARK   10  A    between atoms: C_19  and  C_22 
ROOT
HETATM    1  C           1     -25.776  -6.957 -16.397  0.00  0.00     0.249 C 
HETATM    2  H           1     -27.435  -8.009 -17.048  0.00  0.00     0.163 HD
HETATM    3  N           1     -27.076  -7.095 -16.804  0.00  0.00    -0.344 N 
HETATM    4  O           1     -25.496  -7.045 -15.226  0.00  0.00    -0.271 OA
ENDROOT
BRANCH   1   5
HETATM    5  C           1     -24.691  -6.695 -17.415  0.00  0.00     0.274 C 
BRANCH   5   6
HETATM    6  C           1     -25.265  -6.845 -18.818  0.00  0.00     0.044 C 
BRANCH   6   7
HETATM    7  C           1     -24.221  -7.476 -19.728  0.00  0.00     0.033 C 
BRANCH   7   8
HETATM    8  C           1     -24.862  -7.841 -21.062  0.00  0.00     0.620 C 
BRANCH   8   9
HETATM    9  N           1     -26.320  -8.124 -20.856  0.00  0.00    -0.077 N 
HETATM   10  H           1     -26.858  -7.230 -20.896  0.00  0.00     0.274 HD
HETATM   11  H           1     -26.459  -8.572 -19.923  0.00  0.00     0.274 HD
HETATM   12  H           1     -26.658  -8.768 -21.607  0.00  0.00     0.274 HD
ENDBRANCH   8   9
ENDBRANCH   7   8
ENDBRANCH   6   7
ENDBRANCH   5   6
BRANCH   5  13
HETATM   13  N           1     -23.578  -7.681 -17.222  0.00  0.00    -0.067 N 
HETATM   14  H           1     -23.106  -7.858 -18.137  0.00  0.00     0.275 HD
HETATM   15  H           1     -22.884  -7.294 -16.542  0.00  0.00     0.275 HD
HETATM   16  H           1     -23.966  -8.577 -16.851  0.00  0.00     0.275 HD
ENDBRANCH   5  13
ENDBRANCH   1   5
BRANCH   3  17
HETATM   17  C           1     -27.938  -5.932 -16.885  0.00  0.00     0.191 C 
BRANCH  17  18
HETATM   18  C           1     -28.388  -5.542 -15.498  0.00  0.00     0.197 C 
HETATM   19  O           1     -29.030  -6.354 -14.798  0.00  0.00    -0.646 OA
HETATM   20  O           1     -28.118  -4.406 -15.050  0.00  0.00    -0.646 OA
ENDBRANCH  17  18
BRANCH  17  21
HETATM   21  C           1     -29.154  -6.261 -17.740  0.00  0.00     0.094 C 
BRANCH  21  22
HETATM   22  C           1     -30.227  -5.247 -17.493  0.00  0.00     0.034 A 
HETATM   23  C           1     -30.173  -3.936 -17.902  0.00  0.00     0.212 A 
HETATM   24  N           1     -31.346  -3.382 -17.469  0.00  0.00    -0.072 N 
HETATM   25  C           1     -32.050  -4.359 -16.826  0.00  0.00     0.277 A 
HETATM   26  H           1     -31.650  -2.386 -17.605  0.00  0.00     0.272 HD
HETATM   27  N           1     -31.398  -5.499 -16.825  0.00  0.00    -0.349 N 
ATOM     28  HN          1     -31.699  -6.383 -16.413  1.00  0.00     0.166 HD
ENDBRANCH  21  22
ENDBRANCH  17  21
ENDBRANCH   3  17
TORSDOF 10
ENDMDL
MODEL 4
REMARK VINA RESULT:      -6.3      9.310     11.314
REMARK  10 active torsions:
REMARK  status: ('A' for Active; 'I' for Inactive)
REMARK    1  A    between atoms: C_1  and  C_3 
REMARK    2  A    between atoms: C_1  and  C_2 
REMARK    3  A    between atoms: C_1  and  N_6 
REMARK    4  A    between atoms: C_2  and  C_19 
REMARK       I    between atoms: C_3  and  N_18 
REMARK    5  A    between atoms: N_7  and  C_22 
REMARK    6  A    between atoms: C_8  and  C_20 
REMARK    7  A    between atoms: C_8  and  C_12 
REMARK    8  A    between atoms: C_8  and  N_18 
REMARK    9  A    between atoms: C_12  and  C_23 
REMARK   10  A    between atoms: C_19  and  C_22 
ROOT
HETATM    1  C           1     -29.785  -7.203 -17.522  0.00  0.00     0.249 C 
HETATM    2  H           1     -28.785  -7.919 -15.857  0.00  0.00     0.163 HD
HETATM    3  N           1     -28.689  -7.415 -16.730  0.00  0.00    -0.344 N 
HETATM    4  O           1     -30.082  -8.009 -18.371  0.00  0.00    -0.271 OA
ENDROOT
BRANCH   1   5
HETATM    5  C           1     -30.624  -5.962 -17.334  0.00  0.00     0.274 C 
BRANCH   5   6
HETATM    6  C           1     -30.044  -4.827 -18.169  0.00  0.00     0.044 C 
BRANCH   6   7
HETATM    7  C           1     -30.346  -3.496 -17.495  0.00  0.00     0.033 C 
BRANCH   7   8
HETATM    8  C           1     -29.051  -2.715 -17.308  0.00  0.00     0.620 C 
BRANCH   8   9
HETATM    9  N           1     -29.344  -1.244 -17.329  0.00  0.00    -0.077 N 
HETATM   10  H           1     -28.675  -0.746 -16.701  0.00  0.00     0.274 HD
HETATM   11  H           1     -30.321  -1.080 -16.998  0.00  0.00     0.274 HD
HETATM   12  H           1     -29.242  -0.883 -18.305  0.00  0.00     0.274 HD
ENDBRANCH   8   9
ENDBRANCH   7   8
ENDBRANCH   6   7
ENDBRANCH   5   6
BRANCH   5  13
HETATM   13  N           1     -30.618  -5.570 -15.886  0.00  0.00    -0.067 N 
HETATM   14  H           1     -30.870  -4.561 -15.797  0.00  0.00     0.275 HD
HETATM   15  H           1     -31.315  -6.151 -15.366  0.00  0.00     0.275 HD
HETATM   16  H           1     -29.666  -5.729 -15.487  0.00  0.00     0.275 HD
ENDBRANCH   5  13
ENDBRANCH   1   5
BRANCH   3  17
HETATM   17  C           1     -27.390  -6.916 -17.140  0.00  0.00     0.191 C 
BRANCH  17  18
HETATM   18  C           1     -26.934  -5.849 -16.176  0.00  0.00     0.197 C 
HETATM   19  O           1     -27.768  -5.256 -15.458  0.00  0.00    -0.646 OA
HETATM   20  O           1     -25.720  -5.559 -16.094  0.00  0.00    -0.646 OA
ENDBRANCH  17  18
BRANCH  17  21
HETATM   21  C           1     -27.493  -6.325 -18.540  0.00  0.00     0.094 C 
BRANCH  21  22
HETATM   22  C           1     -26.345  -6.806 -19.370  0.00  0.00     0.034 A 
HETATM   23  C           1     -26.420  -7.107 -20.710  0.00  0.00     0.212 A 
HETATM   24  N           1     -25.157  -7.501 -21.055  0.00  0.00    -0.072 N 
HETATM   25  C           1     -24.382  -7.426 -19.934  0.00  0.00     0.277 A 
HETATM   26  H           1     -24.841  -7.807 -22.008  0.00  0.00     0.272 HD
HETATM   27  N           1     -25.073  -7.009 -18.898  0.00  0.00    -0.349 N 
ATOM     28  HN          1     -24.736  -6.867 -17.946  1.00  0.00     0.166 HD
ENDBRANCH  21  22
ENDBRANCH  17  21
ENDBRANCH   3  17
TORSDOF 10
ENDMDL
MODEL 5
REMARK VINA RESULT:      -6.2     13.089     14.994
REMARK  10 active torsions:
REMARK  status: ('A' for Active; 'I' for Inactive)
REMARK    1  A    between atoms: C_1  and  C_3 
REMARK    2  A    between atoms: C_1  and  C_2 
REMARK    3  A    between atoms: C_1  and  N_6 
REMARK    4  A    between atoms: C_2  and  C_19 
REMARK       I    between atoms: C_3  and  N_18 
REMARK    5  A    between atoms: N_7  and  C_22 
REMARK    6  A    between atoms: C_8  and  C_20 
REMARK    7  A    between atoms: C_8  and  C_12 
REMARK    8  A    between atoms: C_8  and  N_18 
REMARK    9  A    between atoms: C_12  and  C_23 
REMARK   10  A    between atoms: C_19  and  C_22 
ROOT
HETATM    1  C           1     -20.478  -6.608  -6.313  0.00  0.00     0.249 C 
HETATM    2  H           1     -20.535  -4.563  -5.999  0.00  0.00     0.163 HD
HETATM    3  N           1     -20.719  -5.307  -6.661  0.00  0.00    -0.344 N 
HETATM    4  O           1     -19.396  -7.101  -6.524  0.00  0.00    -0.271 OA
ENDROOT
BRANCH   1   5
HETATM    5  C           1     -21.567  -7.429  -5.663  0.00  0.00     0.274 C 
BRANCH   5   6
HETATM    6  C           1     -21.890  -6.849  -4.292  0.00  0.00     0.044 C 
BRANCH   6   7
HETATM    7  C           1     -21.255  -7.713  -3.212  0.00  0.00     0.033 C 
BRANCH   7   8
HETATM    8  C           1     -21.629  -7.169  -1.839  0.00  0.00     0.620 C 
BRANCH   8   9
HETATM    9  N           1     -22.319  -5.846  -1.995  0.00  0.00    -0.077 N 
HETATM   10  H           1     -22.757  -5.572  -1.088  0.00  0.00     0.274 HD
HETATM   11  H           1     -23.058  -5.923  -2.729  0.00  0.00     0.274 HD
HETATM   12  H           1     -21.621  -5.121  -2.278  0.00  0.00     0.274 HD
ENDBRANCH   8   9
ENDBRANCH   7   8
ENDBRANCH   6   7
ENDBRANCH   5   6
BRANCH   5  13
HETATM   13  N           1     -21.098  -8.846  -5.508  0.00  0.00    -0.067 N 
HETATM   14  H           1     -21.638  -9.310  -4.743  0.00  0.00     0.275 HD
HETATM   15  H           1     -21.251  -9.363  -6.404  0.00  0.00     0.275 HD
HETATM   16  H           1     -20.081  -8.852  -5.271  0.00  0.00     0.275 HD
ENDBRANCH   5  13
ENDBRANCH   1   5
BRANCH   3  17
HETATM   17  C           1     -21.239  -4.993  -7.978  0.00  0.00     0.191 C 
BRANCH  17  18
HETATM   18  C           1     -20.151  -4.358  -8.810  0.00  0.00     0.197 C 
HETATM   19  O           1     -20.061  -4.623 -10.028  0.00  0.00    -0.646 OA
HETATM   20  O           1     -19.341  -3.567  -8.280  0.00  0.00    -0.646 OA
ENDBRANCH  17  18
BRANCH  17  21
HETATM   21  C           1     -22.406  -4.023  -7.844  0.00  0.00     0.094 C 
BRANCH  21  22
HETATM   22  C           1     -23.255  -4.091  -9.075  0.00  0.00     0.034 A 
HETATM   23  C           1     -24.356  -3.303  -9.311  0.00  0.00     0.212 A 
HETATM   24  N           1     -24.818  -3.697 -10.536  0.00  0.00    -0.072 N 
HETATM   25  C           1     -23.996  -4.690 -10.985  0.00  0.00     0.277 A 
HETATM   26  H           1     -25.653  -3.308 -11.039  0.00  0.00     0.272 HD
HETATM   27  N           1     -23.041  -4.951 -10.123  0.00  0.00    -0.349 N 
ATOM     28  HN          1     -22.299  -5.644 -10.212  1.00  0.00     0.166 HD
ENDBRANCH  21  22
ENDBRANCH  17  21
ENDBRANCH   3  17
TORSDOF 10
ENDMDL
MODEL 6
REMARK VINA RESULT:      -5.9     14.802     17.869
REMARK  10 active torsions:
REMARK  status: ('A' for Active; 'I' for Inactive)
REMARK    1  A    between atoms: C_1  and  C_3 
REMARK    2  A    between atoms: C_1  and  C_2 
REMARK    3  A    between atoms: C_1  and  N_6 
REMARK    4  A    between atoms: C_2  and  C_19 
REMARK       I    between atoms: C_3  and  N_18 
REMARK    5  A    between atoms: N_7  and  C_22 
REMARK    6  A    between atoms: C_8  and  C_20 
REMARK    7  A    between atoms: C_8  and  C_12 
REMARK    8  A    between atoms: C_8  and  N_18 
REMARK    9  A    between atoms: C_12  and  C_23 
REMARK   10  A    between atoms: C_19  and  C_22 
ROOT
HETATM    1  C           1     -21.664  -6.300  -4.313  0.00  0.00     0.249 C 
HETATM    2  H           1     -21.092  -5.697  -2.417  0.00  0.00     0.163 HD
HETATM    3  N           1     -21.350  -6.488  -2.994  0.00  0.00    -0.344 N 
HETATM    4  O           1     -22.806  -6.078  -4.637  0.00  0.00    -0.271 OA
ENDROOT
BRANCH   1   5
HETATM    5  C           1     -20.581  -6.368  -5.363  0.00  0.00     0.274 C 
BRANCH   5   6
HETATM    6  C           1     -20.427  -5.004  -6.023  0.00  0.00     0.044 C 
BRANCH   6   7
HETATM    7  C           1     -20.992  -5.056  -7.435  0.00  0.00     0.033 C 
BRANCH   7   8
HETATM    8  C           1     -21.995  -3.925  -7.624  0.00  0.00     0.620 C 
BRANCH   8   9
HETATM    9  N           1     -23.362  -4.396  -7.224  0.00  0.00    -0.077 N 
HETATM   10  H           1     -23.822  -4.864  -8.036  0.00  0.00     0.274 HD
HETATM   11  H           1     -23.937  -3.577  -6.922  0.00  0.00     0.274 HD
HETATM   12  H           1     -23.279  -5.073  -6.432  0.00  0.00     0.274 HD
ENDBRANCH   8   9
ENDBRANCH   7   8
ENDBRANCH   6   7
ENDBRANCH   5   6
BRANCH   5  13
HETATM   13  N           1     -20.955  -7.385  -6.401  0.00  0.00    -0.067 N 
HETATM   14  H           1     -20.118  -7.960  -6.644  0.00  0.00     0.275 HD
HETATM   15  H           1     -21.706  -8.007  -6.023  0.00  0.00     0.275 HD
HETATM   16  H           1     -21.305  -6.897  -7.256  0.00  0.00     0.275 HD
ENDBRANCH   5  13
ENDBRANCH   1   5
BRANCH   3  17
HETATM   17  C           1     -21.386  -7.821  -2.423  0.00  0.00     0.191 C 
BRANCH  17  18
HETATM   18  C           1     -22.053  -7.770  -1.070  0.00  0.00     0.197 C 
HETATM   19  O           1     -21.905  -8.713  -0.264  0.00  0.00    -0.646 OA
HETATM   20  O           1     -22.754  -6.783  -0.756  0.00  0.00    -0.646 OA
ENDBRANCH  17  18
BRANCH  17  21
HETATM   21  C           1     -19.964  -8.345  -2.269  0.00  0.00     0.094 C 
BRANCH  21  22
HETATM   22  C           1     -19.631  -9.231  -3.428  0.00  0.00     0.034 A 
HETATM   23  C           1     -18.385  -9.336  -3.999  0.00  0.00     0.212 A 
HETATM   24  N           1     -18.535 -10.244  -5.011  0.00  0.00    -0.072 N 
HETATM   25  C           1     -19.840 -10.645  -5.014  0.00  0.00     0.277 A 
HETATM   26  H           1     -17.784 -10.572  -5.667  0.00  0.00     0.272 HD
HETATM   27  N           1     -20.528 -10.048  -4.067  0.00  0.00    -0.349 N 
ATOM     28  HN          1     -21.518 -10.167  -3.854  1.00  0.00     0.166 HD
ENDBRANCH  21  22
ENDBRANCH  17  21
ENDBRANCH   3  17
TORSDOF 10
ENDMDL
MODEL 7
REMARK VINA RESULT:      -5.9      9.359     11.388
REMARK  10 active torsions:
REMARK  status: ('A' for Active; 'I' for Inactive)
REMARK    1  A    between atoms: C_1  and  C_3 
REMARK    2  A    between atoms: C_1  and  C_2 
REMARK    3  A    between atoms: C_1  and  N_6 
REMARK    4  A    between atoms: C_2  and  C_19 
REMARK       I    between atoms: C_3  and  N_18 
REMARK    5  A    between atoms: N_7  and  C_22 
REMARK    6  A    between atoms: C_8  and  C_20 
REMARK    7  A    between atoms: C_8  and  C_12 
REMARK    8  A    between atoms: C_8  and  N_18 
REMARK    9  A    between atoms: C_12  and  C_23 
REMARK   10  A    between atoms: C_19  and  C_22 
ROOT
HETATM    1  C           1     -28.757  -5.578 -17.940  0.00  0.00     0.249 C 
HETATM    2  H           1     -29.232  -7.526 -17.426  0.00  0.00     0.163 HD
HETATM    3  N           1     -28.486  -6.845 -17.501  0.00  0.00    -0.344 N 
HETATM    4  O           1     -28.698  -5.320 -19.118  0.00  0.00    -0.271 OA
ENDROOT
BRANCH   1   5
HETATM    5  C           1     -29.129  -4.500 -16.950  0.00  0.00     0.274 C 
BRANCH   5   6
HETATM    6  C           1     -30.520  -4.780 -16.395  0.00  0.00     0.044 C 
BRANCH   6   7
HETATM    7  C           1     -31.557  -4.036 -17.225  0.00  0.00     0.033 C 
BRANCH   7   8
HETATM    8  C           1     -32.939  -4.244 -16.618  0.00  0.00     0.620 C 
BRANCH   8   9
HETATM    9  N           1     -33.868  -3.172 -17.107  0.00  0.00    -0.077 N 
HETATM   10  H           1     -33.316  -2.421 -17.578  0.00  0.00     0.274 HD
HETATM   11  H           1     -34.387  -2.766 -16.296  0.00  0.00     0.274 HD
HETATM   12  H           1     -34.547  -3.584 -17.786  0.00  0.00     0.274 HD
ENDBRANCH   8   9
ENDBRANCH   7   8
ENDBRANCH   6   7
ENDBRANCH   5   6
BRANCH   5  13
HETATM   13  N           1     -29.125  -3.167 -17.638  0.00  0.00    -0.067 N 
HETATM   14  H           1     -29.237  -3.305 -18.667  0.00  0.00     0.275 HD
HETATM   15  H           1     -29.916  -2.586 -17.276  0.00  0.00     0.275 HD
HETATM   16  H           1     -28.220  -2.680 -17.447  0.00  0.00     0.275 HD
ENDBRANCH   5  13
ENDBRANCH   1   5
BRANCH   3  17
HETATM   17  C           1     -27.130  -7.214 -17.143  0.00  0.00     0.191 C 
BRANCH  17  18
HETATM   18  C           1     -26.991  -7.219 -15.640  0.00  0.00     0.197 C 
HETATM   19  O           1     -28.010  -7.259 -14.917  0.00  0.00    -0.646 OA
HETATM   20  O           1     -25.855  -7.183 -15.117  0.00  0.00    -0.646 OA
ENDBRANCH  17  18
BRANCH  17  21
HETATM   21  C           1     -26.156  -6.207 -17.740  0.00  0.00     0.094 C 
BRANCH  21  22
HETATM   22  C           1     -25.440  -6.832 -18.897  0.00  0.00     0.034 A 
HETATM   23  C           1     -24.121  -7.218 -18.884  0.00  0.00     0.212 A 
HETATM   24  N           1     -23.890  -7.730 -20.131  0.00  0.00    -0.072 N 
HETATM   25  C           1     -25.055  -7.635 -20.836  0.00  0.00     0.277 A 
HETATM   26  H           1     -22.982  -8.124 -20.482  0.00  0.00     0.272 HD
HETATM   27  N           1     -26.011  -7.095 -20.116  0.00  0.00    -0.349 N 
ATOM     28  HN          1     -26.972  -6.911 -20.402  1.00  0.00     0.166 HD
ENDBRANCH  21  22
ENDBRANCH  17  21
ENDBRANCH   3  17
TORSDOF 10
ENDMDL
MODEL 8
REMARK VINA RESULT:      -5.8      2.982      4.094
REMARK  10 active torsions:
REMARK  status: ('A' for Active; 'I' for Inactive)
REMARK    1  A    between atoms: C_1  and  C_3 
REMARK    2  A    between atoms: C_1  and  C_2 
REMARK    3  A    between atoms: C_1  and  N_6 
REMARK    4  A    between atoms: C_2  and  C_19 
REMARK       I    between atoms: C_3  and  N_18 
REMARK    5  A    between atoms: N_7  and  C_22 
REMARK    6  A    between atoms: C_8  and  C_20 
REMARK    7  A    between atoms: C_8  and  C_12 
REMARK    8  A    between atoms: C_8  and  N_18 
REMARK    9  A    between atoms: C_12  and  C_23 
REMARK   10  A    between atoms: C_19  and  C_22 
ROOT
HETATM    1  C           1     -35.048  -1.113 -12.457  0.00  0.00     0.249 C 
HETATM    2  H           1     -36.663  -1.676 -13.623  0.00  0.00     0.163 HD
HETATM    3  N           1     -35.741  -1.257 -13.628  0.00  0.00    -0.344 N 
HETATM    4  O           1     -35.170  -0.106 -11.802  0.00  0.00    -0.271 OA
ENDROOT
BRANCH   1   5
HETATM    5  C           1     -34.132  -2.215 -11.982  0.00  0.00     0.274 C 
BRANCH   5   6
HETATM    6  C           1     -34.937  -3.493 -11.780  0.00  0.00     0.044 C 
BRANCH   6   7
HETATM    7  C           1     -34.264  -4.354 -10.720  0.00  0.00     0.033 C 
BRANCH   7   8
HETATM    8  C           1     -34.276  -5.811 -11.166  0.00  0.00     0.620 C 
BRANCH   8   9
HETATM    9  N           1     -34.860  -5.909 -12.544  0.00  0.00    -0.077 N 
HETATM   10  H           1     -35.640  -6.604 -12.543  0.00  0.00     0.274 HD
HETATM   11  H           1     -34.120  -6.217 -13.214  0.00  0.00     0.274 HD
HETATM   12  H           1     -35.226  -4.974 -12.834  0.00  0.00     0.274 HD
ENDBRANCH   8   9
ENDBRANCH   7   8
ENDBRANCH   6   7
ENDBRANCH   5   6
BRANCH   5  13
HETATM   13  N           1     -33.499  -1.813 -10.683  0.00  0.00    -0.067 N 
HETATM   14  H           1     -32.713  -1.151 -10.868  0.00  0.00     0.275 HD
HETATM   15  H           1     -34.212  -1.345 -10.078  0.00  0.00     0.275 HD
HETATM   16  H           1     -33.133  -2.662 -10.197  0.00  0.00     0.275 HD
ENDBRANCH   5  13
ENDBRANCH   1   5
BRANCH   3  17
HETATM   17  C           1     -35.155  -0.811 -14.877  0.00  0.00     0.191 C 
BRANCH  17  18
HETATM   18  C           1     -35.599   0.603 -15.165  0.00  0.00     0.197 C 
HETATM   19  O           1     -36.515   0.815 -15.988  0.00  0.00    -0.646 OA
HETATM   20  O           1     -35.051   1.561 -14.577  0.00  0.00    -0.646 OA
ENDBRANCH  17  18
BRANCH  17  21
HETATM   21  C           1     -35.610  -1.726 -16.007  0.00  0.00     0.094 C 
BRANCH  21  22
HETATM   22  C           1     -34.548  -2.743 -16.283  0.00  0.00     0.034 A 
HETATM   23  C           1     -34.317  -3.860 -15.516  0.00  0.00     0.212 A 
HETATM   24  N           1     -33.271  -4.498 -16.124  0.00  0.00    -0.072 N 
HETATM   25  C           1     -32.916  -3.756 -17.214  0.00  0.00     0.277 A 
HETATM   26  H           1     -32.822  -5.393 -15.811  0.00  0.00     0.272 HD
HETATM   27  N           1     -33.671  -2.688 -17.336  0.00  0.00    -0.349 N 
ATOM     28  HN          1     -33.616  -1.971 -18.059  1.00  0.00     0.166 HD
ENDBRANCH  21  22
ENDBRANCH  17  21
ENDBRANCH   3  17
TORSDOF 10
ENDMDL
MODEL 9
REMARK VINA RESULT:      -5.8      2.508      4.151
REMARK  10 active torsions:
REMARK  status: ('A' for Active; 'I' for Inactive)
REMARK    1  A    between atoms: C_1  and  C_3 
REMARK    2  A    between atoms: C_1  and  C_2 
REMARK    3  A    between atoms: C_1  and  N_6 
REMARK    4  A    between atoms: C_2  and  C_19 
REMARK       I    between atoms: C_3  and  N_18 
REMARK    5  A    between atoms: N_7  and  C_22 
REMARK    6  A    between atoms: C_8  and  C_20 
REMARK    7  A    between atoms: C_8  and  C_12 
REMARK    8  A    between atoms: C_8  and  N_18 
REMARK    9  A    between atoms: C_12  and  C_23 
REMARK   10  A    between atoms: C_19  and  C_22 
ROOT
HETATM    1  C           1     -34.758  -1.951 -10.879  0.00  0.00     0.249 C 
HETATM    2  H           1     -35.921  -1.648  -9.194  0.00  0.00     0.163 HD
HETATM    3  N           1     -35.806  -1.424 -10.175  0.00  0.00    -0.344 N 
HETATM    4  O           1     -33.707  -1.359 -10.934  0.00  0.00    -0.271 OA
ENDROOT
BRANCH   1   5
HETATM    5  C           1     -34.915  -3.275 -11.589  0.00  0.00     0.274 C 
BRANCH   5   6
HETATM    6  C           1     -34.241  -4.371 -10.774  0.00  0.00     0.044 C 
BRANCH   6   7
HETATM    7  C           1     -34.921  -5.704 -11.053  0.00  0.00     0.033 C 
BRANCH   7   8
HETATM    8  C           1     -34.457  -6.736 -10.033  0.00  0.00     0.620 C 
BRANCH   8   9
HETATM    9  N           1     -34.372  -8.084 -10.687  0.00  0.00    -0.077 N 
HETATM   10  H           1     -35.251  -8.616 -10.504  0.00  0.00     0.274 HD
HETATM   11  H           1     -33.558  -8.609 -10.295  0.00  0.00     0.274 HD
HETATM   12  H           1     -34.245  -7.963 -11.717  0.00  0.00     0.274 HD
ENDBRANCH   8   9
ENDBRANCH   7   8
ENDBRANCH   6   7
ENDBRANCH   5   6
BRANCH   5  13
HETATM   13  N           1     -34.276  -3.195 -12.943  0.00  0.00    -0.067 N 
HETATM   14  H           1     -35.016  -3.087 -13.673  0.00  0.00     0.275 HD
HETATM   15  H           1     -33.633  -2.371 -12.977  0.00  0.00     0.275 HD
HETATM   16  H           1     -33.733  -4.069 -13.124  0.00  0.00     0.275 HD
ENDBRANCH   5  13
ENDBRANCH   1   5
BRANCH   3  17
HETATM   17  C           1     -36.753  -0.545 -10.833  0.00  0.00     0.191 C 
BRANCH  17  18
HETATM   18  C           1     -36.324  -0.324 -12.264  0.00  0.00     0.197 C 
HETATM   19  O           1     -35.503   0.577 -12.539  0.00  0.00    -0.646 OA
HETATM   20  O           1     -36.790  -1.045 -13.174  0.00  0.00    -0.646 OA
ENDBRANCH  17  18
BRANCH  17  21
HETATM   21  C           1     -36.795   0.792 -10.104  0.00  0.00     0.094 C 
BRANCH  21  22
HETATM   22  C           1     -37.139   0.565  -8.665  0.00  0.00     0.034 A 
HETATM   23  C           1     -36.558   1.225  -7.609  0.00  0.00     0.212 A 
HETATM   24  N           1     -37.163   0.712  -6.495  0.00  0.00    -0.072 N 
HETATM   25  C           1     -38.068  -0.222  -6.912  0.00  0.00     0.277 A 
HETATM   26  H           1     -36.968   0.985  -5.501  0.00  0.00     0.272 HD
HETATM   27  N           1     -38.075  -0.333  -8.221  0.00  0.00    -0.349 N 
ATOM     28  HN          1     -38.653  -0.955  -8.785  1.00  0.00     0.166 HD
ENDBRANCH  21  22
ENDBRANCH  17  21
ENDBRANCH   3  17
TORSDOF 10
ENDMDL
