MODEL 1
REMARK VINA RESULT:      -8.0      0.000      0.000
REMARK  8 active torsions:
REMARK  status: ('A' for Active; 'I' for Inactive)
REMARK    1  A    between atoms: C_7  and  C_10 
REMARK    2  A    between atoms: C_7  and  C_8 
REMARK    3  A    between atoms: C_7  and  N_19 
REMARK    4  A    between atoms: C_8  and  C_17 
REMARK       I    between atoms: C_10  and  N_11 
REMARK    5  A    between atoms: N_11  and  C_18 
REMARK    6  A    between atoms: C_13  and  C_21 
REMARK    7  A    between atoms: C_14  and  C_18 
REMARK    8  A    between atoms: C_18  and  C_21 
ROOT
HETATM    1  C           1     -21.923  -6.573  -5.620  0.00  0.00     0.190 C 
ENDROOT
BRANCH   1   2
HETATM    2  N           1     -22.323  -6.357  -4.243  0.00  0.00    -0.344 N 
HETATM    3  C           1     -21.413  -6.516  -3.233  0.00  0.00     0.249 C 
HETATM    4  O           1     -20.747  -5.576  -2.868  0.00  0.00    -0.271 OA
HETATM    5  H           1     -23.276  -6.090  -4.030  0.00  0.00     0.163 HD
BRANCH   3   6
HETATM    6  C           1     -21.242  -7.863  -2.576  0.00  0.00     0.278 C 
BRANCH   6   7
HETATM    7  C           1     -21.273  -7.698  -1.062  0.00  0.00     0.021 C 
HETATM    8  C           1     -22.644  -7.190  -0.635  0.00  0.00     0.012 C 
BRANCH   7   9
HETATM    9  C           1     -21.001  -9.042  -0.399  0.00  0.00     0.002 C 
HETATM   10  C           1     -21.179  -8.911   1.107  0.00  0.00     0.005 C 
ENDBRANCH   7   9
ENDBRANCH   6   7
BRANCH   6  11
HETATM   11  N           1     -19.928  -8.456  -2.987  0.00  0.00    -0.066 N 
HETATM   12  H           1     -19.541  -9.025  -2.201  0.00  0.00     0.275 HD
HETATM   13  H           1     -19.259  -7.690  -3.225  0.00  0.00     0.275 HD
HETATM   14  H           1     -20.067  -9.067  -3.823  0.00  0.00     0.275 HD
ENDBRANCH   6  11
ENDBRANCH   3   6
ENDBRANCH   1   2
BRANCH   1  15
HETATM   15  C           1     -20.963  -7.735  -5.689  0.00  0.00     0.197 C 
HETATM   16  O           1     -19.734  -7.525  -5.778  0.00  0.00    -0.646 OA
HETATM   17  O           1     -21.396  -8.907  -5.656  0.00  0.00    -0.646 OA
ENDBRANCH   1  15
BRANCH   1  18
HETATM   18  C           1     -21.243  -5.319  -6.152  0.00  0.00     0.077 C 
BRANCH  18  19
HETATM   19  C           1     -22.044  -4.757  -7.285  0.00  0.00    -0.028 A 
HETATM   20  C           1     -21.573  -4.511  -8.604  0.00  0.00    -0.002 A 
HETATM   21  C           1     -22.643  -3.989  -9.332  0.00  0.00     0.042 A 
HETATM   22  C           1     -20.334  -4.684  -9.250  0.00  0.00     0.014 A 
HETATM   23  N           1     -23.719  -3.924  -8.476  0.00  0.00    -0.365 N 
HETATM   24  C           1     -22.536  -3.629 -10.680  0.00  0.00     0.030 A 
HETATM   25  C           1     -23.368  -4.386  -7.236  0.00  0.00     0.096 A 
HETATM   26  H           1     -24.674  -3.570  -8.737  0.00  0.00     0.165 HD
HETATM   27  C           1     -21.295  -3.810 -11.301  0.00  0.00     0.002 A 
HETATM   28  C           1     -20.210  -4.329 -10.599  0.00  0.00     0.001 A 
ENDBRANCH  18  19
ENDBRANCH   1  18
TORSDOF 8
ENDMDL
MODEL 2
REMARK VINA RESULT:      -7.8      2.246      3.226
REMARK  8 active torsions:
REMARK  status: ('A' for Active; 'I' for Inactive)
REMARK    1  A    between atoms: C_7  and  C_10 
REMARK    2  A    between atoms: C_7  and  C_8 
REMARK    3  A    between atoms: C_7  and  N_19 
REMARK    4  A    between atoms: C_8  and  C_17 
REMARK       I    between atoms: C_10  and  N_11 
REMARK    5  A    between atoms: N_11  and  C_18 
REMARK    6  A    between atoms: C_13  and  C_21 
REMARK    7  A    between atoms: C_14  and  C_18 
REMARK    8  A    between atoms: C_18  and  C_21 
ROOT
HETATM    1  C           1     -20.508  -9.326  -4.330  0.00  0.00     0.190 C 
ENDROOT
BRANCH   1   2
HETATM    2  N           1     -20.298  -9.464  -2.902  0.00  0.00    -0.344 N 
HETATM    3  C           1     -21.261 -10.045  -2.122  0.00  0.00     0.249 C 
HETATM    4  O           1     -21.246 -11.238  -1.932  0.00  0.00    -0.271 OA
HETATM    5  H           1     -19.440  -9.130  -2.483  0.00  0.00     0.163 HD
BRANCH   3   6
HETATM    6  C           1     -22.341  -9.196  -1.499  0.00  0.00     0.278 C 
BRANCH   6   7
HETATM    7  C           1     -21.703  -8.078  -0.685  0.00  0.00     0.021 C 
HETATM    8  C           1     -22.215  -6.732  -1.183  0.00  0.00     0.012 C 
BRANCH   7   9
HETATM    9  C           1     -22.068  -8.247   0.784  0.00  0.00     0.002 C 
HETATM   10  C           1     -20.848  -8.728   1.558  0.00  0.00     0.005 C 
ENDBRANCH   7   9
ENDBRANCH   6   7
BRANCH   6  11
HETATM   11  N           1     -23.189 -10.046  -0.601  0.00  0.00    -0.066 N 
HETATM   12  H           1     -24.081  -9.545  -0.387  0.00  0.00     0.275 HD
HETATM   13  H           1     -22.674 -10.235   0.289  0.00  0.00     0.275 HD
HETATM   14  H           1     -23.404 -10.950  -1.077  0.00  0.00     0.275 HD
ENDBRANCH   6  11
ENDBRANCH   3   6
ENDBRANCH   1   2
BRANCH   1  15
HETATM   15  C           1     -19.927 -10.523  -5.042  0.00  0.00     0.197 C 
HETATM   16  O           1     -19.037 -11.207  -4.490  0.00  0.00    -0.646 OA
HETATM   17  O           1     -20.335 -10.831  -6.182  0.00  0.00    -0.646 OA
ENDBRANCH   1  15
BRANCH   1  18
HETATM   18  C           1     -19.822  -8.059  -4.823  0.00  0.00     0.077 C 
BRANCH  18  19
HETATM   19  C           1     -20.855  -7.069  -5.261  0.00  0.00    -0.028 A 
HETATM   20  C           1     -20.682  -6.054  -6.243  0.00  0.00    -0.002 A 
HETATM   21  C           1     -21.890  -5.363  -6.336  0.00  0.00     0.042 A 
HETATM   22  C           1     -19.608  -5.657  -7.062  0.00  0.00     0.014 A 
HETATM   23  N           1     -22.759  -5.943  -5.441  0.00  0.00    -0.365 N 
HETATM   24  C           1     -22.080  -4.288  -7.214  0.00  0.00     0.030 A 
HETATM   25  C           1     -22.143  -6.976  -4.785  0.00  0.00     0.096 A 
HETATM   26  H           1     -23.752  -5.639  -5.282  0.00  0.00     0.165 HD
HETATM   27  C           1     -20.999  -3.912  -8.018  0.00  0.00     0.002 A 
HETATM   28  C           1     -19.781  -4.585  -7.945  0.00  0.00     0.001 A 
ENDBRANCH  18  19
ENDBRANCH   1  18
TORSDOF 8
ENDMDL
MODEL 3
REMARK VINA RESULT:      -7.7      1.818      7.910
REMARK  8 active torsions:
REMARK  status: ('A' for Active; 'I' for Inactive)
REMARK    1  A    between atoms: C_7  and  C_10 
REMARK    2  A    between atoms: C_7  and  C_8 
REMARK    3  A    between atoms: C_7  and  N_19 
REMARK    4  A    between atoms: C_8  and  C_17 
REMARK       I    between atoms: C_10  and  N_11 
REMARK    5  A    between atoms: N_11  and  C_18 
REMARK    6  A    between atoms: C_13  and  C_21 
REMARK    7  A    between atoms: C_14  and  C_18 
REMARK    8  A    between atoms: C_18  and  C_21 
ROOT
HETATM    1  C           1     -21.202  -7.212  -5.757  0.00  0.00     0.190 C 
ENDROOT
BRANCH   1   2
HETATM    2  N           1     -20.450  -6.470  -6.750  0.00  0.00    -0.344 N 
HETATM    3  C           1     -20.814  -5.190  -7.068  0.00  0.00     0.249 C 
HETATM    4  O           1     -20.344  -4.259  -6.458  0.00  0.00    -0.271 OA
HETATM    5  H           1     -19.656  -6.899  -7.208  0.00  0.00     0.163 HD
BRANCH   3   6
HETATM    6  C           1     -21.803  -4.940  -8.180  0.00  0.00     0.278 C 
BRANCH   6   7
HETATM    7  C           1     -21.160  -4.061  -9.245  0.00  0.00     0.021 C 
HETATM    8  C           1     -20.025  -4.824  -9.916  0.00  0.00     0.012 C 
BRANCH   7   9
HETATM    9  C           1     -22.202  -3.682 -10.288  0.00  0.00     0.002 C 
HETATM   10  C           1     -21.853  -4.339 -11.617  0.00  0.00     0.005 C 
ENDBRANCH   7   9
ENDBRANCH   6   7
BRANCH   6  11
HETATM   11  N           1     -23.014  -4.250  -7.627  0.00  0.00    -0.066 N 
HETATM   12  H           1     -23.683  -4.963  -7.259  0.00  0.00     0.275 HD
HETATM   13  H           1     -23.475  -3.696  -8.383  0.00  0.00     0.275 HD
HETATM   14  H           1     -22.727  -3.610  -6.852  0.00  0.00     0.275 HD
ENDBRANCH   6  11
ENDBRANCH   3   6
ENDBRANCH   1   2
BRANCH   1  15
HETATM   15  C           1     -21.994  -6.252  -4.904  0.00  0.00     0.197 C 
HETATM   16  O           1     -23.207  -6.061  -5.140  0.00  0.00    -0.646 OA
HETATM   17  O           1     -21.437  -5.646  -3.964  0.00  0.00    -0.646 OA
ENDBRANCH   1  15
BRANCH   1  18
HETATM   18  C           1     -20.240  -8.000  -4.878  0.00  0.00     0.077 C 
BRANCH  18  19
HETATM   19  C           1     -21.010  -8.977  -4.046  0.00  0.00    -0.028 A 
HETATM   20  C           1     -21.227  -8.896  -2.642  0.00  0.00    -0.002 A 
HETATM   21  C           1     -21.990 -10.006  -2.280  0.00  0.00     0.042 A 
HETATM   22  C           1     -20.846  -7.980  -1.644  0.00  0.00     0.014 A 
HETATM   23  N           1     -22.221 -10.730  -3.427  0.00  0.00    -0.365 N 
HETATM   24  C           1     -22.393 -10.249  -0.961  0.00  0.00     0.030 A 
HETATM   25  C           1     -21.633 -10.117  -4.501  0.00  0.00     0.096 A 
HETATM   26  H           1     -22.771 -11.624  -3.474  0.00  0.00     0.165 HD
HETATM   27  C           1     -22.003  -9.324   0.014  0.00  0.00     0.002 A 
HETATM   28  C           1     -21.242  -8.206  -0.320  0.00  0.00     0.001 A 
ENDBRANCH  18  19
ENDBRANCH   1  18
TORSDOF 8
ENDMDL
MODEL 4
REMARK VINA RESULT:      -7.6      1.802      7.433
REMARK  8 active torsions:
REMARK  status: ('A' for Active; 'I' for Inactive)
REMARK    1  A    between atoms: C_7  and  C_10 
REMARK    2  A    between atoms: C_7  and  C_8 
REMARK    3  A    between atoms: C_7  and  N_19 
REMARK    4  A    between atoms: C_8  and  C_17 
REMARK       I    between atoms: C_10  and  N_11 
REMARK    5  A    between atoms: N_11  and  C_18 
REMARK    6  A    between atoms: C_13  and  C_21 
REMARK    7  A    between atoms: C_14  and  C_18 
REMARK    8  A    between atoms: C_18  and  C_21 
ROOT
HETATM    1  C           1     -19.997  -7.479  -5.253  0.00  0.00     0.190 C 
ENDROOT
BRANCH   1   2
HETATM    2  N           1     -19.889  -7.009  -6.620  0.00  0.00    -0.344 N 
HETATM    3  C           1     -19.940  -5.668  -6.889  0.00  0.00     0.249 C 
HETATM    4  O           1     -18.923  -5.016  -6.905  0.00  0.00    -0.271 OA
HETATM    5  H           1     -19.776  -7.674  -7.375  0.00  0.00     0.163 HD
BRANCH   3   6
HETATM    6  C           1     -21.267  -5.004  -7.164  0.00  0.00     0.278 C 
BRANCH   6   7
HETATM    7  C           1     -21.594  -5.118  -8.648  0.00  0.00     0.021 C 
HETATM    8  C           1     -22.811  -4.259  -8.966  0.00  0.00     0.012 C 
BRANCH   7   9
HETATM    9  C           1     -20.405  -4.637  -9.469  0.00  0.00     0.002 C 
HETATM   10  C           1     -20.904  -3.976 -10.746  0.00  0.00     0.005 C 
ENDBRANCH   7   9
ENDBRANCH   6   7
BRANCH   6  11
HETATM   11  N           1     -21.190  -3.557  -6.780  0.00  0.00    -0.066 N 
HETATM   12  H           1     -22.110  -3.098  -6.968  0.00  0.00     0.275 HD
HETATM   13  H           1     -20.444  -3.086  -7.340  0.00  0.00     0.275 HD
HETATM   14  H           1     -20.964  -3.477  -5.763  0.00  0.00     0.275 HD
ENDBRANCH   6  11
ENDBRANCH   3   6
ENDBRANCH   1   2
BRANCH   1  15
HETATM   15  C           1     -19.207  -8.755  -5.096  0.00  0.00     0.197 C 
HETATM   16  O           1     -18.603  -8.989  -4.026  0.00  0.00    -0.646 OA
HETATM   17  O           1     -19.156  -9.578  -6.035  0.00  0.00    -0.646 OA
ENDBRANCH   1  15
BRANCH   1  18
HETATM   18  C           1     -21.460  -7.742  -4.920  0.00  0.00     0.077 C 
BRANCH  18  19
HETATM   19  C           1     -21.754  -7.256  -3.536  0.00  0.00    -0.028 A 
HETATM   20  C           1     -21.808  -8.054  -2.360  0.00  0.00    -0.002 A 
HETATM   21  C           1     -22.111  -7.201  -1.299  0.00  0.00     0.042 A 
HETATM   22  C           1     -21.629  -9.425  -2.098  0.00  0.00     0.014 A 
HETATM   23  N           1     -22.234  -5.933  -1.820  0.00  0.00    -0.365 N 
HETATM   24  C           1     -22.245  -7.653   0.020  0.00  0.00     0.030 A 
HETATM   25  C           1     -22.020  -5.955  -3.173  0.00  0.00     0.096 A 
HETATM   26  H           1     -22.460  -5.073  -1.262  0.00  0.00     0.165 HD
HETATM   27  C           1     -22.061  -9.020   0.256  0.00  0.00     0.002 A 
HETATM   28  C           1     -21.758  -9.894  -0.786  0.00  0.00     0.001 A 
ENDBRANCH  18  19
ENDBRANCH   1  18
TORSDOF 8
ENDMDL
MODEL 5
REMARK VINA RESULT:      -7.5      4.255      7.521
REMARK  8 active torsions:
REMARK  status: ('A' for Active; 'I' for Inactive)
REMARK    1  A    between atoms: C_7  and  C_10 
REMARK    2  A    between atoms: C_7  and  C_8 
REMARK    3  A    between atoms: C_7  and  N_19 
REMARK    4  A    between atoms: C_8  and  C_17 
REMARK       I    between atoms: C_10  and  N_11 
REMARK    5  A    between atoms: N_11  and  C_18 
REMARK    6  A    between atoms: C_13  and  C_21 
REMARK    7  A    between atoms: C_14  and  C_18 
REMARK    8  A    between atoms: C_18  and  C_21 
ROOT
HETATM    1  C           1     -21.159  -7.708  -3.047  0.00  0.00     0.190 C 
ENDROOT
BRANCH   1   2
HETATM    2  N           1     -19.945  -7.693  -3.839  0.00  0.00    -0.344 N 
HETATM    3  C           1     -19.846  -8.479  -4.955  0.00  0.00     0.249 C 
HETATM    4  O           1     -20.192  -8.049  -6.030  0.00  0.00    -0.271 OA
HETATM    5  H           1     -19.171  -7.101  -3.566  0.00  0.00     0.163 HD
BRANCH   3   6
HETATM    6  C           1     -19.306  -9.884  -4.843  0.00  0.00     0.278 C 
BRANCH   6   7
HETATM    7  C           1     -18.385  -9.979  -3.633  0.00  0.00     0.021 C 
HETATM    8  C           1     -18.604 -11.314  -2.932  0.00  0.00     0.012 C 
BRANCH   7   9
HETATM    9  C           1     -16.935  -9.879  -4.090  0.00  0.00     0.002 C 
HETATM   10  C           1     -16.059  -9.467  -2.915  0.00  0.00     0.005 C 
ENDBRANCH   7   9
ENDBRANCH   6   7
BRANCH   6  11
HETATM   11  N           1     -18.537 -10.224  -6.084  0.00  0.00    -0.066 N 
HETATM   12  H           1     -18.042  -9.372  -6.431  0.00  0.00     0.275 HD
HETATM   13  H           1     -19.196 -10.568  -6.819  0.00  0.00     0.275 HD
HETATM   14  H           1     -17.838 -10.969  -5.869  0.00  0.00     0.275 HD
ENDBRANCH   6  11
ENDBRANCH   3   6
ENDBRANCH   1   2
BRANCH   1  15
HETATM   15  C           1     -21.905  -6.411  -3.245  0.00  0.00     0.197 C 
HETATM   16  O           1     -22.390  -6.134  -4.363  0.00  0.00    -0.646 OA
HETATM   17  O           1     -22.038  -5.615  -2.291  0.00  0.00    -0.646 OA
ENDBRANCH   1  15
BRANCH   1  18
HETATM   18  C           1     -20.802  -7.870  -1.575  0.00  0.00     0.077 C 
BRANCH  18  19
HETATM   19  C           1     -21.949  -8.499  -0.848  0.00  0.00    -0.028 A 
HETATM   20  C           1     -22.452  -9.814  -1.053  0.00  0.00    -0.002 A 
HETATM   21  C           1     -23.519  -9.987  -0.170  0.00  0.00     0.042 A 
HETATM   22  C           1     -22.100 -10.875  -1.907  0.00  0.00     0.014 A 
HETATM   23  N           1     -23.651  -8.816   0.540  0.00  0.00    -0.365 N 
HETATM   24  C           1     -24.255 -11.176  -0.099  0.00  0.00     0.030 A 
HETATM   25  C           1     -22.707  -7.908   0.138  0.00  0.00     0.096 A 
HETATM   26  H           1     -24.372  -8.641   1.283  0.00  0.00     0.165 HD
HETATM   27  C           1     -23.886 -12.217  -0.958  0.00  0.00     0.002 A 
HETATM   28  C           1     -22.825 -12.071  -1.849  0.00  0.00     0.001 A 
ENDBRANCH  18  19
ENDBRANCH   1  18
TORSDOF 8
ENDMDL
MODEL 6
REMARK VINA RESULT:      -7.5      3.063      6.768
REMARK  8 active torsions:
REMARK  status: ('A' for Active; 'I' for Inactive)
REMARK    1  A    between atoms: C_7  and  C_10 
REMARK    2  A    between atoms: C_7  and  C_8 
REMARK    3  A    between atoms: C_7  and  N_19 
REMARK    4  A    between atoms: C_8  and  C_17 
REMARK       I    between atoms: C_10  and  N_11 
REMARK    5  A    between atoms: N_11  and  C_18 
REMARK    6  A    between atoms: C_13  and  C_21 
REMARK    7  A    between atoms: C_14  and  C_18 
REMARK    8  A    between atoms: C_18  and  C_21 
ROOT
HETATM    1  C           1     -21.448  -8.794  -2.165  0.00  0.00     0.190 C 
ENDROOT
BRANCH   1   2
HETATM    2  N           1     -20.968  -7.495  -2.594  0.00  0.00    -0.344 N 
HETATM    3  C           1     -21.818  -6.624  -3.223  0.00  0.00     0.249 C 
HETATM    4  O           1     -22.462  -5.835  -2.574  0.00  0.00    -0.271 OA
HETATM    5  H           1     -20.005  -7.232  -2.429  0.00  0.00     0.163 HD
BRANCH   3   6
HETATM    6  C           1     -21.950  -6.652  -4.725  0.00  0.00     0.278 C 
BRANCH   6   7
HETATM    7  C           1     -20.842  -5.812  -5.349  0.00  0.00     0.021 C 
HETATM    8  C           1     -19.813  -6.730  -5.996  0.00  0.00     0.012 C 
BRANCH   7   9
HETATM    9  C           1     -21.437  -4.892  -6.406  0.00  0.00     0.002 C 
HETATM   10  C           1     -20.864  -5.248  -7.771  0.00  0.00     0.005 C 
ENDBRANCH   7   9
ENDBRANCH   6   7
BRANCH   6  11
HETATM   11  N           1     -23.284  -6.091  -5.120  0.00  0.00    -0.066 N 
HETATM   12  H           1     -24.039  -6.591  -4.599  0.00  0.00     0.275 HD
HETATM   13  H           1     -23.426  -6.219  -6.147  0.00  0.00     0.275 HD
HETATM   14  H           1     -23.317  -5.073  -4.888  0.00  0.00     0.275 HD
ENDBRANCH   6  11
ENDBRANCH   3   6
ENDBRANCH   1   2
BRANCH   1  15
HETATM   15  C           1     -22.051  -8.677  -0.786  0.00  0.00     0.197 C 
HETATM   16  O           1     -23.029  -9.388  -0.470  0.00  0.00    -0.646 OA
HETATM   17  O           1     -21.573  -7.869   0.038  0.00  0.00    -0.646 OA
ENDBRANCH   1  15
BRANCH   1  18
HETATM   18  C           1     -20.286  -9.778  -2.131  0.00  0.00     0.077 C 
BRANCH  18  19
HETATM   19  C           1     -19.714  -9.925  -3.505  0.00  0.00    -0.028 A 
HETATM   20  C           1     -18.338  -9.845  -3.854  0.00  0.00    -0.002 A 
HETATM   21  C           1     -18.251 -10.039  -5.233  0.00  0.00     0.042 A 
HETATM   22  C           1     -17.154  -9.626  -3.125  0.00  0.00     0.014 A 
HETATM   23  N           1     -19.534 -10.228  -5.696  0.00  0.00    -0.365 N 
HETATM   24  C           1     -17.034 -10.025  -5.924  0.00  0.00     0.030 A 
HETATM   25  C           1     -20.427 -10.161  -4.660  0.00  0.00     0.096 A 
HETATM   26  H           1     -19.792 -10.400  -6.700  0.00  0.00     0.165 HD
HETATM   27  C           1     -15.871  -9.805  -5.178  0.00  0.00     0.002 A 
HETATM   28  C           1     -15.927  -9.609  -3.800  0.00  0.00     0.001 A 
ENDBRANCH  18  19
ENDBRANCH   1  18
TORSDOF 8
ENDMDL
MODEL 7
REMARK VINA RESULT:      -7.3      2.444      3.986
REMARK  8 active torsions:
REMARK  status: ('A' for Active; 'I' for Inactive)
REMARK    1  A    between atoms: C_7  and  C_10 
REMARK    2  A    between atoms: C_7  and  C_8 
REMARK    3  A    between atoms: C_7  and  N_19 
REMARK    4  A    between atoms: C_8  and  C_17 
REMARK       I    between atoms: C_10  and  N_11 
REMARK    5  A    between atoms: N_11  and  C_18 
REMARK    6  A    between atoms: C_13  and  C_21 
REMARK    7  A    between atoms: C_14  and  C_18 
REMARK    8  A    between atoms: C_18  and  C_21 
ROOT
HETATM    1  C           1     -21.410  -7.175  -3.936  0.00  0.00     0.190 C 
ENDROOT
BRANCH   1   2
HETATM    2  N           1     -21.809  -8.564  -4.059  0.00  0.00    -0.344 N 
HETATM    3  C           1     -20.971  -9.557  -3.630  0.00  0.00     0.249 C 
HETATM    4  O           1     -21.039  -9.955  -2.491  0.00  0.00    -0.271 OA
HETATM    5  H           1     -22.707  -8.798  -4.463  0.00  0.00     0.163 HD
BRANCH   3   6
HETATM    6  C           1     -19.962 -10.156  -4.579  0.00  0.00     0.278 C 
BRANCH   6   7
HETATM    7  C           1     -18.706  -9.296  -4.595  0.00  0.00     0.021 C 
HETATM    8  C           1     -17.819  -9.671  -3.415  0.00  0.00     0.012 C 
BRANCH   7   9
HETATM    9  C           1     -17.946  -9.530  -5.894  0.00  0.00     0.002 C 
HETATM   10  C           1     -16.566 -10.090  -5.582  0.00  0.00     0.005 C 
ENDBRANCH   7   9
ENDBRANCH   6   7
BRANCH   6  11
HETATM   11  N           1     -20.547 -10.213  -5.959  0.00  0.00    -0.066 N 
HETATM   12  H           1     -19.952  -9.654  -6.612  0.00  0.00     0.275 HD
HETATM   13  H           1     -21.514  -9.818  -5.944  0.00  0.00     0.275 HD
HETATM   14  H           1     -20.581 -11.205  -6.283  0.00  0.00     0.275 HD
ENDBRANCH   6  11
ENDBRANCH   3   6
ENDBRANCH   1   2
BRANCH   1  15
HETATM   15  C           1     -21.690  -6.695  -2.533  0.00  0.00     0.197 C 
HETATM   16  O           1     -22.667  -5.947  -2.313  0.00  0.00    -0.646 OA
HETATM   17  O           1     -20.945  -7.044  -1.592  0.00  0.00    -0.646 OA
ENDBRANCH   1  15
BRANCH   1  18
HETATM   18  C           1     -22.196  -6.331  -4.929  0.00  0.00     0.077 C 
BRANCH  18  19
HETATM   19  C           1     -21.336  -6.021  -6.114  0.00  0.00    -0.028 A 
HETATM   20  C           1     -21.700  -5.214  -7.227  0.00  0.00    -0.002 A 
HETATM   21  C           1     -20.607  -5.191  -8.093  0.00  0.00     0.042 A 
HETATM   22  C           1     -22.861  -4.500  -7.581  0.00  0.00     0.014 A 
HETATM   23  N           1     -19.619  -5.958  -7.518  0.00  0.00    -0.365 N 
HETATM   24  C           1     -20.615  -4.485  -9.302  0.00  0.00     0.030 A 
HETATM   25  C           1     -20.050  -6.465  -6.321  0.00  0.00     0.096 A 
HETATM   26  H           1     -18.672  -6.131  -7.937  0.00  0.00     0.165 HD
HETATM   27  C           1     -21.779  -3.783  -9.632  0.00  0.00     0.002 A 
HETATM   28  C           1     -22.886  -3.788  -8.786  0.00  0.00     0.001 A 
ENDBRANCH  18  19
ENDBRANCH   1  18
TORSDOF 8
ENDMDL
MODEL 8
REMARK VINA RESULT:      -7.2      3.394      7.160
REMARK  8 active torsions:
REMARK  status: ('A' for Active; 'I' for Inactive)
REMARK    1  A    between atoms: C_7  and  C_10 
REMARK    2  A    between atoms: C_7  and  C_8 
REMARK    3  A    between atoms: C_7  and  N_19 
REMARK    4  A    between atoms: C_8  and  C_17 
REMARK       I    between atoms: C_10  and  N_11 
REMARK    5  A    between atoms: N_11  and  C_18 
REMARK    6  A    between atoms: C_13  and  C_21 
REMARK    7  A    between atoms: C_14  and  C_18 
REMARK    8  A    between atoms: C_18  and  C_21 
ROOT
HETATM    1  C           1     -21.383  -7.648  -4.778  0.00  0.00     0.190 C 
ENDROOT
BRANCH   1   2
HETATM    2  N           1     -20.548  -8.419  -5.679  0.00  0.00    -0.344 N 
HETATM    3  C           1     -20.444  -9.775  -5.524  0.00  0.00     0.249 C 
HETATM    4  O           1     -21.214 -10.509  -6.096  0.00  0.00    -0.271 OA
HETATM    5  H           1     -20.042  -7.954  -6.422  0.00  0.00     0.163 HD
BRANCH   3   6
HETATM    6  C           1     -19.368 -10.353  -4.638  0.00  0.00     0.278 C 
BRANCH   6   7
HETATM    7  C           1     -18.117  -9.488  -4.727  0.00  0.00     0.021 C 
HETATM    8  C           1     -17.312  -9.625  -3.441  0.00  0.00     0.012 C 
BRANCH   7   9
HETATM    9  C           1     -17.268  -9.942  -5.907  0.00  0.00     0.002 C 
HETATM   10  C           1     -15.798  -9.918  -5.515  0.00  0.00     0.005 C 
ENDBRANCH   7   9
ENDBRANCH   6   7
BRANCH   6  11
HETATM   11  N           1     -19.044 -11.746  -5.089  0.00  0.00    -0.066 N 
HETATM   12  H           1     -18.391 -12.190  -4.405  0.00  0.00     0.275 HD
HETATM   13  H           1     -18.593 -11.712  -6.030  0.00  0.00     0.275 HD
HETATM   14  H           1     -19.924 -12.307  -5.145  0.00  0.00     0.275 HD
ENDBRANCH   6  11
ENDBRANCH   3   6
ENDBRANCH   1   2
BRANCH   1  15
HETATM   15  C           1     -22.037  -6.522  -5.539  0.00  0.00     0.197 C 
HETATM   16  O           1     -21.477  -6.041  -6.549  0.00  0.00    -0.646 OA
HETATM   17  O           1     -23.139  -6.069  -5.161  0.00  0.00    -0.646 OA
ENDBRANCH   1  15
BRANCH   1  18
HETATM   18  C           1     -20.525  -7.074  -3.658  0.00  0.00     0.077 C 
BRANCH  18  19
HETATM   19  C           1     -21.237  -7.231  -2.352  0.00  0.00    -0.028 A 
HETATM   20  C           1     -21.114  -8.329  -1.456  0.00  0.00    -0.002 A 
HETATM   21  C           1     -21.949  -8.068  -0.369  0.00  0.00     0.042 A 
HETATM   22  C           1     -20.371  -9.524  -1.467  0.00  0.00     0.014 A 
HETATM   23  N           1     -22.553  -6.854  -0.605  0.00  0.00    -0.365 N 
HETATM   24  C           1     -22.078  -8.947   0.714  0.00  0.00     0.030 A 
HETATM   25  C           1     -22.129  -6.339  -1.801  0.00  0.00     0.096 A 
HETATM   26  H           1     -23.239  -6.388   0.039  0.00  0.00     0.165 HD
HETATM   27  C           1     -21.329 -10.127   0.680  0.00  0.00     0.002 A 
HETATM   28  C           1     -20.487 -10.414  -0.393  0.00  0.00     0.001 A 
ENDBRANCH  18  19
ENDBRANCH   1  18
TORSDOF 8
ENDMDL
MODEL 9
REMARK VINA RESULT:      -7.2      5.038      8.035
REMARK  8 active torsions:
REMARK  status: ('A' for Active; 'I' for Inactive)
REMARK    1  A    between atoms: C_7  and  C_10 
REMARK    2  A    between atoms: C_7  and  C_8 
REMARK    3  A    between atoms: C_7  and  N_19 
REMARK    4  A    between atoms: C_8  and  C_17 
REMARK       I    between atoms: C_10  and  N_11 
REMARK    5  A    between atoms: N_11  and  C_18 
REMARK    6  A    between atoms: C_13  and  C_21 
REMARK    7  A    between atoms: C_14  and  C_18 
REMARK    8  A    between atoms: C_18  and  C_21 
ROOT
HETATM    1  C           1     -19.384 -10.163  -4.854  0.00  0.00     0.190 C 
ENDROOT
BRANCH   1   2
HETATM    2  N           1     -18.454 -10.147  -5.966  0.00  0.00    -0.344 N 
HETATM    3  C           1     -18.184 -11.303  -6.648  0.00  0.00     0.249 C 
HETATM    4  O           1     -18.853 -11.609  -7.607  0.00  0.00    -0.271 OA
HETATM    5  H           1     -18.004  -9.282  -6.237  0.00  0.00     0.163 HD
BRANCH   3   6
HETATM    6  C           1     -17.051 -12.194  -6.204  0.00  0.00     0.278 C 
BRANCH   6   7
HETATM    7  C           1     -15.787 -11.362  -6.027  0.00  0.00     0.021 C 
HETATM    8  C           1     -15.441 -11.273  -4.546  0.00  0.00     0.012 C 
BRANCH   7   9
HETATM    9  C           1     -14.637 -12.019  -6.778  0.00  0.00     0.002 C 
HETATM   10  C           1     -13.536 -12.393  -5.795  0.00  0.00     0.005 C 
ENDBRANCH   7   9
ENDBRANCH   6   7
BRANCH   6  11
HETATM   11  N           1     -16.811 -13.252  -7.239  0.00  0.00    -0.066 N 
HETATM   12  H           1     -16.429 -14.109  -6.780  0.00  0.00     0.275 HD
HETATM   13  H           1     -16.126 -12.900  -7.945  0.00  0.00     0.275 HD
HETATM   14  H           1     -17.711 -13.485  -7.715  0.00  0.00     0.275 HD
ENDBRANCH   6  11
ENDBRANCH   3   6
ENDBRANCH   1   2
BRANCH   1  15
HETATM   15  C           1     -20.784  -9.929  -5.367  0.00  0.00     0.197 C 
HETATM   16  O           1     -21.609 -10.869  -5.382  0.00  0.00    -0.646 OA
HETATM   17  O           1     -21.119  -8.797  -5.777  0.00  0.00    -0.646 OA
ENDBRANCH   1  15
BRANCH   1  18
HETATM   18  C           1     -19.014  -9.063  -3.868  0.00  0.00     0.077 C 
BRANCH  18  19
HETATM   19  C           1     -19.726  -9.292  -2.572  0.00  0.00    -0.028 A 
HETATM   20  C           1     -20.681  -8.423  -1.975  0.00  0.00    -0.002 A 
HETATM   21  C           1     -21.089  -9.020  -0.782  0.00  0.00     0.042 A 
HETATM   22  C           1     -21.237  -7.182  -2.337  0.00  0.00     0.014 A 
HETATM   23  N           1     -20.402 -10.207  -0.667  0.00  0.00    -0.365 N 
HETATM   24  C           1     -22.031  -8.435   0.073  0.00  0.00     0.030 A 
HETATM   25  C           1     -19.575 -10.382  -1.745  0.00  0.00     0.096 A 
HETATM   26  H           1     -20.498 -10.883   0.132  0.00  0.00     0.165 HD
HETATM   27  C           1     -22.570  -7.202  -0.309  0.00  0.00     0.002 A 
HETATM   28  C           1     -22.181  -6.583  -1.495  0.00  0.00     0.001 A 
ENDBRANCH  18  19
ENDBRANCH   1  18
TORSDOF 8
ENDMDL
