MODEL 1
REMARK VINA RESULT:      -5.6      0.000      0.000
REMARK  3 active torsions:
REMARK  status: ('A' for Active; 'I' for Inactive)
REMARK    1  A    between atoms: N_8  and  C_10 
REMARK    2  A    between atoms: C_10  and  C_11 
REMARK       I    between atoms: C_11  and  N_12 
REMARK    3  A    between atoms: C_13  and  C_15 
ROOT
HETATM    1  C           1     -21.676  -2.883 -11.190  0.00  0.00     0.038 C 
HETATM    2  C           1     -20.358  -3.637 -11.330  0.00  0.00     0.022 C 
HETATM    3  C           1     -20.508  -4.864 -10.447  0.00  0.00     0.127 C 
HETATM    4  O           1     -22.452  -4.350  -7.446  0.00  0.00    -0.271 OA
HETATM    5  C           1     -21.539  -4.745  -8.130  0.00  0.00     0.250 C 
HETATM    6  N           1     -21.521  -4.471  -9.472  0.00  0.00    -0.336 N 
HETATM    7  C           1     -22.512  -3.722 -10.239  0.00  0.00     0.188 C 
ENDROOT
BRANCH   5   8
HETATM    8  C           1     -20.418  -5.541  -7.508  0.00  0.00     0.271 C 
HETATM    9  C           1     -20.966  -6.382  -6.364  0.00  0.00     0.050 C 
BRANCH   8  10
HETATM   10  N           1     -19.372  -4.602  -6.983  0.00  0.00    -0.067 N 
HETATM   11  H           1     -18.852  -4.178  -7.783  0.00  0.00     0.275 HD
HETATM   12  H           1     -18.706  -5.129  -6.373  0.00  0.00     0.275 HD
HETATM   13  H           1     -19.831  -3.847  -6.425  0.00  0.00     0.275 HD
ENDBRANCH   8  10
ENDBRANCH   5   8
BRANCH   7  14
HETATM   14  C           1     -23.419  -4.656 -11.004  0.00  0.00     0.196 C 
HETATM   15  O           1     -23.551  -4.526 -12.240  0.00  0.00    -0.646 OA
HETATM   16  O           1     -24.039  -5.557 -10.400  0.00  0.00    -0.646 OA
ENDBRANCH   7  14
TORSDOF 3
ENDMDL
MODEL 2
REMARK VINA RESULT:      -5.0      9.491     10.804
REMARK  3 active torsions:
REMARK  status: ('A' for Active; 'I' for Inactive)
REMARK    1  A    between atoms: N_8  and  C_10 
REMARK    2  A    between atoms: C_10  and  C_11 
REMARK       I    between atoms: C_11  and  N_12 
REMARK    3  A    between atoms: C_13  and  C_15 
ROOT
HETATM    1  C           1     -28.283  -4.271 -16.924  0.00  0.00     0.038 C 
HETATM    2  C           1     -29.015  -4.644 -18.209  0.00  0.00     0.022 C 
HETATM    3  C           1     -28.437  -5.988 -18.617  0.00  0.00     0.127 C 
HETATM    4  O           1     -24.933  -6.433 -17.860  0.00  0.00    -0.271 OA
HETATM    5  C           1     -25.950  -6.481 -18.510  0.00  0.00     0.250 C 
HETATM    6  N           1     -27.123  -6.011 -17.983  0.00  0.00    -0.336 N 
HETATM    7  C           1     -27.332  -5.425 -16.662  0.00  0.00     0.188 C 
ENDROOT
BRANCH   5   8
HETATM    8  C           1     -25.927  -7.057 -19.905  0.00  0.00     0.271 C 
HETATM    9  C           1     -24.560  -7.665 -20.181  0.00  0.00     0.050 C 
BRANCH   8  10
HETATM   10  N           1     -26.200  -5.967 -20.900  0.00  0.00    -0.067 N 
HETATM   11  H           1     -25.377  -5.859 -21.533  0.00  0.00     0.275 HD
HETATM   12  H           1     -26.372  -5.069 -20.394  0.00  0.00     0.275 HD
HETATM   13  H           1     -27.044  -6.215 -21.465  0.00  0.00     0.275 HD
ENDBRANCH   8  10
ENDBRANCH   5   8
BRANCH   7  14
HETATM   14  C           1     -27.951  -6.429 -15.719  0.00  0.00     0.196 C 
HETATM   15  O           1     -29.062  -6.193 -15.198  0.00  0.00    -0.646 OA
HETATM   16  O           1     -27.352  -7.495 -15.460  0.00  0.00    -0.646 OA
ENDBRANCH   7  14
TORSDOF 3
ENDMDL
MODEL 3
REMARK VINA RESULT:      -4.9      7.971      9.996
REMARK  3 active torsions:
REMARK  status: ('A' for Active; 'I' for Inactive)
REMARK    1  A    between atoms: N_8  and  C_10 
REMARK    2  A    between atoms: C_10  and  C_11 
REMARK       I    between atoms: C_11  and  N_12 
REMARK    3  A    between atoms: C_13  and  C_15 
ROOT
HETATM    1  C           1     -29.481  -6.734 -18.077  0.00  0.00     0.038 C 
HETATM    2  C           1     -29.424  -7.461 -16.738  0.00  0.00     0.022 C 
HETATM    3  C           1     -28.178  -6.927 -16.052  0.00  0.00     0.127 C 
HETATM    4  O           1     -25.432  -6.154 -18.267  0.00  0.00    -0.271 OA
HETATM    5  C           1     -25.988  -6.595 -17.290  0.00  0.00     0.250 C 
HETATM    6  N           1     -27.343  -6.461 -17.155  0.00  0.00    -0.336 N 
HETATM    7  C           1     -28.270  -5.818 -18.083  0.00  0.00     0.188 C 
ENDROOT
BRANCH   5   8
HETATM    8  C           1     -25.189  -7.295 -16.218  0.00  0.00     0.271 C 
HETATM    9  C           1     -24.931  -6.333 -15.067  0.00  0.00     0.050 C 
BRANCH   8  10
HETATM   10  N           1     -23.879  -7.753 -16.791  0.00  0.00    -0.067 N 
HETATM   11  H           1     -23.355  -6.930 -17.163  0.00  0.00     0.275 HD
HETATM   12  H           1     -24.056  -8.433 -17.564  0.00  0.00     0.275 HD
HETATM   13  H           1     -23.315  -8.216 -16.043  0.00  0.00     0.275 HD
ENDBRANCH   8  10
ENDBRANCH   5   8
BRANCH   7  14
HETATM   14  C           1     -28.640  -4.435 -17.602  0.00  0.00     0.196 C 
HETATM   15  O           1     -27.867  -3.810 -16.844  0.00  0.00    -0.646 OA
HETATM   16  O           1     -29.719  -3.917 -17.962  0.00  0.00    -0.646 OA
ENDBRANCH   7  14
TORSDOF 3
ENDMDL
MODEL 4
REMARK VINA RESULT:      -4.7      6.822      8.552
REMARK  3 active torsions:
REMARK  status: ('A' for Active; 'I' for Inactive)
REMARK    1  A    between atoms: N_8  and  C_10 
REMARK    2  A    between atoms: C_10  and  C_11 
REMARK       I    between atoms: C_11  and  N_12 
REMARK    3  A    between atoms: C_13  and  C_15 
ROOT
HETATM    1  C           1     -21.822  -7.699  -4.598  0.00  0.00     0.038 C 
HETATM    2  C           1     -21.828  -6.361  -3.865  0.00  0.00     0.022 C 
HETATM    3  C           1     -21.270  -6.664  -2.485  0.00  0.00     0.127 C 
HETATM    4  O           1     -22.147  -9.910  -1.167  0.00  0.00    -0.271 OA
HETATM    5  C           1     -21.965  -8.717  -1.164  0.00  0.00     0.250 C 
HETATM    6  N           1     -21.539  -8.087  -2.303  0.00  0.00    -0.336 N 
HETATM    7  C           1     -21.254  -8.693  -3.601  0.00  0.00     0.188 C 
ENDROOT
BRANCH   5   8
HETATM    8  C           1     -22.209  -7.918   0.092  0.00  0.00     0.271 C 
HETATM    9  C           1     -21.300  -8.427   1.202  0.00  0.00     0.050 C 
BRANCH   8  10
HETATM   10  N           1     -23.643  -8.071   0.511  0.00  0.00    -0.067 N 
HETATM   11  H           1     -24.078  -8.858  -0.021  0.00  0.00     0.275 HD
HETATM   12  H           1     -24.160  -7.186   0.311  0.00  0.00     0.275 HD
HETATM   13  H           1     -23.687  -8.275   1.535  0.00  0.00     0.275 HD
ENDBRANCH   8  10
ENDBRANCH   5   8
BRANCH   7  14
HETATM   14  C           1     -19.767  -8.864  -3.799  0.00  0.00     0.196 C 
HETATM   15  O           1     -19.243  -8.556  -4.891  0.00  0.00    -0.646 OA
HETATM   16  O           1     -19.061  -9.316  -2.873  0.00  0.00    -0.646 OA
ENDBRANCH   7  14
TORSDOF 3
ENDMDL
MODEL 5
REMARK VINA RESULT:      -4.6      8.173      9.950
REMARK  3 active torsions:
REMARK  status: ('A' for Active; 'I' for Inactive)
REMARK    1  A    between atoms: N_8  and  C_10 
REMARK    2  A    between atoms: C_10  and  C_11 
REMARK       I    between atoms: C_11  and  N_12 
REMARK    3  A    between atoms: C_13  and  C_15 
ROOT
HETATM    1  C           1     -20.310  -7.938  -2.579  0.00  0.00     0.038 C 
HETATM    2  C           1     -20.940  -9.052  -3.409  0.00  0.00     0.022 C 
HETATM    3  C           1     -22.007  -9.657  -2.513  0.00  0.00     0.127 C 
HETATM    4  O           1     -21.190  -9.713   1.005  0.00  0.00    -0.271 OA
HETATM    5  C           1     -21.601 -10.127  -0.052  0.00  0.00     0.250 C 
HETATM    6  N           1     -21.559  -9.328  -1.163  0.00  0.00    -0.336 N 
HETATM    7  C           1     -21.055  -7.960  -1.256  0.00  0.00     0.188 C 
ENDROOT
BRANCH   5   8
HETATM    8  C           1     -22.162 -11.524  -0.149  0.00  0.00     0.271 C 
HETATM    9  C           1     -23.668 -11.483   0.066  0.00  0.00     0.050 C 
BRANCH   8  10
HETATM   10  N           1     -21.530 -12.389   0.902  0.00  0.00    -0.067 N 
HETATM   11  H           1     -20.579 -12.022   1.130  0.00  0.00     0.275 HD
HETATM   12  H           1     -21.450 -13.368   0.545  0.00  0.00     0.275 HD
HETATM   13  H           1     -22.123 -12.381   1.763  0.00  0.00     0.275 HD
ENDBRANCH   8  10
ENDBRANCH   5   8
BRANCH   7  14
HETATM   14  C           1     -22.193  -6.968  -1.263  0.00  0.00     0.196 C 
HETATM   15  O           1     -23.084  -7.033  -0.390  0.00  0.00    -0.646 OA
HETATM   16  O           1     -22.244  -6.082  -2.144  0.00  0.00    -0.646 OA
ENDBRANCH   7  14
TORSDOF 3
ENDMDL
MODEL 6
REMARK VINA RESULT:      -4.6      8.650     10.833
REMARK  3 active torsions:
REMARK  status: ('A' for Active; 'I' for Inactive)
REMARK    1  A    between atoms: N_8  and  C_10 
REMARK    2  A    between atoms: C_10  and  C_11 
REMARK       I    between atoms: C_11  and  N_12 
REMARK    3  A    between atoms: C_13  and  C_15 
ROOT
HETATM    1  C           1     -23.792 -11.263  -0.130  0.00  0.00     0.038 C 
HETATM    2  C           1     -23.697 -11.270  -1.652  0.00  0.00     0.022 C 
HETATM    3  C           1     -22.518 -10.369  -1.978  0.00  0.00     0.127 C 
HETATM    4  O           1     -22.083  -7.561   0.252  0.00  0.00    -0.271 OA
HETATM    5  C           1     -22.139  -8.154  -0.798  0.00  0.00     0.250 C 
HETATM    6  N           1     -22.411  -9.496  -0.813  0.00  0.00    -0.336 N 
HETATM    7  C           1     -22.658 -10.366   0.334  0.00  0.00     0.188 C 
ENDROOT
BRANCH   5   8
HETATM    8  C           1     -21.910  -7.417  -2.095  0.00  0.00     0.271 C 
HETATM    9  C           1     -20.431  -7.461  -2.450  0.00  0.00     0.050 C 
BRANCH   8  10
HETATM   10  N           1     -22.345  -5.989  -1.940  0.00  0.00    -0.067 N 
HETATM   11  H           1     -21.875  -5.570  -1.107  0.00  0.00     0.275 HD
HETATM   12  H           1     -23.381  -5.952  -1.812  0.00  0.00     0.275 HD
HETATM   13  H           1     -22.082  -5.450  -2.796  0.00  0.00     0.275 HD
ENDBRANCH   8  10
ENDBRANCH   5   8
BRANCH   7  14
HETATM   14  C           1     -21.430 -11.179   0.666  0.00  0.00     0.196 C 
HETATM   15  O           1     -20.323 -10.614   0.797  0.00  0.00    -0.646 OA
HETATM   16  O           1     -21.521 -12.417   0.808  0.00  0.00    -0.646 OA
ENDBRANCH   7  14
TORSDOF 3
ENDMDL
MODEL 7
REMARK VINA RESULT:      -4.6      9.767     11.275
REMARK  3 active torsions:
REMARK  status: ('A' for Active; 'I' for Inactive)
REMARK    1  A    between atoms: N_8  and  C_10 
REMARK    2  A    between atoms: C_10  and  C_11 
REMARK       I    between atoms: C_11  and  N_12 
REMARK    3  A    between atoms: C_13  and  C_15 
ROOT
HETATM    1  C           1     -28.616  -7.117 -16.386  0.00  0.00     0.038 C 
HETATM    2  C           1     -27.242  -6.707 -15.868  0.00  0.00     0.022 C 
HETATM    3  C           1     -26.604  -5.934 -17.009  0.00  0.00     0.127 C 
HETATM    4  O           1     -27.459  -7.114 -20.314  0.00  0.00    -0.271 OA
HETATM    5  C           1     -26.754  -6.710 -19.421  0.00  0.00     0.250 C 
HETATM    6  N           1     -27.296  -6.426 -18.196  0.00  0.00    -0.336 N 
HETATM    7  C           1     -28.694  -6.550 -17.792  0.00  0.00     0.188 C 
ENDROOT
BRANCH   5   8
HETATM    8  C           1     -25.275  -6.518 -19.653  0.00  0.00     0.271 C 
HETATM    9  C           1     -24.974  -6.648 -21.140  0.00  0.00     0.050 C 
BRANCH   8  10
HETATM   10  N           1     -24.511  -7.563 -18.895  0.00  0.00    -0.067 N 
HETATM   11  H           1     -23.660  -7.834 -19.436  0.00  0.00     0.275 HD
HETATM   12  H           1     -25.116  -8.403 -18.753  0.00  0.00     0.275 HD
HETATM   13  H           1     -24.226  -7.180 -17.965  0.00  0.00     0.275 HD
ENDBRANCH   8  10
ENDBRANCH   5   8
BRANCH   7  14
HETATM   14  C           1     -29.375  -5.203 -17.792  0.00  0.00     0.196 C 
HETATM   15  O           1     -30.016  -4.827 -16.786  0.00  0.00    -0.646 OA
HETATM   16  O           1     -29.301  -4.465 -18.797  0.00  0.00    -0.646 OA
ENDBRANCH   7  14
TORSDOF 3
ENDMDL
MODEL 8
REMARK VINA RESULT:      -4.5      6.967     10.146
REMARK  3 active torsions:
REMARK  status: ('A' for Active; 'I' for Inactive)
REMARK    1  A    between atoms: N_8  and  C_10 
REMARK    2  A    between atoms: C_10  and  C_11 
REMARK       I    between atoms: C_11  and  N_12 
REMARK    3  A    between atoms: C_13  and  C_15 
ROOT
HETATM    1  C           1     -21.040  -8.926   1.177  0.00  0.00     0.038 C 
HETATM    2  C           1     -22.256  -8.006   1.190  0.00  0.00     0.022 C 
HETATM    3  C           1     -22.764  -8.002  -0.241  0.00  0.00     0.127 C 
HETATM    4  O           1     -20.195  -8.234  -2.770  0.00  0.00    -0.271 OA
HETATM    5  C           1     -21.200  -7.833  -2.232  0.00  0.00     0.250 C 
HETATM    6  N           1     -21.590  -8.360  -1.031  0.00  0.00    -0.336 N 
HETATM    7  C           1     -20.922  -9.405  -0.259  0.00  0.00     0.188 C 
ENDROOT
BRANCH   5   8
HETATM    8  C           1     -22.024  -6.751  -2.884  0.00  0.00     0.271 C 
HETATM    9  C           1     -21.399  -6.370  -4.219  0.00  0.00     0.050 C 
BRANCH   8  10
HETATM   10  N           1     -22.064  -5.546  -1.989  0.00  0.00    -0.067 N 
HETATM   11  H           1     -21.787  -5.823  -1.021  0.00  0.00     0.275 HD
HETATM   12  H           1     -23.032  -5.154  -1.977  0.00  0.00     0.275 HD
HETATM   13  H           1     -21.400  -4.823  -2.349  0.00  0.00     0.275 HD
ENDBRANCH   8  10
ENDBRANCH   5   8
BRANCH   7  14
HETATM   14  C           1     -21.614 -10.734  -0.441  0.00  0.00     0.196 C 
HETATM   15  O           1     -21.929 -11.416   0.558  0.00  0.00    -0.646 OA
HETATM   16  O           1     -21.871 -11.153  -1.590  0.00  0.00    -0.646 OA
ENDBRANCH   7  14
TORSDOF 3
ENDMDL
MODEL 9
REMARK VINA RESULT:      -4.3     19.881     21.350
REMARK  3 active torsions:
REMARK  status: ('A' for Active; 'I' for Inactive)
REMARK    1  A    between atoms: N_8  and  C_10 
REMARK    2  A    between atoms: C_10  and  C_11 
REMARK       I    between atoms: C_11  and  N_12 
REMARK    3  A    between atoms: C_13  and  C_15 
ROOT
HETATM    1  C           1     -15.261   9.007   6.827  0.00  0.00     0.038 C 
HETATM    2  C           1     -13.841   8.605   6.444  0.00  0.00     0.022 C 
HETATM    3  C           1     -13.633   9.168   5.049  0.00  0.00     0.127 C 
HETATM    4  O           1     -16.572   9.162   2.950  0.00  0.00    -0.271 OA
HETATM    5  C           1     -15.412   9.009   3.246  0.00  0.00     0.250 C 
HETATM    6  N           1     -14.986   9.292   4.516  0.00  0.00    -0.336 N 
HETATM    7  C           1     -15.787   9.785   5.633  0.00  0.00     0.188 C 
ENDROOT
BRANCH   5   8
HETATM    8  C           1     -14.431   8.505   2.216  0.00  0.00     0.271 C 
HETATM    9  C           1     -13.798   9.687   1.496  0.00  0.00     0.050 C 
BRANCH   8  10
HETATM   10  N           1     -15.150   7.641   1.222  0.00  0.00    -0.067 N 
HETATM   11  H           1     -15.321   6.699   1.639  0.00  0.00     0.275 HD
HETATM   12  H           1     -14.568   7.542   0.361  0.00  0.00     0.275 HD
HETATM   13  H           1     -16.065   8.083   0.974  0.00  0.00     0.275 HD
ENDBRANCH   8  10
ENDBRANCH   5   8
BRANCH   7  14
HETATM   14  C           1     -15.584  11.268   5.827  0.00  0.00     0.196 C 
HETATM   15  O           1     -15.852  12.061   4.899  0.00  0.00    -0.646 OA
HETATM   16  O           1     -15.148  11.702   6.915  0.00  0.00    -0.646 OA
ENDBRANCH   7  14
TORSDOF 3
ENDMDL
