MODEL 1
REMARK VINA RESULT:      -6.7      0.000      0.000
REMARK  3 active torsions:
REMARK  status: ('A' for Active; 'I' for Inactive)
REMARK       I    between atoms: C_8  and  N_14 
REMARK    1  A    between atoms: C_8  and  C_20 
REMARK    2  A    between atoms: C_12  and  C_19 
REMARK    3  A    between atoms: N_14  and  C_19 
ROOT
HETATM    1  H           1     -30.648  -5.824 -16.132  0.00  0.00     0.275 HD
HETATM    2  H           1     -30.660  -7.517 -16.348  0.00  0.00     0.275 HD
HETATM    3  H           1     -31.381  -6.503 -17.515  0.00  0.00     0.275 HD
HETATM    4  C           1     -31.745  -3.994 -17.502  0.00  0.00     0.229 C 
HETATM    5  H           1     -31.950  -3.810 -15.426  0.00  0.00     0.274 HD
HETATM    6  H           1     -31.071  -5.187 -15.918  0.00  0.00     0.274 HD
HETATM    7  H           1     -32.768  -5.153 -16.087  0.00  0.00     0.274 HD
HETATM    8  N           1     -31.895  -4.581 -16.129  0.00  0.00    -0.079 N 
HETATM    9  N           1     -30.593  -6.595 -16.835  0.00  0.00    -0.067 N 
HETATM   10  C           1     -29.271  -4.044 -17.254  0.00  0.00     0.004 C 
HETATM   11  C           1     -30.472  -3.160 -17.563  0.00  0.00     0.027 C 
HETATM   12  C           1     -29.286  -6.511 -17.568  0.00  0.00     0.274 C 
HETATM   13  C           1     -29.189  -5.168 -18.279  0.00  0.00     0.042 C 
ENDROOT
BRANCH  12  14
HETATM   14  C           1     -28.149  -6.644 -16.585  0.00  0.00     0.248 C 
HETATM   15  O           1     -28.377  -6.915 -15.430  0.00  0.00    -0.271 OA
HETATM   16  N           1     -26.858  -6.457 -17.002  0.00  0.00    -0.349 N 
HETATM   17  H           1     -26.667  -6.230 -17.970  0.00  0.00     0.163 HD
BRANCH  16  18
HETATM   18  C           1     -25.765  -6.585 -16.058  0.00  0.00     0.235 C 
BRANCH  18  19
HETATM   19  C           1     -24.614  -7.306 -16.714  0.00  0.00     0.191 C 
HETATM   20  O           1     -24.127  -6.868 -17.779  0.00  0.00    -0.647 OA
HETATM   21  O           1     -24.147  -8.342 -16.193  0.00  0.00    -0.647 OA
ENDBRANCH  18  19
ENDBRANCH  16  18
ENDBRANCH  12  14
TORSDOF 3
ENDMDL
MODEL 2
REMARK VINA RESULT:      -5.9     10.676     12.576
REMARK  3 active torsions:
REMARK  status: ('A' for Active; 'I' for Inactive)
REMARK       I    between atoms: C_8  and  N_14 
REMARK    1  A    between atoms: C_8  and  C_20 
REMARK    2  A    between atoms: C_12  and  C_19 
REMARK    3  A    between atoms: N_14  and  C_19 
ROOT
HETATM    1  H           1     -20.051  -4.876  -9.155  0.00  0.00     0.275 HD
HETATM    2  H           1     -18.947  -4.422  -7.934  0.00  0.00     0.275 HD
HETATM    3  H           1     -19.706  -3.226  -8.885  0.00  0.00     0.275 HD
HETATM    4  C           1     -21.242  -3.460 -10.889  0.00  0.00     0.229 C 
HETATM    5  H           1     -20.407  -5.243 -11.602  0.00  0.00     0.274 HD
HETATM    6  H           1     -20.161  -4.978  -9.934  0.00  0.00     0.274 HD
HETATM    7  H           1     -19.255  -4.098 -11.081  0.00  0.00     0.274 HD
HETATM    8  N           1     -20.186  -4.525 -10.875  0.00  0.00    -0.079 N 
HETATM    9  N           1     -19.830  -4.158  -8.428  0.00  0.00    -0.067 N 
HETATM   10  C           1     -22.562  -4.744  -9.218  0.00  0.00     0.004 C 
HETATM   11  C           1     -22.599  -4.083 -10.589  0.00  0.00     0.027 C 
HETATM   12  C           1     -20.955  -4.086  -7.437  0.00  0.00     0.274 C 
HETATM   13  C           1     -22.240  -3.699  -8.157  0.00  0.00     0.042 C 
ENDROOT
BRANCH  12  14
HETATM   14  C           1     -21.131  -5.431  -6.779  0.00  0.00     0.248 C 
HETATM   15  O           1     -20.529  -6.392  -7.196  0.00  0.00    -0.271 OA
HETATM   16  N           1     -21.974  -5.564  -5.708  0.00  0.00    -0.349 N 
HETATM   17  H           1     -22.479  -4.759  -5.358  0.00  0.00     0.163 HD
BRANCH  16  18
HETATM   18  C           1     -22.145  -6.858  -5.074  0.00  0.00     0.235 C 
BRANCH  18  19
HETATM   19  C           1     -21.745  -6.763  -3.623  0.00  0.00     0.191 C 
HETATM   20  O           1     -22.329  -5.959  -2.864  0.00  0.00    -0.647 OA
HETATM   21  O           1     -20.829  -7.490  -3.178  0.00  0.00    -0.647 OA
ENDBRANCH  18  19
ENDBRANCH  16  18
ENDBRANCH  12  14
TORSDOF 3
ENDMDL
MODEL 3
REMARK VINA RESULT:      -5.7      1.984      2.887
REMARK  3 active torsions:
REMARK  status: ('A' for Active; 'I' for Inactive)
REMARK       I    between atoms: C_8  and  N_14 
REMARK    1  A    between atoms: C_8  and  C_20 
REMARK    2  A    between atoms: C_12  and  C_19 
REMARK    3  A    between atoms: N_14  and  C_19 
ROOT
HETATM    1  H           1     -27.967  -5.082 -17.699  0.00  0.00     0.275 HD
HETATM    2  H           1     -26.879  -4.061 -16.869  0.00  0.00     0.275 HD
HETATM    3  H           1     -28.526  -4.095 -16.424  0.00  0.00     0.275 HD
HETATM    4  C           1     -30.484  -5.303 -17.488  0.00  0.00     0.229 C 
HETATM    5  H           1     -29.748  -5.239 -19.447  0.00  0.00     0.274 HD
HETATM    6  H           1     -28.541  -5.122 -18.246  0.00  0.00     0.274 HD
HETATM    7  H           1     -29.543  -3.783 -18.582  0.00  0.00     0.274 HD
HETATM    8  N           1     -29.505  -4.826 -18.519  0.00  0.00    -0.079 N 
HETATM    9  N           1     -27.724  -4.668 -16.770  0.00  0.00    -0.067 N 
HETATM   10  C           1     -29.022  -7.255 -17.001  0.00  0.00     0.004 C 
HETATM   11  C           1     -30.428  -6.822 -17.397  0.00  0.00     0.027 C 
HETATM   12  C           1     -27.436  -5.769 -15.792  0.00  0.00     0.274 C 
HETATM   13  C           1     -28.667  -6.653 -15.647  0.00  0.00     0.042 C 
ENDROOT
BRANCH  12  14
HETATM   14  C           1     -26.278  -6.596 -16.294  0.00  0.00     0.248 C 
HETATM   15  O           1     -25.799  -7.454 -15.591  0.00  0.00    -0.271 OA
HETATM   16  N           1     -25.770  -6.374 -17.546  0.00  0.00    -0.349 N 
HETATM   17  H           1     -26.171  -5.656 -18.134  0.00  0.00     0.163 HD
BRANCH  16  18
HETATM   18  C           1     -24.657  -7.169 -18.029  0.00  0.00     0.235 C 
BRANCH  18  19
HETATM   19  C           1     -24.687  -7.214 -19.536  0.00  0.00     0.191 C 
HETATM   20  O           1     -25.618  -6.660 -20.160  0.00  0.00    -0.647 OA
HETATM   21  O           1     -23.780  -7.805 -20.162  0.00  0.00    -0.647 OA
ENDBRANCH  18  19
ENDBRANCH  16  18
ENDBRANCH  12  14
TORSDOF 3
ENDMDL
MODEL 4
REMARK VINA RESULT:      -5.3      2.333      2.788
REMARK  3 active torsions:
REMARK  status: ('A' for Active; 'I' for Inactive)
REMARK       I    between atoms: C_8  and  N_14 
REMARK    1  A    between atoms: C_8  and  C_20 
REMARK    2  A    between atoms: C_12  and  C_19 
REMARK    3  A    between atoms: N_14  and  C_19 
ROOT
HETATM    1  H           1     -29.324  -4.177 -17.882  0.00  0.00     0.275 HD
HETATM    2  H           1     -27.818  -3.544 -17.386  0.00  0.00     0.275 HD
HETATM    3  H           1     -28.981  -3.991 -16.220  0.00  0.00     0.275 HD
HETATM    4  C           1     -31.371  -4.785 -16.513  0.00  0.00     0.229 C 
HETATM    5  H           1     -31.750  -3.708 -18.269  0.00  0.00     0.274 HD
HETATM    6  H           1     -30.096  -4.025 -17.990  0.00  0.00     0.274 HD
HETATM    7  H           1     -30.900  -2.825 -17.083  0.00  0.00     0.274 HD
HETATM    8  N           1     -31.001  -3.758 -17.542  0.00  0.00    -0.079 N 
HETATM    9  N           1     -28.575  -4.226 -17.154  0.00  0.00    -0.067 N 
HETATM   10  C           1     -30.199  -6.534 -17.838  0.00  0.00     0.004 C 
HETATM   11  C           1     -31.518  -6.145 -17.182  0.00  0.00     0.027 C 
HETATM   12  C           1     -28.004  -5.613 -17.118  0.00  0.00     0.274 C 
HETATM   13  C           1     -29.107  -6.607 -16.779  0.00  0.00     0.042 C 
ENDROOT
BRANCH  12  14
HETATM   14  C           1     -27.419  -5.951 -18.467  0.00  0.00     0.248 C 
HETATM   15  O           1     -27.978  -5.591 -19.475  0.00  0.00    -0.271 OA
HETATM   16  N           1     -26.254  -6.667 -18.548  0.00  0.00    -0.349 N 
HETATM   17  H           1     -25.786  -6.968 -17.703  0.00  0.00     0.163 HD
BRANCH  16  18
HETATM   18  C           1     -25.691  -6.992 -19.845  0.00  0.00     0.235 C 
BRANCH  18  19
HETATM   19  C           1     -24.226  -7.317 -19.690  0.00  0.00     0.191 C 
HETATM   20  O           1     -23.573  -6.826 -18.745  0.00  0.00    -0.647 OA
HETATM   21  O           1     -23.666  -8.078 -20.509  0.00  0.00    -0.647 OA
ENDBRANCH  18  19
ENDBRANCH  16  18
ENDBRANCH  12  14
TORSDOF 3
ENDMDL
MODEL 5
REMARK VINA RESULT:      -5.2      2.767      3.458
REMARK  3 active torsions:
REMARK  status: ('A' for Active; 'I' for Inactive)
REMARK       I    between atoms: C_8  and  N_14 
REMARK    1  A    between atoms: C_8  and  C_20 
REMARK    2  A    between atoms: C_12  and  C_19 
REMARK    3  A    between atoms: N_14  and  C_19 
ROOT
HETATM    1  H           1     -27.221  -4.422 -16.895  0.00  0.00     0.275 HD
HETATM    2  H           1     -26.354  -5.259 -15.685  0.00  0.00     0.275 HD
HETATM    3  H           1     -28.057  -5.180 -15.615  0.00  0.00     0.275 HD
HETATM    4  C           1     -29.698  -3.911 -17.073  0.00  0.00     0.229 C 
HETATM    5  H           1     -28.416  -2.315 -17.513  0.00  0.00     0.274 HD
HETATM    6  H           1     -27.610  -3.755 -17.080  0.00  0.00     0.274 HD
HETATM    7  H           1     -28.372  -2.810 -15.882  0.00  0.00     0.274 HD
HETATM    8  N           1     -28.428  -3.140 -16.872  0.00  0.00    -0.079 N 
HETATM    9  N           1     -27.232  -5.246 -16.253  0.00  0.00    -0.067 N 
HETATM   10  C           1     -28.586  -5.287 -18.821  0.00  0.00     0.004 C 
HETATM   11  C           1     -29.779  -4.391 -18.516  0.00  0.00     0.027 C 
HETATM   12  C           1     -27.322  -6.508 -17.060  0.00  0.00     0.274 C 
HETATM   13  C           1     -28.601  -6.490 -17.886  0.00  0.00     0.042 C 
ENDROOT
BRANCH  12  14
HETATM   14  C           1     -26.130  -6.602 -17.980  0.00  0.00     0.248 C 
HETATM   15  O           1     -25.020  -6.390 -17.554  0.00  0.00    -0.271 OA
HETATM   16  N           1     -26.307  -6.927 -19.299  0.00  0.00    -0.349 N 
HETATM   17  H           1     -27.237  -7.105 -19.656  0.00  0.00     0.163 HD
BRANCH  16  18
HETATM   18  C           1     -25.161  -7.018 -20.183  0.00  0.00     0.235 C 
BRANCH  18  19
HETATM   19  C           1     -25.457  -7.997 -21.292  0.00  0.00     0.191 C 
HETATM   20  O           1     -24.606  -8.211 -22.182  0.00  0.00    -0.647 OA
HETATM   21  O           1     -26.556  -8.593 -21.321  0.00  0.00    -0.647 OA
ENDBRANCH  18  19
ENDBRANCH  16  18
ENDBRANCH  12  14
TORSDOF 3
ENDMDL
MODEL 6
REMARK VINA RESULT:      -5.2     13.168     14.917
REMARK  3 active torsions:
REMARK  status: ('A' for Active; 'I' for Inactive)
REMARK       I    between atoms: C_8  and  N_14 
REMARK    1  A    between atoms: C_8  and  C_20 
REMARK    2  A    between atoms: C_12  and  C_19 
REMARK    3  A    between atoms: N_14  and  C_19 
ROOT
HETATM    1  H           1     -22.258  -4.843  -5.569  0.00  0.00     0.275 HD
HETATM    2  H           1     -23.718  -5.560  -5.047  0.00  0.00     0.275 HD
HETATM    3  H           1     -23.187  -5.778  -6.654  0.00  0.00     0.275 HD
HETATM    4  C           1     -21.214  -4.761  -7.878  0.00  0.00     0.229 C 
HETATM    5  H           1     -21.203  -2.954  -6.820  0.00  0.00     0.274 HD
HETATM    6  H           1     -21.930  -4.248  -5.978  0.00  0.00     0.274 HD
HETATM    7  H           1     -22.761  -3.489  -7.261  0.00  0.00     0.274 HD
HETATM    8  N           1     -21.823  -3.789  -6.911  0.00  0.00    -0.079 N 
HETATM    9  N           1     -22.880  -5.679  -5.660  0.00  0.00    -0.067 N 
HETATM   10  C           1     -20.003  -5.865  -6.007  0.00  0.00     0.004 C 
HETATM   11  C           1     -19.847  -5.197  -7.367  0.00  0.00     0.027 C 
HETATM   12  C           1     -22.127  -6.909  -5.244  0.00  0.00     0.274 C 
HETATM   13  C           1     -20.907  -7.084  -6.139  0.00  0.00     0.042 C 
ENDROOT
BRANCH  12  14
HETATM   14  C           1     -21.684  -6.766  -3.809  0.00  0.00     0.248 C 
HETATM   15  O           1     -21.654  -5.674  -3.292  0.00  0.00    -0.271 OA
HETATM   16  N           1     -21.315  -7.873  -3.093  0.00  0.00    -0.349 N 
HETATM   17  H           1     -21.340  -8.787  -3.526  0.00  0.00     0.163 HD
BRANCH  16  18
HETATM   18  C           1     -20.889  -7.735  -1.713  0.00  0.00     0.235 C 
BRANCH  18  19
HETATM   19  C           1     -22.057  -8.001  -0.797  0.00  0.00     0.191 C 
HETATM   20  O           1     -22.258  -9.155  -0.359  0.00  0.00    -0.647 OA
HETATM   21  O           1     -22.824  -7.068  -0.475  0.00  0.00    -0.647 OA
ENDBRANCH  18  19
ENDBRANCH  16  18
ENDBRANCH  12  14
TORSDOF 3
ENDMDL
MODEL 7
REMARK VINA RESULT:      -5.2     11.678     13.769
REMARK  3 active torsions:
REMARK  status: ('A' for Active; 'I' for Inactive)
REMARK       I    between atoms: C_8  and  N_14 
REMARK    1  A    between atoms: C_8  and  C_20 
REMARK    2  A    between atoms: C_12  and  C_19 
REMARK    3  A    between atoms: N_14  and  C_19 
ROOT
HETATM    1  H           1     -20.050  -8.026  -4.905  0.00  0.00     0.275 HD
HETATM    2  H           1     -20.347  -8.840  -6.376  0.00  0.00     0.275 HD
HETATM    3  H           1     -21.377  -9.091  -5.039  0.00  0.00     0.275 HD
HETATM    4  C           1     -21.200  -8.245  -2.656  0.00  0.00     0.229 C 
HETATM    5  H           1     -19.108  -8.187  -2.595  0.00  0.00     0.274 HD
HETATM    6  H           1     -19.760  -8.088  -4.168  0.00  0.00     0.274 HD
HETATM    7  H           1     -19.741  -9.582  -3.345  0.00  0.00     0.274 HD
HETATM    8  N           1     -19.850  -8.548  -3.235  0.00  0.00    -0.079 N 
HETATM    9  N           1     -20.793  -8.388  -5.545  0.00  0.00    -0.067 N 
HETATM   10  C           1     -21.226  -6.066  -3.856  0.00  0.00     0.004 C 
HETATM   11  C           1     -21.358  -6.739  -2.495  0.00  0.00     0.027 C 
HETATM   12  C           1     -21.659  -7.250  -6.000  0.00  0.00     0.274 C 
HETATM   13  C           1     -22.308  -6.593  -4.790  0.00  0.00     0.042 C 
ENDROOT
BRANCH  12  14
HETATM   14  C           1     -20.813  -6.237  -6.731  0.00  0.00     0.248 C 
HETATM   15  O           1     -19.645  -6.462  -6.941  0.00  0.00    -0.271 OA
HETATM   16  N           1     -21.370  -5.060  -7.157  0.00  0.00    -0.349 N 
HETATM   17  H           1     -22.349  -4.871  -6.981  0.00  0.00     0.163 HD
BRANCH  16  18
HETATM   18  C           1     -20.558  -4.085  -7.860  0.00  0.00     0.235 C 
BRANCH  18  19
HETATM   19  C           1     -20.831  -4.177  -9.340  0.00  0.00     0.191 C 
HETATM   20  O           1     -20.021  -4.764 -10.091  0.00  0.00    -0.647 OA
HETATM   21  O           1     -21.867  -3.666  -9.818  0.00  0.00    -0.647 OA
ENDBRANCH  18  19
ENDBRANCH  16  18
ENDBRANCH  12  14
TORSDOF 3
ENDMDL
MODEL 8
REMARK VINA RESULT:      -5.0      2.784      6.091
REMARK  3 active torsions:
REMARK  status: ('A' for Active; 'I' for Inactive)
REMARK       I    between atoms: C_8  and  N_14 
REMARK    1  A    between atoms: C_8  and  C_20 
REMARK    2  A    between atoms: C_12  and  C_19 
REMARK    3  A    between atoms: N_14  and  C_19 
ROOT
HETATM    1  H           1     -27.013  -6.237 -18.614  0.00  0.00     0.275 HD
HETATM    2  H           1     -28.109  -6.962 -19.705  0.00  0.00     0.275 HD
HETATM    3  H           1     -27.312  -7.915 -18.536  0.00  0.00     0.275 HD
HETATM    4  C           1     -25.502  -7.293 -16.873  0.00  0.00     0.229 C 
HETATM    5  H           1     -24.614  -5.811 -18.056  0.00  0.00     0.274 HD
HETATM    6  H           1     -26.249  -6.116 -18.436  0.00  0.00     0.274 HD
HETATM    7  H           1     -25.041  -7.220 -18.916  0.00  0.00     0.274 HD
HETATM    8  N           1     -25.339  -6.554 -18.168  0.00  0.00    -0.079 N 
HETATM    9  N           1     -27.739  -6.981 -18.727  0.00  0.00    -0.067 N 
HETATM   10  C           1     -27.263  -5.682 -16.174  0.00  0.00     0.004 C 
HETATM   11  C           1     -25.937  -6.321 -15.784  0.00  0.00     0.027 C 
HETATM   12  C           1     -28.862  -6.735 -17.762  0.00  0.00     0.274 C 
HETATM   13  C           1     -28.322  -6.765 -16.339  0.00  0.00     0.042 C 
ENDROOT
BRANCH  12  14
HETATM   14  C           1     -29.476  -5.386 -18.040  0.00  0.00     0.248 C 
HETATM   15  O           1     -29.073  -4.716 -18.961  0.00  0.00    -0.271 OA
HETATM   16  N           1     -30.491  -4.920 -17.248  0.00  0.00    -0.349 N 
HETATM   17  H           1     -30.829  -5.481 -16.476  0.00  0.00     0.163 HD
BRANCH  16  18
HETATM   18  C           1     -31.083  -3.622 -17.514  0.00  0.00     0.235 C 
BRANCH  18  19
HETATM   19  C           1     -32.552  -3.660 -17.173  0.00  0.00     0.191 C 
HETATM   20  O           1     -33.021  -4.624 -16.531  0.00  0.00    -0.647 OA
HETATM   21  O           1     -33.301  -2.725 -17.534  0.00  0.00    -0.647 OA
ENDBRANCH  18  19
ENDBRANCH  16  18
ENDBRANCH  12  14
TORSDOF 3
ENDMDL
MODEL 9
REMARK VINA RESULT:      -4.9     14.406     16.216
REMARK  3 active torsions:
REMARK  status: ('A' for Active; 'I' for Inactive)
REMARK       I    between atoms: C_8  and  N_14 
REMARK    1  A    between atoms: C_8  and  C_20 
REMARK    2  A    between atoms: C_12  and  C_19 
REMARK    3  A    between atoms: N_14  and  C_19 
ROOT
HETATM    1  H           1     -22.783  -7.988  -0.747  0.00  0.00     0.275 HD
HETATM    2  H           1     -22.087  -6.529  -0.194  0.00  0.00     0.275 HD
HETATM    3  H           1     -21.476  -8.026   0.351  0.00  0.00     0.275 HD
HETATM    4  C           1     -22.312 -10.383  -0.062  0.00  0.00     0.229 C 
HETATM    5  H           1     -24.337  -9.876  -0.227  0.00  0.00     0.274 HD
HETATM    6  H           1     -23.268  -8.591  -0.570  0.00  0.00     0.274 HD
HETATM    7  H           1     -23.524  -9.080   1.044  0.00  0.00     0.274 HD
HETATM    8  N           1     -23.446  -9.408   0.055  0.00  0.00    -0.079 N 
HETATM    9  N           1     -21.891  -7.520  -0.464  0.00  0.00    -0.067 N 
HETATM   10  C           1     -21.940  -9.670  -2.415  0.00  0.00     0.004 C 
HETATM   11  C           1     -22.199 -10.862  -1.503  0.00  0.00     0.027 C 
HETATM   12  C           1     -20.927  -7.544  -1.613  0.00  0.00     0.274 C 
HETATM   13  C           1     -20.641  -8.988  -2.005  0.00  0.00     0.042 C 
ENDROOT
BRANCH  12  14
HETATM   14  C           1     -21.529  -6.814  -2.789  0.00  0.00     0.248 C 
HETATM   15  O           1     -22.475  -6.081  -2.625  0.00  0.00    -0.271 OA
HETATM   16  N           1     -21.001  -6.981  -4.041  0.00  0.00    -0.349 N 
HETATM   17  H           1     -20.209  -7.595  -4.178  0.00  0.00     0.163 HD
BRANCH  16  18
HETATM   18  C           1     -21.579  -6.279  -5.171  0.00  0.00     0.235 C 
BRANCH  18  19
HETATM   19  C           1     -20.475  -5.745  -6.050  0.00  0.00     0.191 C 
HETATM   20  O           1     -20.110  -6.389  -7.057  0.00  0.00    -0.647 OA
HETATM   21  O           1     -19.925  -4.657  -5.770  0.00  0.00    -0.647 OA
ENDBRANCH  18  19
ENDBRANCH  16  18
ENDBRANCH  12  14
TORSDOF 3
ENDMDL
