MODEL 1
REMARK VINA RESULT:      -6.3      0.000      0.000
REMARK  7 active torsions:
REMARK  status: ('A' for Active; 'I' for Inactive)
REMARK    1  A    between atoms: C_10  and  C_12 
REMARK       I    between atoms: N_13  and  C_14 
REMARK    2  A    between atoms: C_14  and  C_15 
REMARK    3  A    between atoms: C_15  and  C_16 
REMARK    4  A    between atoms: C_15  and  N_22 
REMARK    5  A    between atoms: C_16  and  O_17 
REMARK    6  A    between atoms: O_17  and  P_18 
REMARK    7  A    between atoms: P_18  and  O_20 
ROOT
HETATM    1  C           1     -36.548  -0.237 -11.016  0.00  0.00     0.298 C 
ENDROOT
BRANCH   1   2
HETATM    2  C           1     -36.972  -0.293 -12.463  0.00  0.00     0.253 C 
HETATM    3  O           1     -38.074  -0.691 -12.755  0.00  0.00    -0.271 OA
HETATM    4  N           1     -36.107   0.109 -13.446  0.00  0.00    -0.336 N 
HETATM    5  C           1     -34.747   0.615 -13.281  0.00  0.00     0.127 C 
HETATM    6  C           1     -36.342   0.124 -14.887  0.00  0.00     0.188 C 
HETATM    7  C           1     -34.657   1.748 -14.289  0.00  0.00     0.022 C 
HETATM    8  C           1     -35.710   1.427 -15.343  0.00  0.00     0.038 C 
BRANCH   6   9
HETATM    9  C           1     -35.680  -1.056 -15.553  0.00  0.00     0.196 C 
HETATM   10  O           1     -35.175  -1.965 -14.857  0.00  0.00    -0.646 OA
HETATM   11  O           1     -35.635  -1.126 -16.800  0.00  0.00    -0.646 OA
ENDBRANCH   6   9
ENDBRANCH   1   2
BRANCH   1  12
HETATM   12  C           1     -36.368  -1.653 -10.485  0.00  0.00     0.224 C 
BRANCH  12  13
HETATM   13  O           1     -35.814  -2.463 -11.486  0.00  0.00    -0.287 OA
BRANCH  13  14
HETATM   14  P           1     -34.252  -2.833 -11.313  0.00  0.00     0.406 P 
HETATM   15  O           1     -34.115  -3.984 -10.393  0.00  0.00    -0.624 OA
HETATM   16  O           1     -33.528  -1.668 -10.757  0.00  0.00    -0.624 OA
BRANCH  14  17
HETATM   17  O           1     -33.628  -3.218 -12.752  0.00  0.00    -0.300 OA
HETATM   18  H           1     -34.102  -2.690 -13.372  0.00  0.00     0.223 HD
ENDBRANCH  14  17
ENDBRANCH  13  14
ENDBRANCH  12  13
ENDBRANCH   1  12
BRANCH   1  19
HETATM   19  N           1     -37.603   0.466 -10.214  0.00  0.00    -0.064 N 
HETATM   20  H           1     -37.190   1.313  -9.763  0.00  0.00     0.275 HD
HETATM   21  H           1     -38.384   0.755 -10.845  0.00  0.00     0.275 HD
HETATM   22  H           1     -37.968  -0.178  -9.478  0.00  0.00     0.275 HD
ENDBRANCH   1  19
TORSDOF 7
ENDMDL
MODEL 2
REMARK VINA RESULT:      -6.3     14.457     15.607
REMARK  7 active torsions:
REMARK  status: ('A' for Active; 'I' for Inactive)
REMARK    1  A    between atoms: C_10  and  C_12 
REMARK       I    between atoms: N_13  and  C_14 
REMARK    2  A    between atoms: C_14  and  C_15 
REMARK    3  A    between atoms: C_15  and  C_16 
REMARK    4  A    between atoms: C_15  and  N_22 
REMARK    5  A    between atoms: C_16  and  O_17 
REMARK    6  A    between atoms: O_17  and  P_18 
REMARK    7  A    between atoms: P_18  and  O_20 
ROOT
HETATM    1  C           1     -20.196  -5.398  -7.535  0.00  0.00     0.298 C 
ENDROOT
BRANCH   1   2
HETATM    2  C           1     -21.357  -4.637  -8.126  0.00  0.00     0.253 C 
HETATM    3  O           1     -22.248  -4.243  -7.411  0.00  0.00    -0.271 OA
HETATM    4  N           1     -21.401  -4.392  -9.473  0.00  0.00    -0.336 N 
HETATM    5  C           1     -20.422  -4.788 -10.481  0.00  0.00     0.127 C 
HETATM    6  C           1     -22.437  -3.679 -10.214  0.00  0.00     0.188 C 
HETATM    7  C           1     -20.333  -3.578 -11.395  0.00  0.00     0.022 C 
HETATM    8  C           1     -21.658  -2.846 -11.216  0.00  0.00     0.038 C 
BRANCH   6   9
HETATM    9  C           1     -23.356  -4.646 -10.919  0.00  0.00     0.196 C 
HETATM   10  O           1     -23.463  -4.612 -12.163  0.00  0.00    -0.646 OA
HETATM   11  O           1     -24.011  -5.481 -10.257  0.00  0.00    -0.646 OA
ENDBRANCH   6   9
ENDBRANCH   1   2
BRANCH   1  12
HETATM   12  C           1     -20.721  -6.554  -6.694  0.00  0.00     0.224 C 
BRANCH  12  13
HETATM   13  O           1     -20.507  -6.281  -5.336  0.00  0.00    -0.287 OA
BRANCH  13  14
HETATM   14  P           1     -21.753  -6.571  -4.352  0.00  0.00     0.406 P 
HETATM   15  O           1     -21.572  -5.818  -3.091  0.00  0.00    -0.624 OA
HETATM   16  O           1     -21.823  -8.019  -4.056  0.00  0.00    -0.624 OA
BRANCH  14  17
HETATM   17  O           1     -23.124  -6.101  -5.066  0.00  0.00    -0.300 OA
HETATM   18  H           1     -23.457  -5.408  -4.522  0.00  0.00     0.223 HD
ENDBRANCH  14  17
ENDBRANCH  13  14
ENDBRANCH  12  13
ENDBRANCH   1  12
BRANCH   1  19
HETATM   19  N           1     -19.387  -4.478  -6.668  0.00  0.00    -0.064 N 
HETATM   20  H           1     -18.512  -4.206  -7.171  0.00  0.00     0.275 HD
HETATM   21  H           1     -19.945  -3.621  -6.454  0.00  0.00     0.275 HD
HETATM   22  H           1     -19.139  -4.966  -5.778  0.00  0.00     0.275 HD
ENDBRANCH   1  19
TORSDOF 7
ENDMDL
MODEL 3
REMARK VINA RESULT:      -5.6      2.395      3.315
REMARK  7 active torsions:
REMARK  status: ('A' for Active; 'I' for Inactive)
REMARK    1  A    between atoms: C_10  and  C_12 
REMARK       I    between atoms: N_13  and  C_14 
REMARK    2  A    between atoms: C_14  and  C_15 
REMARK    3  A    between atoms: C_15  and  C_16 
REMARK    4  A    between atoms: C_15  and  N_22 
REMARK    5  A    between atoms: C_16  and  O_17 
REMARK    6  A    between atoms: O_17  and  P_18 
REMARK    7  A    between atoms: P_18  and  O_20 
ROOT
HETATM    1  C           1     -34.089  -2.776 -11.682  0.00  0.00     0.298 C 
ENDROOT
BRANCH   1   2
HETATM    2  C           1     -34.712  -2.328 -12.981  0.00  0.00     0.253 C 
HETATM    3  O           1     -34.524  -2.962 -13.992  0.00  0.00    -0.271 OA
HETATM    4  N           1     -35.492  -1.203 -13.014  0.00  0.00    -0.336 N 
HETATM    5  C           1     -35.827  -0.319 -11.901  0.00  0.00     0.127 C 
HETATM    6  C           1     -36.170  -0.624 -14.171  0.00  0.00     0.188 C 
HETATM    7  C           1     -37.291   0.013 -12.129  0.00  0.00     0.022 C 
HETATM    8  C           1     -37.518  -0.192 -13.622  0.00  0.00     0.038 C 
BRANCH   6   9
HETATM    9  C           1     -35.403   0.560 -14.707  0.00  0.00     0.196 C 
HETATM   10  O           1     -35.970   1.385 -15.456  0.00  0.00    -0.646 OA
HETATM   11  O           1     -34.201   0.717 -14.401  0.00  0.00    -0.646 OA
ENDBRANCH   6   9
ENDBRANCH   1   2
BRANCH   1  12
HETATM   12  C           1     -35.078  -3.646 -10.918  0.00  0.00     0.224 C 
BRANCH  12  13
HETATM   13  O           1     -34.385  -4.655 -10.236  0.00  0.00    -0.287 OA
BRANCH  13  14
HETATM   14  P           1     -34.321  -6.091 -10.972  0.00  0.00     0.406 P 
HETATM   15  O           1     -35.097  -6.037 -12.230  0.00  0.00    -0.624 OA
HETATM   16  O           1     -34.893  -7.127 -10.083  0.00  0.00    -0.624 OA
BRANCH  14  17
HETATM   17  O           1     -32.783  -6.456 -11.304  0.00  0.00    -0.300 OA
HETATM   18  H           1     -32.427  -5.678 -11.698  0.00  0.00     0.223 HD
ENDBRANCH  14  17
ENDBRANCH  13  14
ENDBRANCH  12  13
ENDBRANCH   1  12
BRANCH   1  19
HETATM   19  N           1     -33.741  -1.573 -10.855  0.00  0.00    -0.064 N 
HETATM   20  H           1     -33.402  -0.807 -11.480  0.00  0.00     0.275 HD
HETATM   21  H           1     -34.589  -1.249 -10.338  0.00  0.00     0.275 HD
HETATM   22  H           1     -32.991  -1.824 -10.173  0.00  0.00     0.275 HD
ENDBRANCH   1  19
TORSDOF 7
ENDMDL
MODEL 4
REMARK VINA RESULT:      -5.5     14.550     15.707
REMARK  7 active torsions:
REMARK  status: ('A' for Active; 'I' for Inactive)
REMARK    1  A    between atoms: C_10  and  C_12 
REMARK       I    between atoms: N_13  and  C_14 
REMARK    2  A    between atoms: C_14  and  C_15 
REMARK    3  A    between atoms: C_15  and  C_16 
REMARK    4  A    between atoms: C_15  and  N_22 
REMARK    5  A    between atoms: C_16  and  O_17 
REMARK    6  A    between atoms: O_17  and  P_18 
REMARK    7  A    between atoms: P_18  and  O_20 
ROOT
HETATM    1  C           1     -21.605  -4.850  -6.422  0.00  0.00     0.298 C 
ENDROOT
BRANCH   1   2
HETATM    2  C           1     -21.387  -5.154  -7.884  0.00  0.00     0.253 C 
HETATM    3  O           1     -20.530  -5.938  -8.217  0.00  0.00    -0.271 OA
HETATM    4  N           1     -22.162  -4.542  -8.832  0.00  0.00    -0.336 N 
HETATM    5  C           1     -23.235  -3.576  -8.617  0.00  0.00     0.127 C 
HETATM    6  C           1     -22.094  -4.712 -10.281  0.00  0.00     0.188 C 
HETATM    7  C           1     -24.301  -3.988  -9.618  0.00  0.00     0.022 C 
HETATM    8  C           1     -23.550  -4.739 -10.711  0.00  0.00     0.038 C 
BRANCH   6   9
HETATM    9  C           1     -21.365  -3.558 -10.925  0.00  0.00     0.196 C 
HETATM   10  O           1     -20.146  -3.389 -10.707  0.00  0.00    -0.646 OA
HETATM   11  O           1     -21.981  -2.771 -11.676  0.00  0.00    -0.646 OA
ENDBRANCH   6   9
ENDBRANCH   1   2
BRANCH   1  12
HETATM   12  C           1     -20.451  -5.420  -5.608  0.00  0.00     0.224 C 
BRANCH  12  13
HETATM   13  O           1     -20.956  -6.205  -4.563  0.00  0.00    -0.287 OA
BRANCH  13  14
HETATM   14  P           1     -20.813  -7.803  -4.744  0.00  0.00     0.406 P 
HETATM   15  O           1     -21.669  -8.492  -3.754  0.00  0.00    -0.624 OA
HETATM   16  O           1     -19.402  -8.198  -4.537  0.00  0.00    -0.624 OA
BRANCH  14  17
HETATM   17  O           1     -21.275  -8.218  -6.235  0.00  0.00    -0.300 OA
HETATM   18  H           1     -20.579  -7.922  -6.798  0.00  0.00     0.223 HD
ENDBRANCH  14  17
ENDBRANCH  13  14
ENDBRANCH  12  13
ENDBRANCH   1  12
BRANCH   1  19
HETATM   19  N           1     -22.891  -5.475  -5.968  0.00  0.00    -0.064 N 
HETATM   20  H           1     -23.681  -4.816  -6.149  0.00  0.00     0.275 HD
HETATM   21  H           1     -23.052  -6.362  -6.496  0.00  0.00     0.275 HD
HETATM   22  H           1     -22.837  -5.682  -4.946  0.00  0.00     0.275 HD
ENDBRANCH   1  19
TORSDOF 7
ENDMDL
MODEL 5
REMARK VINA RESULT:      -5.4     17.272     19.438
REMARK  7 active torsions:
REMARK  status: ('A' for Active; 'I' for Inactive)
REMARK    1  A    between atoms: C_10  and  C_12 
REMARK       I    between atoms: N_13  and  C_14 
REMARK    2  A    between atoms: C_14  and  C_15 
REMARK    3  A    between atoms: C_15  and  C_16 
REMARK    4  A    between atoms: C_15  and  N_22 
REMARK    5  A    between atoms: C_16  and  O_17 
REMARK    6  A    between atoms: O_17  and  P_18 
REMARK    7  A    between atoms: P_18  and  O_20 
ROOT
HETATM    1  C           1     -21.930  -6.885  -3.097  0.00  0.00     0.298 C 
ENDROOT
BRANCH   1   2
HETATM    2  C           1     -21.162  -7.974  -2.389  0.00  0.00     0.253 C 
HETATM    3  O           1     -20.183  -8.458  -2.908  0.00  0.00    -0.271 OA
HETATM    4  N           1     -21.573  -8.413  -1.159  0.00  0.00    -0.336 N 
HETATM    5  C           1     -22.721  -7.948  -0.387  0.00  0.00     0.127 C 
HETATM    6  C           1     -20.959  -9.449  -0.334  0.00  0.00     0.188 C 
HETATM    7  C           1     -22.204  -7.903   1.041  0.00  0.00     0.022 C 
HETATM    8  C           1     -21.041  -8.887   1.074  0.00  0.00     0.038 C 
BRANCH   6   9
HETATM    9  C           1     -21.724 -10.746  -0.440  0.00  0.00     0.196 C 
HETATM   10  O           1     -22.147 -11.132  -1.551  0.00  0.00    -0.646 OA
HETATM   11  O           1     -21.935 -11.433   0.583  0.00  0.00    -0.646 OA
ENDBRANCH   6   9
ENDBRANCH   1   2
BRANCH   1  12
HETATM   12  C           1     -21.888  -7.128  -4.600  0.00  0.00     0.224 C 
BRANCH  12  13
HETATM   13  O           1     -22.407  -6.012  -5.270  0.00  0.00    -0.287 OA
BRANCH  13  14
HETATM   14  P           1     -21.444  -5.342  -6.380  0.00  0.00     0.406 P 
HETATM   15  O           1     -20.829  -6.404  -7.206  0.00  0.00    -0.624 OA
HETATM   16  O           1     -20.382  -4.563  -5.705  0.00  0.00    -0.624 OA
BRANCH  14  17
HETATM   17  O           1     -22.314  -4.362  -7.324  0.00  0.00    -0.300 OA
HETATM   18  H           1     -22.134  -4.648  -8.204  0.00  0.00     0.223 HD
ENDBRANCH  14  17
ENDBRANCH  13  14
ENDBRANCH  12  13
ENDBRANCH   1  12
BRANCH   1  19
HETATM   19  N           1     -21.307  -5.555  -2.790  0.00  0.00    -0.064 N 
HETATM   20  H           1     -20.556  -5.353  -3.488  0.00  0.00     0.275 HD
HETATM   21  H           1     -22.037  -4.809  -2.839  0.00  0.00     0.275 HD
HETATM   22  H           1     -20.894  -5.577  -1.830  0.00  0.00     0.275 HD
ENDBRANCH   1  19
TORSDOF 7
ENDMDL
MODEL 6
REMARK VINA RESULT:      -5.4     24.592     26.040
REMARK  7 active torsions:
REMARK  status: ('A' for Active; 'I' for Inactive)
REMARK    1  A    between atoms: C_10  and  C_12 
REMARK       I    between atoms: N_13  and  C_14 
REMARK    2  A    between atoms: C_14  and  C_15 
REMARK    3  A    between atoms: C_15  and  C_16 
REMARK    4  A    between atoms: C_15  and  N_22 
REMARK    5  A    between atoms: C_16  and  O_17 
REMARK    6  A    between atoms: O_17  and  P_18 
REMARK    7  A    between atoms: P_18  and  O_20 
ROOT
HETATM    1  C           1     -10.576   6.636 -20.469  0.00  0.00     0.298 C 
ENDROOT
BRANCH   1   2
HETATM    2  C           1     -10.877   7.961 -19.813  0.00  0.00     0.253 C 
HETATM    3  O           1     -10.307   8.274 -18.794  0.00  0.00    -0.271 OA
HETATM    4  N           1     -11.794   8.809 -20.373  0.00  0.00    -0.336 N 
HETATM    5  C           1     -12.572   8.600 -21.590  0.00  0.00     0.127 C 
HETATM    6  C           1     -12.209  10.120 -19.882  0.00  0.00     0.188 C 
HETATM    7  C           1     -12.563   9.960 -22.265  0.00  0.00     0.022 C 
HETATM    8  C           1     -12.320  10.961 -21.142  0.00  0.00     0.038 C 
BRANCH   6   9
HETATM    9  C           1     -13.540  10.034 -19.175  0.00  0.00     0.196 C 
HETATM   10  O           1     -13.699   9.222 -18.238  0.00  0.00    -0.646 OA
HETATM   11  O           1     -14.484  10.774 -19.528  0.00  0.00    -0.646 OA
ENDBRANCH   6   9
ENDBRANCH   1   2
BRANCH   1  12
HETATM   12  C           1     -11.294   5.523 -19.717  0.00  0.00     0.224 C 
BRANCH  12  13
HETATM   13  O           1     -12.632   5.884 -19.510  0.00  0.00    -0.287 OA
BRANCH  13  14
HETATM   14  P           1     -13.737   4.939 -20.213  0.00  0.00     0.406 P 
HETATM   15  O           1     -14.820   4.643 -19.249  0.00  0.00    -0.624 OA
HETATM   16  O           1     -13.101   3.674 -20.645  0.00  0.00    -0.624 OA
BRANCH  14  17
HETATM   17  O           1     -14.354   5.698 -21.499  0.00  0.00    -0.300 OA
HETATM   18  H           1     -15.078   5.161 -21.775  0.00  0.00     0.223 HD
ENDBRANCH  14  17
ENDBRANCH  13  14
ENDBRANCH  12  13
ENDBRANCH   1  12
BRANCH   1  19
HETATM   19  N           1      -9.097   6.387 -20.435  0.00  0.00    -0.064 N 
HETATM   20  H           1      -8.629   7.140 -19.882  0.00  0.00     0.275 HD
HETATM   21  H           1      -8.910   5.461 -19.988  0.00  0.00     0.275 HD
HETATM   22  H           1      -8.721   6.387 -21.410  0.00  0.00     0.275 HD
ENDBRANCH   1  19
TORSDOF 7
ENDMDL
MODEL 7
REMARK VINA RESULT:      -5.2     24.977     26.378
REMARK  7 active torsions:
REMARK  status: ('A' for Active; 'I' for Inactive)
REMARK    1  A    between atoms: C_10  and  C_12 
REMARK       I    between atoms: N_13  and  C_14 
REMARK    2  A    between atoms: C_14  and  C_15 
REMARK    3  A    between atoms: C_15  and  C_16 
REMARK    4  A    between atoms: C_15  and  N_22 
REMARK    5  A    between atoms: C_16  and  O_17 
REMARK    6  A    between atoms: O_17  and  P_18 
REMARK    7  A    between atoms: P_18  and  O_20 
ROOT
HETATM    1  C           1     -10.557   7.047 -20.193  0.00  0.00     0.298 C 
ENDROOT
BRANCH   1   2
HETATM    2  C           1     -11.235   6.578 -21.457  0.00  0.00     0.253 C 
HETATM    3  O           1     -11.016   7.140 -22.504  0.00  0.00    -0.271 OA
HETATM    4  N           1     -12.099   5.517 -21.417  0.00  0.00    -0.336 N 
HETATM    5  C           1     -12.481   4.724 -20.252  0.00  0.00     0.127 C 
HETATM    6  C           1     -12.839   4.930 -22.531  0.00  0.00     0.188 C 
HETATM    7  C           1     -12.518   3.300 -20.778  0.00  0.00     0.022 C 
HETATM    8  C           1     -12.750   3.436 -22.278  0.00  0.00     0.038 C 
BRANCH   6   9
HETATM    9  C           1     -14.276   5.391 -22.523  0.00  0.00     0.196 C 
HETATM   10  O           1     -15.202   4.553 -22.594  0.00  0.00    -0.646 OA
HETATM   11  O           1     -14.542   6.610 -22.445  0.00  0.00    -0.646 OA
ENDBRANCH   6   9
ENDBRANCH   1   2
BRANCH   1  12
HETATM   12  C           1     -10.396   8.561 -20.234  0.00  0.00     0.224 C 
BRANCH  12  13
HETATM   13  O           1     -11.512   9.167 -19.642  0.00  0.00    -0.287 OA
BRANCH  13  14
HETATM   14  P           1     -12.458  10.026 -20.629  0.00  0.00     0.406 P 
HETATM   15  O           1     -11.617  10.859 -21.519  0.00  0.00    -0.624 OA
HETATM   16  O           1     -13.343  10.900 -19.828  0.00  0.00    -0.624 OA
BRANCH  14  17
HETATM   17  O           1     -13.355   9.023 -21.522  0.00  0.00    -0.300 OA
HETATM   18  H           1     -12.734   8.481 -21.979  0.00  0.00     0.223 HD
ENDBRANCH  14  17
ENDBRANCH  13  14
ENDBRANCH  12  13
ENDBRANCH   1  12
BRANCH   1  19
HETATM   19  N           1      -9.206   6.404 -20.084  0.00  0.00    -0.064 N 
HETATM   20  H           1      -9.000   5.876 -20.962  0.00  0.00     0.275 HD
HETATM   21  H           1      -8.480   7.143 -19.945  0.00  0.00     0.275 HD
HETATM   22  H           1      -9.196   5.748 -19.272  0.00  0.00     0.275 HD
ENDBRANCH   1  19
TORSDOF 7
ENDMDL
MODEL 8
REMARK VINA RESULT:      -5.2     17.646     19.890
REMARK  7 active torsions:
REMARK  status: ('A' for Active; 'I' for Inactive)
REMARK    1  A    between atoms: C_10  and  C_12 
REMARK       I    between atoms: N_13  and  C_14 
REMARK    2  A    between atoms: C_14  and  C_15 
REMARK    3  A    between atoms: C_15  and  C_16 
REMARK    4  A    between atoms: C_15  and  N_22 
REMARK    5  A    between atoms: C_16  and  O_17 
REMARK    6  A    between atoms: O_17  and  P_18 
REMARK    7  A    between atoms: P_18  and  O_20 
ROOT
HETATM    1  C           1     -22.092  -7.448  -2.252  0.00  0.00     0.298 C 
ENDROOT
BRANCH   1   2
HETATM    2  C           1     -21.970  -8.232  -0.968  0.00  0.00     0.253 C 
HETATM    3  O           1     -21.600  -7.683   0.042  0.00  0.00    -0.271 OA
HETATM    4  N           1     -22.281  -9.565  -0.949  0.00  0.00    -0.336 N 
HETATM    5  C           1     -22.742 -10.388  -2.063  0.00  0.00     0.127 C 
HETATM    6  C           1     -22.223 -10.475   0.192  0.00  0.00     0.188 C 
HETATM    7  C           1     -23.811 -11.272  -1.445  0.00  0.00     0.022 C 
HETATM    8  C           1     -23.472 -11.326   0.040  0.00  0.00     0.038 C 
BRANCH   6   9
HETATM    9  C           1     -20.981 -11.330   0.135  0.00  0.00     0.196 C 
HETATM   10  O           1     -21.039 -12.539   0.449  0.00  0.00    -0.646 OA
HETATM   11  O           1     -19.894 -10.829  -0.226  0.00  0.00    -0.646 OA
ENDBRANCH   6   9
ENDBRANCH   1   2
BRANCH   1  12
HETATM   12  C           1     -20.815  -7.605  -3.066  0.00  0.00     0.224 C 
BRANCH  12  13
HETATM   13  O           1     -21.141  -7.824  -4.411  0.00  0.00    -0.287 OA
BRANCH  13  14
HETATM   14  P           1     -21.465  -6.505  -5.285  0.00  0.00     0.406 P 
HETATM   15  O           1     -22.909  -6.194  -5.194  0.00  0.00    -0.624 OA
HETATM   16  O           1     -21.101  -6.748  -6.699  0.00  0.00    -0.624 OA
BRANCH  14  17
HETATM   17  O           1     -20.609  -5.259  -4.716  0.00  0.00    -0.300 OA
HETATM   18  H           1     -20.705  -4.581  -5.363  0.00  0.00     0.223 HD
ENDBRANCH  14  17
ENDBRANCH  13  14
ENDBRANCH  12  13
ENDBRANCH   1  12
BRANCH   1  19
HETATM   19  N           1     -22.304  -5.997  -1.932  0.00  0.00    -0.064 N 
HETATM   20  H           1     -21.847  -5.409  -2.665  0.00  0.00     0.275 HD
HETATM   21  H           1     -23.329  -5.792  -1.911  0.00  0.00     0.275 HD
HETATM   22  H           1     -21.886  -5.781  -1.000  0.00  0.00     0.275 HD
ENDBRANCH   1  19
TORSDOF 7
ENDMDL
MODEL 9
REMARK VINA RESULT:      -5.1      5.791      7.322
REMARK  7 active torsions:
REMARK  status: ('A' for Active; 'I' for Inactive)
REMARK    1  A    between atoms: C_10  and  C_12 
REMARK       I    between atoms: N_13  and  C_14 
REMARK    2  A    between atoms: C_14  and  C_15 
REMARK    3  A    between atoms: C_15  and  C_16 
REMARK    4  A    between atoms: C_15  and  N_22 
REMARK    5  A    between atoms: C_16  and  O_17 
REMARK    6  A    between atoms: O_17  and  P_18 
REMARK    7  A    between atoms: P_18  and  O_20 
ROOT
HETATM    1  C           1     -32.965  -3.874 -16.417  0.00  0.00     0.298 C 
ENDROOT
BRANCH   1   2
HETATM    2  C           1     -32.160  -5.093 -16.797  0.00  0.00     0.253 C 
HETATM    3  O           1     -32.708  -6.161 -16.930  0.00  0.00    -0.271 OA
HETATM    4  N           1     -30.809  -4.988 -16.992  0.00  0.00    -0.336 N 
HETATM    5  C           1     -29.984  -3.789 -16.876  0.00  0.00     0.127 C 
HETATM    6  C           1     -29.878  -6.051 -17.360  0.00  0.00     0.188 C 
HETATM    7  C           1     -29.016  -3.900 -18.041  0.00  0.00     0.022 C 
HETATM    8  C           1     -28.949  -5.389 -18.362  0.00  0.00     0.038 C 
BRANCH   6   9
HETATM    9  C           1     -29.110  -6.534 -16.154  0.00  0.00     0.196 C 
HETATM   10  O           1     -28.274  -7.456 -16.273  0.00  0.00    -0.646 OA
HETATM   11  O           1     -29.310  -6.012 -15.035  0.00  0.00    -0.646 OA
ENDBRANCH   6   9
ENDBRANCH   1   2
BRANCH   1  12
HETATM   12  C           1     -34.155  -4.296 -15.566  0.00  0.00     0.224 C 
BRANCH  12  13
HETATM   13  O           1     -34.330  -3.381 -14.519  0.00  0.00    -0.287 OA
BRANCH  13  14
HETATM   14  P           1     -34.402  -4.011 -13.033  0.00  0.00     0.406 P 
HETATM   15  O           1     -35.277  -3.174 -12.183  0.00  0.00    -0.624 OA
HETATM   16  O           1     -33.042  -4.056 -12.450  0.00  0.00    -0.624 OA
BRANCH  14  17
HETATM   17  O           1     -35.003  -5.508 -13.113  0.00  0.00    -0.300 OA
HETATM   18  H           1     -35.658  -5.473 -13.789  0.00  0.00     0.223 HD
ENDBRANCH  14  17
ENDBRANCH  13  14
ENDBRANCH  12  13
ENDBRANCH   1  12
BRANCH   1  19
HETATM   19  N           1     -33.457  -3.194 -17.661  0.00  0.00    -0.064 N 
HETATM   20  H           1     -32.718  -3.238 -18.398  0.00  0.00     0.275 HD
HETATM   21  H           1     -34.318  -3.677 -18.003  0.00  0.00     0.275 HD
HETATM   22  H           1     -33.678  -2.196 -17.448  0.00  0.00     0.275 HD
ENDBRANCH   1  19
TORSDOF 7
ENDMDL
