MODEL 1
REMARK VINA RESULT:      -6.9      0.000      0.000
REMARK  8 active torsions:
REMARK  status: ('A' for Active; 'I' for Inactive)
REMARK    1  A    between atoms: N_2  and  C_18 
REMARK       I    between atoms: N_2  and  C_3 
REMARK    2  A    between atoms: C_3  and  C_4 
REMARK    3  A    between atoms: C_4  and  C_13 
REMARK    4  A    between atoms: C_4  and  N_14 
REMARK    5  A    between atoms: C_12  and  C_13 
REMARK    6  A    between atoms: C_17  and  C_18 
REMARK    7  A    between atoms: C_18  and  C_19 
REMARK    8  A    between atoms: C_19  and  O_20 
ROOT
HETATM    1  N           1     -34.953  -0.881 -14.071  0.00  0.00    -0.343 N 
HETATM    2  C           1     -35.411  -1.423 -12.900  0.00  0.00     0.249 C 
HETATM    3  H           1     -33.971  -0.942 -14.306  0.00  0.00     0.163 HD
HETATM    4  O           1     -36.584  -1.351 -12.620  0.00  0.00    -0.271 OA
ENDROOT
BRANCH   2   5
HETATM    5  C           1     -34.452  -2.111 -11.960  0.00  0.00     0.275 C 
BRANCH   5   6
HETATM    6  C           1     -34.908  -3.545 -11.728  0.00  0.00     0.046 C 
BRANCH   6   7
HETATM    7  C           1     -33.805  -4.323 -11.024  0.00  0.00    -0.020 C 
HETATM    8  C           1     -32.585  -4.406 -11.931  0.00  0.00     0.009 C 
HETATM    9  C           1     -34.297  -5.728 -10.706  0.00  0.00     0.009 C 
ENDBRANCH   6   7
ENDBRANCH   5   6
BRANCH   5  10
HETATM   10  N           1     -34.423  -1.378 -10.652  0.00  0.00    -0.066 N 
HETATM   11  H           1     -34.150  -0.383 -10.816  0.00  0.00     0.275 HD
HETATM   12  H           1     -35.372  -1.412 -10.215  0.00  0.00     0.275 HD
HETATM   13  H           1     -33.729  -1.830 -10.015  0.00  0.00     0.275 HD
ENDBRANCH   5  10
ENDBRANCH   2   5
BRANCH   1  14
HETATM   14  C           1     -35.875  -0.220 -14.974  0.00  0.00     0.209 C 
BRANCH  14  15
HETATM   15  C           1     -35.855  -0.917 -16.312  0.00  0.00     0.198 C 
HETATM   16  O           1     -36.821  -0.795 -17.095  0.00  0.00    -0.646 OA
HETATM   17  O           1     -34.873  -1.618 -16.637  0.00  0.00    -0.646 OA
ENDBRANCH  14  15
BRANCH  14  18
HETATM   18  C           1     -35.456   1.234 -15.152  0.00  0.00     0.200 C 
BRANCH  18  19
HETATM   19  O           1     -36.302   1.855 -16.081  0.00  0.00    -0.398 OA
HETATM   20  H           1     -35.935   2.703 -16.260  0.00  0.00     0.209 HD
ENDBRANCH  18  19
ENDBRANCH  14  18
ENDBRANCH   1  14
TORSDOF 8
ENDMDL
MODEL 2
REMARK VINA RESULT:      -6.1     12.934     14.690
REMARK  8 active torsions:
REMARK  status: ('A' for Active; 'I' for Inactive)
REMARK    1  A    between atoms: N_2  and  C_18 
REMARK       I    between atoms: N_2  and  C_3 
REMARK    2  A    between atoms: C_3  and  C_4 
REMARK    3  A    between atoms: C_4  and  C_13 
REMARK    4  A    between atoms: C_4  and  N_14 
REMARK    5  A    between atoms: C_12  and  C_13 
REMARK    6  A    between atoms: C_17  and  C_18 
REMARK    7  A    between atoms: C_18  and  C_19 
REMARK    8  A    between atoms: C_19  and  O_20 
ROOT
HETATM    1  N           1     -21.869  -4.824  -9.161  0.00  0.00    -0.343 N 
HETATM    2  C           1     -21.581  -4.656  -7.833  0.00  0.00     0.249 C 
HETATM    3  H           1     -21.738  -5.727  -9.596  0.00  0.00     0.163 HD
HETATM    4  O           1     -21.738  -3.577  -7.313  0.00  0.00    -0.271 OA
ENDROOT
BRANCH   2   5
HETATM    5  C           1     -21.067  -5.818  -7.019  0.00  0.00     0.275 C 
BRANCH   5   6
HETATM    6  C           1     -20.975  -5.411  -5.555  0.00  0.00     0.046 C 
BRANCH   6   7
HETATM    7  C           1     -21.823  -6.352  -4.711  0.00  0.00    -0.020 C 
HETATM    8  C           1     -21.461  -6.181  -3.242  0.00  0.00     0.009 C 
HETATM    9  C           1     -21.561  -7.791  -5.134  0.00  0.00     0.009 C 
ENDBRANCH   6   7
ENDBRANCH   5   6
BRANCH   5  10
HETATM   10  N           1     -19.707  -6.212  -7.515  0.00  0.00    -0.066 N 
HETATM   11  H           1     -19.385  -5.524  -8.232  0.00  0.00     0.275 HD
HETATM   12  H           1     -19.035  -6.221  -6.715  0.00  0.00     0.275 HD
HETATM   13  H           1     -19.755  -7.165  -7.942  0.00  0.00     0.275 HD
ENDBRANCH   5  10
ENDBRANCH   2   5
BRANCH   1  14
HETATM   14  C           1     -22.362  -3.707  -9.943  0.00  0.00     0.209 C 
BRANCH  14  15
HETATM   15  C           1     -23.811  -3.941 -10.295  0.00  0.00     0.198 C 
HETATM   16  O           1     -24.525  -2.986 -10.670  0.00  0.00    -0.646 OA
HETATM   17  O           1     -24.298  -5.089 -10.209  0.00  0.00    -0.646 OA
ENDBRANCH  14  15
BRANCH  14  18
HETATM   18  C           1     -21.543  -3.581 -11.221  0.00  0.00     0.200 C 
BRANCH  18  19
HETATM   19  O           1     -22.213  -4.222 -12.272  0.00  0.00    -0.398 OA
HETATM   20  H           1     -22.193  -5.145 -12.087  0.00  0.00     0.209 HD
ENDBRANCH  18  19
ENDBRANCH  14  18
ENDBRANCH   1  14
TORSDOF 8
ENDMDL
MODEL 3
REMARK VINA RESULT:      -5.7     12.676     14.504
REMARK  8 active torsions:
REMARK  status: ('A' for Active; 'I' for Inactive)
REMARK    1  A    between atoms: N_2  and  C_18 
REMARK       I    between atoms: N_2  and  C_3 
REMARK    2  A    between atoms: C_3  and  C_4 
REMARK    3  A    between atoms: C_4  and  C_13 
REMARK    4  A    between atoms: C_4  and  N_14 
REMARK    5  A    between atoms: C_12  and  C_13 
REMARK    6  A    between atoms: C_17  and  C_18 
REMARK    7  A    between atoms: C_18  and  C_19 
REMARK    8  A    between atoms: C_19  and  O_20 
ROOT
HETATM    1  N           1     -22.327  -4.678  -9.137  0.00  0.00    -0.343 N 
HETATM    2  C           1     -21.050  -4.484  -8.682  0.00  0.00     0.249 C 
HETATM    3  H           1     -22.941  -5.323  -8.658  0.00  0.00     0.163 HD
HETATM    4  O           1     -20.317  -3.712  -9.253  0.00  0.00    -0.271 OA
ENDROOT
BRANCH   2   5
HETATM    5  C           1     -20.559  -5.234  -7.468  0.00  0.00     0.275 C 
BRANCH   5   6
HETATM    6  C           1     -21.422  -4.877  -6.266  0.00  0.00     0.046 C 
BRANCH   6   7
HETATM    7  C           1     -21.768  -6.142  -5.493  0.00  0.00    -0.020 C 
HETATM    8  C           1     -21.266  -6.014  -4.062  0.00  0.00     0.009 C 
HETATM    9  C           1     -21.104  -7.341  -6.158  0.00  0.00     0.009 C 
ENDBRANCH   6   7
ENDBRANCH   5   6
BRANCH   5  10
HETATM   10  N           1     -19.135  -4.855  -7.191  0.00  0.00    -0.066 N 
HETATM   11  H           1     -19.008  -3.831  -7.357  0.00  0.00     0.275 HD
HETATM   12  H           1     -18.904  -5.078  -6.196  0.00  0.00     0.275 HD
HETATM   13  H           1     -18.501  -5.393  -7.825  0.00  0.00     0.275 HD
ENDBRANCH   5  10
ENDBRANCH   2   5
BRANCH   1  14
HETATM   14  C           1     -22.799  -3.957 -10.303  0.00  0.00     0.209 C 
BRANCH  14  15
HETATM   15  C           1     -24.307  -3.967 -10.324  0.00  0.00     0.198 C 
HETATM   16  O           1     -24.934  -4.891  -9.764  0.00  0.00    -0.646 OA
HETATM   17  O           1     -24.932  -3.051 -10.903  0.00  0.00    -0.646 OA
ENDBRANCH  14  15
BRANCH  14  18
HETATM   18  C           1     -22.268  -4.629 -11.563  0.00  0.00     0.200 C 
BRANCH  18  19
HETATM   19  O           1     -23.337  -4.927 -12.420  0.00  0.00    -0.398 OA
HETATM   20  H           1     -23.951  -4.217 -12.349  0.00  0.00     0.209 HD
ENDBRANCH  18  19
ENDBRANCH  14  18
ENDBRANCH   1  14
TORSDOF 8
ENDMDL
MODEL 4
REMARK VINA RESULT:      -5.2     15.714     17.636
REMARK  8 active torsions:
REMARK  status: ('A' for Active; 'I' for Inactive)
REMARK    1  A    between atoms: N_2  and  C_18 
REMARK       I    between atoms: N_2  and  C_3 
REMARK    2  A    between atoms: C_3  and  C_4 
REMARK    3  A    between atoms: C_4  and  C_13 
REMARK    4  A    between atoms: C_4  and  N_14 
REMARK    5  A    between atoms: C_12  and  C_13 
REMARK    6  A    between atoms: C_17  and  C_18 
REMARK    7  A    between atoms: C_18  and  C_19 
REMARK    8  A    between atoms: C_19  and  O_20 
ROOT
HETATM    1  N           1     -21.606  -5.873  -4.485  0.00  0.00    -0.343 N 
HETATM    2  C           1     -21.401  -6.968  -3.690  0.00  0.00     0.249 C 
HETATM    3  H           1     -21.749  -4.964  -4.066  0.00  0.00     0.163 HD
HETATM    4  O           1     -21.228  -8.054  -4.191  0.00  0.00    -0.271 OA
ENDROOT
BRANCH   2   5
HETATM    5  C           1     -21.389  -6.820  -2.188  0.00  0.00     0.275 C 
BRANCH   5   6
HETATM    6  C           1     -21.897  -8.104  -1.547  0.00  0.00     0.046 C 
BRANCH   6   7
HETATM    7  C           1     -21.933  -7.938  -0.035  0.00  0.00    -0.020 C 
HETATM    8  C           1     -21.010  -8.963   0.610  0.00  0.00     0.009 C 
HETATM    9  C           1     -23.355  -8.151   0.467  0.00  0.00     0.009 C 
ENDBRANCH   6   7
ENDBRANCH   5   6
BRANCH   5  10
HETATM   10  N           1     -22.278  -5.679  -1.793  0.00  0.00    -0.066 N 
HETATM   11  H           1     -21.757  -5.036  -1.154  0.00  0.00     0.275 HD
HETATM   12  H           1     -22.572  -5.156  -2.649  0.00  0.00     0.275 HD
HETATM   13  H           1     -23.123  -6.049  -1.303  0.00  0.00     0.275 HD
ENDBRANCH   5  10
ENDBRANCH   2   5
BRANCH   1  14
HETATM   14  C           1     -21.617  -6.016  -5.928  0.00  0.00     0.209 C 
BRANCH  14  15
HETATM   15  C           1     -20.256  -5.665  -6.478  0.00  0.00     0.198 C 
HETATM   16  O           1     -19.589  -4.747  -5.956  0.00  0.00    -0.646 OA
HETATM   17  O           1     -19.796  -6.292  -7.457  0.00  0.00    -0.646 OA
ENDBRANCH  14  15
BRANCH  14  18
HETATM   18  C           1     -22.662  -5.081  -6.523  0.00  0.00     0.200 C 
BRANCH  18  19
HETATM   19  O           1     -22.066  -4.276  -7.504  0.00  0.00    -0.398 OA
HETATM   20  H           1     -22.761  -3.956  -8.053  0.00  0.00     0.209 HD
ENDBRANCH  18  19
ENDBRANCH  14  18
ENDBRANCH   1  14
TORSDOF 8
ENDMDL
MODEL 5
REMARK VINA RESULT:      -5.2     15.252     17.403
REMARK  8 active torsions:
REMARK  status: ('A' for Active; 'I' for Inactive)
REMARK    1  A    between atoms: N_2  and  C_18 
REMARK       I    between atoms: N_2  and  C_3 
REMARK    2  A    between atoms: C_3  and  C_4 
REMARK    3  A    between atoms: C_4  and  C_13 
REMARK    4  A    between atoms: C_4  and  N_14 
REMARK    5  A    between atoms: C_12  and  C_13 
REMARK    6  A    between atoms: C_17  and  C_18 
REMARK    7  A    between atoms: C_18  and  C_19 
REMARK    8  A    between atoms: C_19  and  O_20 
ROOT
HETATM    1  N           1     -21.994  -6.147  -4.603  0.00  0.00    -0.343 N 
HETATM    2  C           1     -21.388  -5.357  -5.542  0.00  0.00     0.249 C 
HETATM    3  H           1     -22.929  -6.497  -4.764  0.00  0.00     0.163 HD
HETATM    4  O           1     -20.270  -4.940  -5.351  0.00  0.00    -0.271 OA
ENDROOT
BRANCH   2   5
HETATM    5  C           1     -22.115  -5.007  -6.817  0.00  0.00     0.275 C 
BRANCH   5   6
HETATM    6  C           1     -21.568  -3.698  -7.371  0.00  0.00     0.046 C 
BRANCH   6   7
HETATM    7  C           1     -21.123  -3.902  -8.812  0.00  0.00    -0.020 C 
HETATM    8  C           1     -22.304  -4.381  -9.645  0.00  0.00     0.009 C 
HETATM    9  C           1     -20.014  -4.944  -8.859  0.00  0.00     0.009 C 
ENDBRANCH   6   7
ENDBRANCH   5   6
BRANCH   5  10
HETATM   10  N           1     -23.579  -4.855  -6.531  0.00  0.00    -0.066 N 
HETATM   11  H           1     -24.018  -4.254  -7.265  0.00  0.00     0.275 HD
HETATM   12  H           1     -24.033  -5.797  -6.536  0.00  0.00     0.275 HD
HETATM   13  H           1     -23.707  -4.411  -5.594  0.00  0.00     0.275 HD
ENDBRANCH   5  10
ENDBRANCH   2   5
BRANCH   1  14
HETATM   14  C           1     -21.294  -6.483  -3.378  0.00  0.00     0.209 C 
BRANCH  14  15
HETATM   15  C           1     -21.011  -7.965  -3.351  0.00  0.00     0.198 C 
HETATM   16  O           1     -21.747  -8.754  -3.981  0.00  0.00    -0.646 OA
HETATM   17  O           1     -20.040  -8.405  -2.698  0.00  0.00    -0.646 OA
ENDBRANCH  14  15
BRANCH  14  18
HETATM   18  C           1     -22.160  -6.109  -2.181  0.00  0.00     0.200 C 
BRANCH  18  19
HETATM   19  O           1     -22.244  -7.201  -1.305  0.00  0.00    -0.398 OA
HETATM   20  H           1     -21.971  -7.961  -1.789  0.00  0.00     0.209 HD
ENDBRANCH  18  19
ENDBRANCH  14  18
ENDBRANCH   1  14
TORSDOF 8
ENDMDL
MODEL 6
REMARK VINA RESULT:      -5.2     14.518     16.882
REMARK  8 active torsions:
REMARK  status: ('A' for Active; 'I' for Inactive)
REMARK    1  A    between atoms: N_2  and  C_18 
REMARK       I    between atoms: N_2  and  C_3 
REMARK    2  A    between atoms: C_3  and  C_4 
REMARK    3  A    between atoms: C_4  and  C_13 
REMARK    4  A    between atoms: C_4  and  N_14 
REMARK    5  A    between atoms: C_12  and  C_13 
REMARK    6  A    between atoms: C_17  and  C_18 
REMARK    7  A    between atoms: C_18  and  C_19 
REMARK    8  A    between atoms: C_19  and  O_20 
ROOT
HETATM    1  N           1     -21.668  -6.241  -6.119  0.00  0.00    -0.343 N 
HETATM    2  C           1     -21.397  -5.134  -6.880  0.00  0.00     0.249 C 
HETATM    3  H           1     -22.474  -6.813  -6.330  0.00  0.00     0.163 HD
HETATM    4  O           1     -20.433  -4.451  -6.630  0.00  0.00    -0.271 OA
ENDROOT
BRANCH   2   5
HETATM    5  C           1     -22.303  -4.769  -8.030  0.00  0.00     0.275 C 
BRANCH   5   6
HETATM    6  C           1     -21.604  -3.753  -8.924  0.00  0.00     0.046 C 
BRANCH   6   7
HETATM    7  C           1     -21.418  -4.342 -10.315  0.00  0.00    -0.020 C 
HETATM    8  C           1     -20.553  -3.407 -11.150  0.00  0.00     0.009 C 
HETATM    9  C           1     -22.776  -4.508 -10.983  0.00  0.00     0.009 C 
ENDBRANCH   6   7
ENDBRANCH   5   6
BRANCH   5  10
HETATM   10  N           1     -23.572  -4.175  -7.497  0.00  0.00    -0.066 N 
HETATM   11  H           1     -24.160  -4.930  -7.076  0.00  0.00     0.275 HD
HETATM   12  H           1     -23.342  -3.464  -6.766  0.00  0.00     0.275 HD
HETATM   13  H           1     -24.097  -3.718  -8.276  0.00  0.00     0.275 HD
ENDBRANCH   5  10
ENDBRANCH   2   5
BRANCH   1  14
HETATM   14  C           1     -20.797  -6.591  -5.014  0.00  0.00     0.209 C 
BRANCH  14  15
HETATM   15  C           1     -20.382  -8.036  -5.140  0.00  0.00     0.198 C 
HETATM   16  O           1     -19.285  -8.414  -4.677  0.00  0.00    -0.646 OA
HETATM   17  O           1     -21.135  -8.856  -5.710  0.00  0.00    -0.646 OA
ENDBRANCH  14  15
BRANCH  14  18
HETATM   18  C           1     -21.541  -6.389  -3.700  0.00  0.00     0.200 C 
BRANCH  18  19
HETATM   19  O           1     -21.420  -7.542  -2.911  0.00  0.00    -0.398 OA
HETATM   20  H           1     -22.294  -7.831  -2.715  0.00  0.00     0.209 HD
ENDBRANCH  18  19
ENDBRANCH  14  18
ENDBRANCH   1  14
TORSDOF 8
ENDMDL
MODEL 7
REMARK VINA RESULT:      -5.1      1.773      2.307
REMARK  8 active torsions:
REMARK  status: ('A' for Active; 'I' for Inactive)
REMARK    1  A    between atoms: N_2  and  C_18 
REMARK       I    between atoms: N_2  and  C_3 
REMARK    2  A    between atoms: C_3  and  C_4 
REMARK    3  A    between atoms: C_4  and  C_13 
REMARK    4  A    between atoms: C_4  and  N_14 
REMARK    5  A    between atoms: C_12  and  C_13 
REMARK    6  A    between atoms: C_17  and  C_18 
REMARK    7  A    between atoms: C_18  and  C_19 
REMARK    8  A    between atoms: C_19  and  O_20 
ROOT
HETATM    1  N           1     -35.058  -1.479 -13.378  0.00  0.00    -0.343 N 
HETATM    2  C           1     -34.353  -1.981 -12.317  0.00  0.00     0.249 C 
HETATM    3  H           1     -35.096  -1.994 -14.248  0.00  0.00     0.163 HD
HETATM    4  O           1     -34.307  -1.366 -11.278  0.00  0.00    -0.271 OA
ENDROOT
BRANCH   2   5
HETATM    5  C           1     -33.632  -3.300 -12.445  0.00  0.00     0.275 C 
BRANCH   5   6
HETATM    6  C           1     -34.635  -4.440 -12.329  0.00  0.00     0.046 C 
BRANCH   6   7
HETATM    7  C           1     -34.743  -4.877 -10.874  0.00  0.00    -0.020 C 
HETATM    8  C           1     -34.565  -6.386 -10.783  0.00  0.00     0.009 C 
HETATM    9  C           1     -36.112  -4.494 -10.329  0.00  0.00     0.009 C 
ENDBRANCH   6   7
ENDBRANCH   5   6
BRANCH   5  10
HETATM   10  N           1     -32.612  -3.420 -11.352  0.00  0.00    -0.066 N 
HETATM   11  H           1     -31.688  -3.075 -11.698  0.00  0.00     0.275 HD
HETATM   12  H           1     -32.913  -2.845 -10.532  0.00  0.00     0.275 HD
HETATM   13  H           1     -32.525  -4.420 -11.064  0.00  0.00     0.275 HD
ENDBRANCH   5  10
ENDBRANCH   2   5
BRANCH   1  14
HETATM   14  C           1     -35.750  -0.211 -13.254  0.00  0.00     0.209 C 
BRANCH  14  15
HETATM   15  C           1     -37.039  -0.264 -14.036  0.00  0.00     0.198 C 
HETATM   16  O           1     -38.075  -0.719 -13.505  0.00  0.00    -0.646 OA
HETATM   17  O           1     -37.073   0.146 -15.217  0.00  0.00    -0.646 OA
ENDBRANCH  14  15
BRANCH  14  18
HETATM   18  C           1     -34.868   0.903 -13.803  0.00  0.00     0.200 C 
BRANCH  18  19
HETATM   19  O           1     -34.336   0.513 -15.040  0.00  0.00    -0.398 OA
HETATM   20  H           1     -33.479   0.898 -15.102  0.00  0.00     0.209 HD
ENDBRANCH  18  19
ENDBRANCH  14  18
ENDBRANCH   1  14
TORSDOF 8
ENDMDL
MODEL 8
REMARK VINA RESULT:      -5.0     15.330     17.296
REMARK  8 active torsions:
REMARK  status: ('A' for Active; 'I' for Inactive)
REMARK    1  A    between atoms: N_2  and  C_18 
REMARK       I    between atoms: N_2  and  C_3 
REMARK    2  A    between atoms: C_3  and  C_4 
REMARK    3  A    between atoms: C_4  and  C_13 
REMARK    4  A    between atoms: C_4  and  N_14 
REMARK    5  A    between atoms: C_12  and  C_13 
REMARK    6  A    between atoms: C_17  and  C_18 
REMARK    7  A    between atoms: C_18  and  C_19 
REMARK    8  A    between atoms: C_19  and  O_20 
ROOT
HETATM    1  N           1     -21.701  -6.220  -5.440  0.00  0.00    -0.343 N 
HETATM    2  C           1     -21.433  -7.546  -5.224  0.00  0.00     0.249 C 
HETATM    3  H           1     -22.122  -5.665  -4.707  0.00  0.00     0.163 HD
HETATM    4  O           1     -20.929  -8.210  -6.099  0.00  0.00    -0.271 OA
ENDROOT
BRANCH   2   5
HETATM    5  C           1     -21.767  -8.177  -3.895  0.00  0.00     0.275 C 
BRANCH   5   6
HETATM    6  C           1     -20.643  -7.902  -2.905  0.00  0.00     0.046 C 
BRANCH   6   7
HETATM    7  C           1     -21.228  -7.361  -1.609  0.00  0.00    -0.020 C 
HETATM    8  C           1     -21.921  -8.488  -0.855  0.00  0.00     0.009 C 
HETATM    9  C           1     -22.239  -6.266  -1.925  0.00  0.00     0.009 C 
ENDBRANCH   6   7
ENDBRANCH   5   6
BRANCH   5  10
HETATM   10  N           1     -21.925  -9.658  -4.072  0.00  0.00    -0.066 N 
HETATM   11  H           1     -22.159 -10.096  -3.153  0.00  0.00     0.275 HD
HETATM   12  H           1     -22.695  -9.846  -4.753  0.00  0.00     0.275 HD
HETATM   13  H           1     -21.033 -10.063  -4.434  0.00  0.00     0.275 HD
ENDBRANCH   5  10
ENDBRANCH   2   5
BRANCH   1  14
HETATM   14  C           1     -21.380  -5.615  -6.717  0.00  0.00     0.209 C 
BRANCH  14  15
HETATM   15  C           1     -20.060  -4.891  -6.612  0.00  0.00     0.198 C 
HETATM   16  O           1     -19.349  -4.736  -7.628  0.00  0.00    -0.646 OA
HETATM   17  O           1     -19.676  -4.446  -5.509  0.00  0.00    -0.646 OA
ENDBRANCH  14  15
BRANCH  14  18
HETATM   18  C           1     -22.474  -4.625  -7.098  0.00  0.00     0.200 C 
BRANCH  18  19
HETATM   19  O           1     -21.908  -3.360  -7.309  0.00  0.00    -0.398 OA
HETATM   20  H           1     -21.622  -3.334  -8.206  0.00  0.00     0.209 HD
ENDBRANCH  18  19
ENDBRANCH  14  18
ENDBRANCH   1  14
TORSDOF 8
ENDMDL
MODEL 9
REMARK VINA RESULT:      -5.0     15.058     17.639
REMARK  8 active torsions:
REMARK  status: ('A' for Active; 'I' for Inactive)
REMARK    1  A    between atoms: N_2  and  C_18 
REMARK       I    between atoms: N_2  and  C_3 
REMARK    2  A    between atoms: C_3  and  C_4 
REMARK    3  A    between atoms: C_4  and  C_13 
REMARK    4  A    between atoms: C_4  and  N_14 
REMARK    5  A    between atoms: C_12  and  C_13 
REMARK    6  A    between atoms: C_17  and  C_18 
REMARK    7  A    between atoms: C_18  and  C_19 
REMARK    8  A    between atoms: C_19  and  O_20 
ROOT
HETATM    1  N           1     -20.983  -6.521  -4.734  0.00  0.00    -0.343 N 
HETATM    2  C           1     -21.722  -5.743  -5.584  0.00  0.00     0.249 C 
HETATM    3  H           1     -19.975  -6.445  -4.727  0.00  0.00     0.163 HD
HETATM    4  O           1     -22.927  -5.833  -5.592  0.00  0.00    -0.271 OA
ENDROOT
BRANCH   2   5
HETATM    5  C           1     -21.033  -4.771  -6.510  0.00  0.00     0.275 C 
BRANCH   5   6
HETATM    6  C           1     -21.135  -5.275  -7.943  0.00  0.00     0.046 C 
BRANCH   6   7
HETATM    7  C           1     -21.262  -4.091  -8.891  0.00  0.00    -0.020 C 
HETATM    8  C           1     -22.725  -3.897  -9.267  0.00  0.00     0.009 C 
HETATM    9  C           1     -20.446  -4.357 -10.149  0.00  0.00     0.009 C 
ENDBRANCH   6   7
ENDBRANCH   5   6
BRANCH   5  10
HETATM   10  N           1     -19.588  -4.654  -6.123  0.00  0.00    -0.066 N 
HETATM   11  H           1     -19.149  -3.867  -6.652  0.00  0.00     0.275 HD
HETATM   12  H           1     -19.517  -4.466  -5.097  0.00  0.00     0.275 HD
HETATM   13  H           1     -19.093  -5.546  -6.349  0.00  0.00     0.275 HD
ENDBRANCH   5  10
ENDBRANCH   2   5
BRANCH   1  14
HETATM   14  C           1     -21.647  -7.455  -3.845  0.00  0.00     0.209 C 
BRANCH  14  15
HETATM   15  C           1     -21.612  -6.917  -2.435  0.00  0.00     0.198 C 
HETATM   16  O           1     -22.297  -5.917  -2.131  0.00  0.00    -0.646 OA
HETATM   17  O           1     -20.897  -7.470  -1.572  0.00  0.00    -0.646 OA
ENDBRANCH  14  15
BRANCH  14  18
HETATM   18  C           1     -20.930  -8.798  -3.894  0.00  0.00     0.200 C 
BRANCH  18  19
HETATM   19  O           1     -19.549  -8.589  -4.012  0.00  0.00    -0.398 OA
HETATM   20  H           1     -19.241  -8.318  -3.165  0.00  0.00     0.209 HD
ENDBRANCH  18  19
ENDBRANCH  14  18
ENDBRANCH   1  14
TORSDOF 8
ENDMDL
