MODEL 1
REMARK VINA RESULT:      -6.1      0.000      0.000
REMARK  5 active torsions:
REMARK  status: ('A' for Active; 'I' for Inactive)
REMARK    1  A    between atoms: N_3  and  C_6 
REMARK    2  A    between atoms: S_4  and  C_5 
REMARK    3  A    between atoms: C_5  and  C_6 
REMARK    4  A    between atoms: C_6  and  C_7 
REMARK       I    between atoms: C_7  and  N_8 
REMARK    5  A    between atoms: C_14  and  C_18 
ROOT
HETATM    1  C           1     -34.939  -1.693 -11.006  0.00  0.00     0.127 C 
HETATM    2  O           1     -35.083  -1.685 -14.615  0.00  0.00    -0.271 OA
HETATM    3  C           1     -35.259  -1.284 -13.490  0.00  0.00     0.252 C 
HETATM    4  N           1     -34.814  -2.019 -12.424  0.00  0.00    -0.336 N 
HETATM    5  C           1     -33.052  -3.156 -11.377  0.00  0.00     0.038 C 
HETATM    6  C           1     -33.599  -2.104 -10.419  0.00  0.00     0.022 C 
HETATM    7  C           1     -34.110  -3.298 -12.457  0.00  0.00     0.188 C 
ENDROOT
BRANCH   3   8
HETATM    8  C           1     -35.972   0.025 -13.259  0.00  0.00     0.283 C 
BRANCH   8   9
HETATM    9  N           1     -35.578   1.004 -14.325  0.00  0.00    -0.066 N 
HETATM   10  H           1     -36.294   1.000 -15.085  0.00  0.00     0.275 HD
HETATM   11  H           1     -35.515   1.962 -13.912  0.00  0.00     0.275 HD
HETATM   12  H           1     -34.649   0.732 -14.719  0.00  0.00     0.275 HD
ENDBRANCH   8   9
BRANCH   8  13
HETATM   13  C           1     -37.477  -0.199 -13.308  0.00  0.00     0.113 C 
BRANCH  13  14
HETATM   14  S           1     -38.074   0.071 -15.001  0.00  0.00    -0.180 SA
HETATM   15  H           1     -39.380  -0.079 -14.716  0.00  0.00     0.101 HD
ENDBRANCH  13  14
ENDBRANCH   8  13
ENDBRANCH   3   8
BRANCH   7  16
HETATM   16  C           1     -35.050  -4.436 -12.142  0.00  0.00     0.196 C 
HETATM   17  O           1     -35.734  -4.410 -11.096  0.00  0.00    -0.646 OA
HETATM   18  O           1     -35.143  -5.404 -12.926  0.00  0.00    -0.646 OA
ENDBRANCH   7  16
TORSDOF 5
ENDMDL
MODEL 2
REMARK VINA RESULT:      -5.9     13.396     15.015
REMARK  5 active torsions:
REMARK  status: ('A' for Active; 'I' for Inactive)
REMARK    1  A    between atoms: N_3  and  C_6 
REMARK    2  A    between atoms: S_4  and  C_5 
REMARK    3  A    between atoms: C_5  and  C_6 
REMARK    4  A    between atoms: C_6  and  C_7 
REMARK       I    between atoms: C_7  and  N_8 
REMARK    5  A    between atoms: C_14  and  C_18 
ROOT
HETATM    1  C           1     -20.493  -4.940 -10.215  0.00  0.00     0.127 C 
HETATM    2  O           1     -22.569  -4.137  -7.371  0.00  0.00    -0.271 OA
HETATM    3  C           1     -21.641  -4.617  -7.975  0.00  0.00     0.252 C 
HETATM    4  N           1     -21.538  -4.436  -9.328  0.00  0.00    -0.336 N 
HETATM    5  C           1     -21.520  -2.964 -11.152  0.00  0.00     0.038 C 
HETATM    6  C           1     -20.236  -3.784 -11.168  0.00  0.00     0.022 C 
HETATM    7  C           1     -22.448  -3.697 -10.199  0.00  0.00     0.188 C 
ENDROOT
BRANCH   3   8
HETATM    8  C           1     -20.595  -5.418  -7.239  0.00  0.00     0.283 C 
BRANCH   8   9
HETATM    9  N           1     -19.853  -4.521  -6.293  0.00  0.00    -0.066 N 
HETATM   10  H           1     -19.935  -3.531  -6.615  0.00  0.00     0.275 HD
HETATM   11  H           1     -20.263  -4.611  -5.335  0.00  0.00     0.275 HD
HETATM   12  H           1     -18.846  -4.799  -6.270  0.00  0.00     0.275 HD
ENDBRANCH   8   9
BRANCH   8  13
HETATM   13  C           1     -21.270  -6.536  -6.455  0.00  0.00     0.113 C 
BRANCH  13  14
HETATM   14  S           1     -21.186  -6.165  -4.680  0.00  0.00    -0.180 SA
HETATM   15  H           1     -20.168  -7.001  -4.410  0.00  0.00     0.101 HD
ENDBRANCH  13  14
ENDBRANCH   8  13
ENDBRANCH   3   8
BRANCH   7  16
HETATM   16  C           1     -23.355  -4.639 -10.951  0.00  0.00     0.196 C 
HETATM   17  O           1     -23.417  -4.585 -12.198  0.00  0.00    -0.646 OA
HETATM   18  O           1     -24.045  -5.473 -10.326  0.00  0.00    -0.646 OA
ENDBRANCH   7  16
TORSDOF 5
ENDMDL
MODEL 3
REMARK VINA RESULT:      -5.8      2.732      5.024
REMARK  5 active torsions:
REMARK  status: ('A' for Active; 'I' for Inactive)
REMARK    1  A    between atoms: N_3  and  C_6 
REMARK    2  A    between atoms: S_4  and  C_5 
REMARK    3  A    between atoms: C_5  and  C_6 
REMARK    4  A    between atoms: C_6  and  C_7 
REMARK       I    between atoms: C_7  and  N_8 
REMARK    5  A    between atoms: C_14  and  C_18 
ROOT
HETATM    1  C           1     -36.267  -0.235 -12.069  0.00  0.00     0.127 C 
HETATM    2  O           1     -34.483  -2.863 -13.789  0.00  0.00    -0.271 OA
HETATM    3  C           1     -34.890  -2.217 -12.854  0.00  0.00     0.252 C 
HETATM    4  N           1     -35.689  -1.126 -13.071  0.00  0.00    -0.336 N 
HETATM    5  C           1     -37.594  -0.216 -14.088  0.00  0.00     0.038 C 
HETATM    6  C           1     -37.671   0.031 -12.586  0.00  0.00     0.022 C 
HETATM    7  C           1     -36.150  -0.602 -14.353  0.00  0.00     0.188 C 
ENDROOT
BRANCH   3   8
HETATM    8  C           1     -34.516  -2.610 -11.446  0.00  0.00     0.283 C 
BRANCH   8   9
HETATM    9  N           1     -35.575  -3.508 -10.880  0.00  0.00    -0.066 N 
HETATM   10  H           1     -35.215  -4.488 -10.836  0.00  0.00     0.275 HD
HETATM   11  H           1     -35.826  -3.187  -9.918  0.00  0.00     0.275 HD
HETATM   12  H           1     -36.422  -3.475 -11.492  0.00  0.00     0.275 HD
ENDBRANCH   8   9
BRANCH   8  13
HETATM   13  C           1     -33.182  -3.345 -11.461  0.00  0.00     0.113 C 
BRANCH  13  14
HETATM   14  S           1     -33.469  -5.124 -11.245  0.00  0.00    -0.180 SA
HETATM   15  H           1     -34.600  -4.999 -10.529  0.00  0.00     0.101 HD
ENDBRANCH  13  14
ENDBRANCH   8  13
ENDBRANCH   3   8
BRANCH   7  16
HETATM   16  C           1     -35.338   0.602 -14.763  0.00  0.00     0.196 C 
HETATM   17  O           1     -34.156   0.722 -14.374  0.00  0.00    -0.646 OA
HETATM   18  O           1     -35.848   1.481 -15.492  0.00  0.00    -0.646 OA
ENDBRANCH   7  16
TORSDOF 5
ENDMDL
MODEL 4
REMARK VINA RESULT:      -5.7     10.783     11.796
REMARK  5 active torsions:
REMARK  status: ('A' for Active; 'I' for Inactive)
REMARK    1  A    between atoms: N_3  and  C_6 
REMARK    2  A    between atoms: S_4  and  C_5 
REMARK    3  A    between atoms: C_5  and  C_6 
REMARK    4  A    between atoms: C_6  and  C_7 
REMARK       I    between atoms: C_7  and  N_8 
REMARK    5  A    between atoms: C_14  and  C_18 
ROOT
HETATM    1  C           1     -28.247  -6.164 -18.644  0.00  0.00     0.127 C 
HETATM    2  O           1     -24.687  -6.483 -18.119  0.00  0.00    -0.271 OA
HETATM    3  C           1     -25.741  -6.562 -18.703  0.00  0.00     0.252 C 
HETATM    4  N           1     -26.894  -6.143 -18.095  0.00  0.00    -0.336 N 
HETATM    5  C           1     -28.047  -4.459 -16.943  0.00  0.00     0.038 C 
HETATM    6  C           1     -28.846  -4.846 -18.182  0.00  0.00     0.022 C 
HETATM    7  C           1     -27.039  -5.578 -16.756  0.00  0.00     0.188 C 
ENDROOT
BRANCH   3   8
HETATM    8  C           1     -25.788  -7.123 -20.103  0.00  0.00     0.283 C 
BRANCH   8   9
HETATM    9  N           1     -25.889  -5.998 -21.089  0.00  0.00    -0.066 N 
HETATM   10  H           1     -24.934  -5.745 -21.429  0.00  0.00     0.275 HD
HETATM   11  H           1     -26.478  -6.298 -21.899  0.00  0.00     0.275 HD
HETATM   12  H           1     -26.326  -5.169 -20.626  0.00  0.00     0.275 HD
ENDBRANCH   8   9
BRANCH   8  13
HETATM   13  C           1     -24.520  -7.922 -20.373  0.00  0.00     0.113 C 
BRANCH  13  14
HETATM   14  S           1     -24.115  -7.836 -22.140  0.00  0.00    -0.180 SA
HETATM   15  H           1     -24.299  -9.144 -22.391  0.00  0.00     0.101 HD
ENDBRANCH  13  14
ENDBRANCH   8  13
ENDBRANCH   3   8
BRANCH   7  16
HETATM   16  C           1     -27.558  -6.614 -15.789  0.00  0.00     0.196 C 
HETATM   17  O           1     -28.722  -6.523 -15.342  0.00  0.00    -0.646 OA
HETATM   18  O           1     -26.825  -7.562 -15.436  0.00  0.00    -0.646 OA
ENDBRANCH   7  16
TORSDOF 5
ENDMDL
MODEL 5
REMARK VINA RESULT:      -5.6      9.042     10.330
REMARK  5 active torsions:
REMARK  status: ('A' for Active; 'I' for Inactive)
REMARK    1  A    between atoms: N_3  and  C_6 
REMARK    2  A    between atoms: S_4  and  C_5 
REMARK    3  A    between atoms: C_5  and  C_6 
REMARK    4  A    between atoms: C_6  and  C_7 
REMARK       I    between atoms: C_7  and  N_8 
REMARK    5  A    between atoms: C_14  and  C_18 
ROOT
HETATM    1  C           1     -28.462  -5.063 -17.912  0.00  0.00     0.127 C 
HETATM    2  O           1     -27.475  -7.355 -15.301  0.00  0.00    -0.271 OA
HETATM    3  C           1     -27.338  -6.575 -16.212  0.00  0.00     0.252 C 
HETATM    4  N           1     -28.437  -6.017 -16.807  0.00  0.00    -0.336 N 
HETATM    5  C           1     -30.465  -4.865 -16.576  0.00  0.00     0.038 C 
HETATM    6  C           1     -29.562  -4.088 -17.527  0.00  0.00     0.022 C 
HETATM    7  C           1     -29.841  -6.245 -16.474  0.00  0.00     0.188 C 
ENDROOT
BRANCH   3   8
HETATM    8  C           1     -25.954  -6.216 -16.695  0.00  0.00     0.283 C 
BRANCH   8   9
HETATM    9  N           1     -24.932  -6.851 -15.801  0.00  0.00    -0.066 N 
HETATM   10  H           1     -24.947  -6.385 -14.867  0.00  0.00     0.275 HD
HETATM   11  H           1     -25.152  -7.867 -15.687  0.00  0.00     0.275 HD
HETATM   12  H           1     -23.983  -6.746 -16.228  0.00  0.00     0.275 HD
ENDBRANCH   8   9
BRANCH   8  13
HETATM   13  C           1     -25.766  -6.721 -18.120  0.00  0.00     0.113 C 
BRANCH  13  14
HETATM   14  S           1     -24.015  -7.107 -18.399  0.00  0.00    -0.180 SA
HETATM   15  H           1     -24.175  -7.596 -19.641  0.00  0.00     0.101 HD
ENDBRANCH  13  14
ENDBRANCH   8  13
ENDBRANCH   3   8
BRANCH   7  16
HETATM   16  C           1     -30.477  -7.197 -17.456  0.00  0.00     0.196 C 
HETATM   17  O           1     -31.662  -7.024 -17.816  0.00  0.00    -0.646 OA
HETATM   18  O           1     -29.820  -8.158 -17.910  0.00  0.00    -0.646 OA
ENDBRANCH   7  16
TORSDOF 5
ENDMDL
MODEL 6
REMARK VINA RESULT:      -5.5      3.023      4.841
REMARK  5 active torsions:
REMARK  status: ('A' for Active; 'I' for Inactive)
REMARK    1  A    between atoms: N_3  and  C_6 
REMARK    2  A    between atoms: S_4  and  C_5 
REMARK    3  A    between atoms: C_5  and  C_6 
REMARK    4  A    between atoms: C_6  and  C_7 
REMARK       I    between atoms: C_7  and  N_8 
REMARK    5  A    between atoms: C_14  and  C_18 
ROOT
HETATM    1  C           1     -35.384  -1.507 -13.983  0.00  0.00     0.127 C 
HETATM    2  O           1     -34.311  -1.987 -10.568  0.00  0.00    -0.271 OA
HETATM    3  C           1     -34.442  -2.235 -11.742  0.00  0.00     0.252 C 
HETATM    4  N           1     -35.128  -1.370 -12.552  0.00  0.00    -0.336 N 
HETATM    5  C           1     -35.439   0.819 -13.329  0.00  0.00     0.038 C 
HETATM    6  C           1     -35.195  -0.098 -14.522  0.00  0.00     0.022 C 
HETATM    7  C           1     -35.763  -0.111 -12.174  0.00  0.00     0.188 C 
ENDROOT
BRANCH   3   8
HETATM    8  C           1     -33.850  -3.498 -12.317  0.00  0.00     0.283 C 
BRANCH   8   9
HETATM    9  N           1     -32.531  -3.777 -11.658  0.00  0.00    -0.066 N 
HETATM   10  H           1     -31.783  -3.218 -12.126  0.00  0.00     0.275 HD
HETATM   11  H           1     -32.584  -3.512 -10.649  0.00  0.00     0.275 HD
HETATM   12  H           1     -32.310  -4.795 -11.742  0.00  0.00     0.275 HD
ENDBRANCH   8   9
BRANCH   8  13
HETATM   13  C           1     -34.797  -4.664 -12.067  0.00  0.00     0.113 C 
BRANCH  13  14
HETATM   14  S           1     -34.040  -5.818 -10.889  0.00  0.00    -0.180 SA
HETATM   15  H           1     -34.691  -5.361  -9.805  0.00  0.00     0.101 HD
ENDBRANCH  13  14
ENDBRANCH   8  13
ENDBRANCH   3   8
BRANCH   7  16
HETATM   16  C           1     -37.255  -0.286 -12.026  0.00  0.00     0.196 C 
HETATM   17  O           1     -38.034   0.329 -12.786  0.00  0.00    -0.646 OA
HETATM   18  O           1     -37.711  -1.044 -11.143  0.00  0.00    -0.646 OA
ENDBRANCH   7  16
TORSDOF 5
ENDMDL
MODEL 7
REMARK VINA RESULT:      -5.3     25.740     26.789
REMARK  5 active torsions:
REMARK  status: ('A' for Active; 'I' for Inactive)
REMARK    1  A    between atoms: N_3  and  C_6 
REMARK    2  A    between atoms: S_4  and  C_5 
REMARK    3  A    between atoms: C_5  and  C_6 
REMARK    4  A    between atoms: C_6  and  C_7 
REMARK       I    between atoms: C_7  and  N_8 
REMARK    5  A    between atoms: C_14  and  C_18 
ROOT
HETATM    1  C           1     -10.473   7.538 -21.566  0.00  0.00     0.127 C 
HETATM    2  O           1     -13.285   6.749 -19.441  0.00  0.00    -0.271 OA
HETATM    3  C           1     -12.403   6.557 -20.243  0.00  0.00     0.252 C 
HETATM    4  N           1     -11.581   7.586 -20.616  0.00  0.00    -0.336 N 
HETATM    5  C           1     -10.159   9.337 -19.984  0.00  0.00     0.038 C 
HETATM    6  C           1      -9.402   8.400 -20.917  0.00  0.00     0.022 C 
HETATM    7  C           1     -11.622   8.970 -20.153  0.00  0.00     0.188 C 
ENDROOT
BRANCH   3   8
HETATM    8  C           1     -12.208   5.182 -20.834  0.00  0.00     0.283 C 
BRANCH   8   9
HETATM    9  N           1     -11.673   4.257 -19.782  0.00  0.00    -0.066 N 
HETATM   10  H           1     -11.486   3.320 -20.203  0.00  0.00     0.275 HD
HETATM   11  H           1     -10.784   4.648 -19.394  0.00  0.00     0.275 HD
HETATM   12  H           1     -12.376   4.160 -19.014  0.00  0.00     0.275 HD
ENDBRANCH   8   9
BRANCH   8  13
HETATM   13  C           1     -13.542   4.653 -21.343  0.00  0.00     0.113 C 
BRANCH  13  14
HETATM   14  S           1     -13.437   2.854 -21.559  0.00  0.00    -0.180 SA
HETATM   15  H           1     -13.603   2.862 -22.893  0.00  0.00     0.101 HD
ENDBRANCH  13  14
ENDBRANCH   8  13
ENDBRANCH   3   8
BRANCH   7  16
HETATM   16  C           1     -12.285   9.859 -21.176  0.00  0.00     0.196 C 
HETATM   17  O           1     -13.411   9.561 -21.627  0.00  0.00    -0.646 OA
HETATM   18  O           1     -11.707  10.894 -21.572  0.00  0.00    -0.646 OA
ENDBRANCH   7  16
TORSDOF 5
ENDMDL
MODEL 8
REMARK VINA RESULT:      -5.1     25.198     26.097
REMARK  5 active torsions:
REMARK  status: ('A' for Active; 'I' for Inactive)
REMARK    1  A    between atoms: N_3  and  C_6 
REMARK    2  A    between atoms: S_4  and  C_5 
REMARK    3  A    between atoms: C_5  and  C_6 
REMARK    4  A    between atoms: C_6  and  C_7 
REMARK       I    between atoms: C_7  and  N_8 
REMARK    5  A    between atoms: C_14  and  C_18 
ROOT
HETATM    1  C           1     -11.129   4.734 -21.928  0.00  0.00     0.127 C 
HETATM    2  O           1     -13.826   6.350 -20.149  0.00  0.00    -0.271 OA
HETATM    3  C           1     -13.170   5.993 -21.098  0.00  0.00     0.252 C 
HETATM    4  N           1     -12.038   5.248 -20.907  0.00  0.00    -0.336 N 
HETATM    5  C           1     -11.020   3.375 -19.933  0.00  0.00     0.038 C 
HETATM    6  C           1     -10.786   3.337 -21.439  0.00  0.00     0.022 C 
HETATM    7  C           1     -11.476   4.793 -19.639  0.00  0.00     0.188 C 
ENDROOT
BRANCH   3   8
HETATM    8  C           1     -13.598   6.371 -22.495  0.00  0.00     0.283 C 
BRANCH   8   9
HETATM    9  N           1     -15.031   5.978 -22.703  0.00  0.00    -0.066 N 
HETATM   10  H           1     -15.100   4.939 -22.780  0.00  0.00     0.275 HD
HETATM   11  H           1     -15.602   6.306 -21.891  0.00  0.00     0.275 HD
HETATM   12  H           1     -15.388   6.418 -23.582  0.00  0.00     0.275 HD
ENDBRANCH   8   9
BRANCH   8  13
HETATM   13  C           1     -13.453   7.875 -22.683  0.00  0.00     0.113 C 
BRANCH  13  14
HETATM   14  S           1     -11.698   8.293 -22.888  0.00  0.00    -0.180 SA
HETATM   15  H           1     -11.784   8.628 -24.187  0.00  0.00     0.101 HD
ENDBRANCH  13  14
ENDBRANCH   8  13
ENDBRANCH   3   8
BRANCH   7  16
HETATM   16  C           1     -10.311   5.658 -19.226  0.00  0.00     0.196 C 
HETATM   17  O           1     -10.436   6.902 -19.195  0.00  0.00    -0.646 OA
HETATM   18  O           1      -9.220   5.132 -18.917  0.00  0.00    -0.646 OA
ENDBRANCH   7  16
TORSDOF 5
ENDMDL
MODEL 9
REMARK VINA RESULT:      -5.0      2.616      3.382
REMARK  5 active torsions:
REMARK  status: ('A' for Active; 'I' for Inactive)
REMARK    1  A    between atoms: N_3  and  C_6 
REMARK    2  A    between atoms: S_4  and  C_5 
REMARK    3  A    between atoms: C_5  and  C_6 
REMARK    4  A    between atoms: C_6  and  C_7 
REMARK       I    between atoms: C_7  and  N_8 
REMARK    5  A    between atoms: C_14  and  C_18 
ROOT
HETATM    1  C           1     -34.525  -1.106 -11.841  0.00  0.00     0.127 C 
HETATM    2  O           1     -37.611  -0.661 -13.665  0.00  0.00    -0.271 OA
HETATM    3  C           1     -36.418  -0.687 -13.478  0.00  0.00     0.252 C 
HETATM    4  N           1     -35.925  -1.023 -12.246  0.00  0.00    -0.336 N 
HETATM    5  C           1     -35.896  -2.525 -10.447  0.00  0.00     0.038 C 
HETATM    6  C           1     -34.473  -2.345 -10.962  0.00  0.00     0.022 C 
HETATM    7  C           1     -36.685  -1.377 -11.050  0.00  0.00     0.188 C 
ENDROOT
BRANCH   3   8
HETATM    8  C           1     -35.471  -0.349 -14.603  0.00  0.00     0.283 C 
BRANCH   8   9
HETATM    9  N           1     -36.125  -0.659 -15.917  0.00  0.00    -0.066 N 
HETATM   10  H           1     -36.737   0.138 -16.199  0.00  0.00     0.275 HD
HETATM   11  H           1     -35.389  -0.808 -16.645  0.00  0.00     0.275 HD
HETATM   12  H           1     -36.702  -1.526 -15.822  0.00  0.00     0.275 HD
ENDBRANCH   8   9
BRANCH   8  13
HETATM   13  C           1     -35.124   1.132 -14.547  0.00  0.00     0.113 C 
BRANCH  13  14
HETATM   14  S           1     -35.992   2.009 -15.878  0.00  0.00    -0.180 SA
HETATM   15  H           1     -35.103   1.715 -16.843  0.00  0.00     0.101 HD
ENDBRANCH  13  14
ENDBRANCH   8  13
ENDBRANCH   3   8
BRANCH   7  16
HETATM   16  C           1     -36.755  -0.212 -10.094  0.00  0.00     0.196 C 
HETATM   17  O           1     -37.384   0.820 -10.411  0.00  0.00    -0.646 OA
HETATM   18  O           1     -36.182  -0.279  -8.985  0.00  0.00    -0.646 OA
ENDBRANCH   7  16
TORSDOF 5
ENDMDL
