MODEL 1
REMARK VINA RESULT:      -7.0      0.000      0.000
REMARK  10 active torsions:
REMARK  status: ('A' for Active; 'I' for Inactive)
REMARK    1  A    between atoms: C_2  and  C_3 
REMARK    2  A    between atoms: C_3  and  C_24 
REMARK    3  A    between atoms: C_3  and  N_5 
REMARK    4  A    between atoms: N_4  and  C_19 
REMARK       I    between atoms: N_5  and  C_16 
REMARK    5  A    between atoms: C_6  and  C_7 
REMARK    6  A    between atoms: C_6  and  C_24 
REMARK    7  A    between atoms: C_7  and  N_10 
REMARK       I    between atoms: N_10  and  C_15 
REMARK       I    between atoms: N_11  and  C_15 
REMARK    8  A    between atoms: C_16  and  C_19 
REMARK    9  A    between atoms: C_19  and  C_20 
REMARK   10  A    between atoms: C_20  and  C_27 
ROOT
HETATM    1  C           1     -28.662  -6.344 -18.151  0.00  0.00     0.185 C 
ENDROOT
BRANCH   1   2
HETATM    2  C           1     -29.670  -7.445 -18.369  0.00  0.00     0.196 C 
HETATM    3  O           1     -30.814  -7.353 -17.876  0.00  0.00    -0.646 OA
HETATM    4  O           1     -29.360  -8.451 -19.045  0.00  0.00    -0.646 OA
ENDBRANCH   1   2
BRANCH   1   5
HETATM    5  C           1     -29.215  -5.032 -18.692  0.00  0.00     0.038 C 
BRANCH   5   6
HETATM    6  C           1     -29.176  -3.973 -17.599  0.00  0.00     0.023 C 
BRANCH   6   7
HETATM    7  C           1     -30.571  -3.391 -17.405  0.00  0.00     0.138 C 
BRANCH   7   8
HETATM    8  N           1     -31.455  -4.415 -16.828  0.00  0.00    -0.227 N 
HETATM    9  H           1     -31.044  -5.281 -16.398  0.00  0.00     0.177 HD
HETATM   10  C           1     -32.710  -4.253 -16.850  0.00  0.00     0.665 C 
HETATM   11  N           1     -33.491  -5.158 -16.340  0.00  0.00    -0.235 N 
HETATM   12  N           1     -33.205  -3.208 -17.368  0.00  0.00    -0.235 N 
HETATM   13  H           1     -33.083  -6.019 -15.912  0.00  0.00     0.174 HD
HETATM   14  H           1     -34.527  -5.023 -16.358  0.00  0.00     0.174 HD
HETATM   15  H           1     -34.246  -3.074 -17.385  0.00  0.00     0.174 HD
HETATM   16  H           1     -32.574  -2.477 -17.779  0.00  0.00     0.174 HD
ENDBRANCH   7   8
ENDBRANCH   6   7
ENDBRANCH   5   6
ENDBRANCH   1   5
BRANCH   1  17
HETATM   17  N           1     -27.431  -6.671 -18.843  0.00  0.00    -0.345 N 
HETATM   18  H           1     -27.464  -7.112 -19.754  0.00  0.00     0.163 HD
HETATM   19  C           1     -26.223  -6.382 -18.266  0.00  0.00     0.249 C 
HETATM   20  O           1     -26.183  -5.857 -17.180  0.00  0.00    -0.271 OA
BRANCH  19  21
HETATM   21  C           1     -24.942  -6.723 -18.987  0.00  0.00     0.278 C 
BRANCH  21  22
HETATM   22  N           1     -24.182  -7.746 -18.198  0.00  0.00    -0.066 N 
HETATM   23  H           1     -24.381  -8.699 -18.578  0.00  0.00     0.275 HD
HETATM   24  H           1     -23.157  -7.550 -18.269  0.00  0.00     0.275 HD
HETATM   25  H           1     -24.476  -7.702 -17.195  0.00  0.00     0.275 HD
ENDBRANCH  21  22
BRANCH  21  26
HETATM   26  C           1     -25.268  -7.283 -20.365  0.00  0.00     0.021 C 
HETATM   27  C           1     -25.387  -6.140 -21.364  0.00  0.00     0.012 C 
BRANCH  26  28
HETATM   28  C           1     -24.157  -8.227 -20.805  0.00  0.00     0.002 C 
HETATM   29  C           1     -23.836  -7.985 -22.274  0.00  0.00     0.005 C 
ENDBRANCH  26  28
ENDBRANCH  21  26
ENDBRANCH  19  21
ENDBRANCH   1  17
TORSDOF 10
ENDMDL
MODEL 2
REMARK VINA RESULT:      -6.4     13.539     15.503
REMARK  10 active torsions:
REMARK  status: ('A' for Active; 'I' for Inactive)
REMARK    1  A    between atoms: C_2  and  C_3 
REMARK    2  A    between atoms: C_3  and  C_24 
REMARK    3  A    between atoms: C_3  and  N_5 
REMARK    4  A    between atoms: N_4  and  C_19 
REMARK       I    between atoms: N_5  and  C_16 
REMARK    5  A    between atoms: C_6  and  C_7 
REMARK    6  A    between atoms: C_6  and  C_24 
REMARK    7  A    between atoms: C_7  and  N_10 
REMARK       I    between atoms: N_10  and  C_15 
REMARK       I    between atoms: N_11  and  C_15 
REMARK    8  A    between atoms: C_16  and  C_19 
REMARK    9  A    between atoms: C_19  and  C_20 
REMARK   10  A    between atoms: C_20  and  C_27 
ROOT
HETATM    1  C           1     -21.363  -5.581  -6.462  0.00  0.00     0.185 C 
ENDROOT
BRANCH   1   2
HETATM    2  C           1     -20.068  -5.875  -7.177  0.00  0.00     0.196 C 
HETATM    3  O           1     -19.450  -6.935  -6.941  0.00  0.00    -0.646 OA
HETATM    4  O           1     -19.613  -5.058  -8.006  0.00  0.00    -0.646 OA
ENDBRANCH   1   2
BRANCH   1   5
HETATM    5  C           1     -21.903  -4.232  -6.919  0.00  0.00     0.038 C 
BRANCH   5   6
HETATM    6  C           1     -23.238  -4.430  -7.624  0.00  0.00     0.023 C 
BRANCH   6   7
HETATM    7  C           1     -23.194  -3.766  -8.995  0.00  0.00     0.138 C 
BRANCH   7   8
HETATM    8  N           1     -21.812  -3.765  -9.495  0.00  0.00    -0.227 N 
HETATM    9  H           1     -21.029  -3.437  -8.876  0.00  0.00     0.177 HD
HETATM   10  C           1     -21.565  -4.160 -10.672  0.00  0.00     0.665 C 
HETATM   11  N           1     -20.343  -4.159 -11.115  0.00  0.00    -0.235 N 
HETATM   12  N           1     -22.509  -4.555 -11.419  0.00  0.00    -0.235 N 
HETATM   13  H           1     -19.564  -3.833 -10.499  0.00  0.00     0.174 HD
HETATM   14  H           1     -20.139  -4.485 -12.087  0.00  0.00     0.174 HD
HETATM   15  H           1     -22.304  -4.882 -12.395  0.00  0.00     0.174 HD
HETATM   16  H           1     -23.496  -4.555 -11.061  0.00  0.00     0.174 HD
ENDBRANCH   7   8
ENDBRANCH   6   7
ENDBRANCH   5   6
ENDBRANCH   1   5
BRANCH   1  17
HETATM   17  N           1     -21.128  -5.546  -5.032  0.00  0.00    -0.345 N 
HETATM   18  H           1     -20.646  -4.760  -4.617  0.00  0.00     0.163 HD
HETATM   19  C           1     -21.561  -6.578  -4.242  0.00  0.00     0.249 C 
HETATM   20  O           1     -22.136  -7.518  -4.737  0.00  0.00    -0.271 OA
BRANCH  19  21
HETATM   21  C           1     -21.316  -6.543  -2.753  0.00  0.00     0.278 C 
BRANCH  21  22
HETATM   22  N           1     -22.339  -5.663  -2.100  0.00  0.00    -0.066 N 
HETATM   23  H           1     -22.812  -6.188  -1.330  0.00  0.00     0.275 HD
HETATM   24  H           1     -21.870  -4.816  -1.705  0.00  0.00     0.275 HD
HETATM   25  H           1     -23.050  -5.368  -2.809  0.00  0.00     0.275 HD
ENDBRANCH  21  22
BRANCH  21  26
HETATM   26  C           1     -21.423  -7.952  -2.187  0.00  0.00     0.021 C 
HETATM   27  C           1     -20.030  -8.554  -2.057  0.00  0.00     0.012 C 
BRANCH  26  28
HETATM   28  C           1     -22.082  -7.900  -0.816  0.00  0.00     0.002 C 
HETATM   29  C           1     -22.624  -9.279  -0.459  0.00  0.00     0.005 C 
ENDBRANCH  26  28
ENDBRANCH  21  26
ENDBRANCH  19  21
ENDBRANCH   1  17
TORSDOF 10
ENDMDL
MODEL 3
REMARK VINA RESULT:      -6.2     14.374     15.842
REMARK  10 active torsions:
REMARK  status: ('A' for Active; 'I' for Inactive)
REMARK    1  A    between atoms: C_2  and  C_3 
REMARK    2  A    between atoms: C_3  and  C_24 
REMARK    3  A    between atoms: C_3  and  N_5 
REMARK    4  A    between atoms: N_4  and  C_19 
REMARK       I    between atoms: N_5  and  C_16 
REMARK    5  A    between atoms: C_6  and  C_7 
REMARK    6  A    between atoms: C_6  and  C_24 
REMARK    7  A    between atoms: C_7  and  N_10 
REMARK       I    between atoms: N_10  and  C_15 
REMARK       I    between atoms: N_11  and  C_15 
REMARK    8  A    between atoms: C_16  and  C_19 
REMARK    9  A    between atoms: C_19  and  C_20 
REMARK   10  A    between atoms: C_20  and  C_27 
ROOT
HETATM    1  C           1     -20.809  -7.039  -4.772  0.00  0.00     0.185 C 
ENDROOT
BRANCH   1   2
HETATM    2  C           1     -20.298  -8.310  -5.405  0.00  0.00     0.196 C 
HETATM    3  O           1     -19.087  -8.423  -5.691  0.00  0.00    -0.646 OA
HETATM    4  O           1     -21.087  -9.250  -5.642  0.00  0.00    -0.646 OA
ENDBRANCH   1   2
BRANCH   1   5
HETATM    5  C           1     -21.661  -7.381  -3.557  0.00  0.00     0.038 C 
BRANCH   5   6
HETATM    6  C           1     -21.699  -6.190  -2.610  0.00  0.00     0.023 C 
BRANCH   6   7
HETATM    7  C           1     -22.320  -6.613  -1.284  0.00  0.00     0.138 C 
BRANCH   7   8
HETATM    8  N           1     -22.036  -8.035  -1.041  0.00  0.00    -0.227 N 
HETATM    9  H           1     -21.315  -8.533  -1.621  0.00  0.00     0.177 HD
HETATM   10  C           1     -22.658  -8.658  -0.132  0.00  0.00     0.665 C 
HETATM   11  N           1     -22.407  -9.915   0.083  0.00  0.00    -0.235 N 
HETATM   12  N           1     -23.527  -8.058   0.567  0.00  0.00    -0.235 N 
HETATM   13  H           1     -21.690 -10.411  -0.494  0.00  0.00     0.174 HD
HETATM   14  H           1     -22.921 -10.429   0.834  0.00  0.00     0.174 HD
HETATM   15  H           1     -24.043  -8.575   1.321  0.00  0.00     0.174 HD
HETATM   16  H           1     -23.730  -7.042   0.393  0.00  0.00     0.174 HD
ENDBRANCH   7   8
ENDBRANCH   6   7
ENDBRANCH   5   6
ENDBRANCH   1   5
BRANCH   1  17
HETATM   17  N           1     -21.611  -6.309  -5.734  0.00  0.00    -0.345 N 
HETATM   18  H           1     -22.524  -6.656  -5.999  0.00  0.00     0.163 HD
HETATM   19  C           1     -21.134  -5.149  -6.284  0.00  0.00     0.249 C 
HETATM   20  O           1     -20.044  -4.735  -5.969  0.00  0.00    -0.271 OA
BRANCH  19  21
HETATM   21  C           1     -21.969  -4.390  -7.286  0.00  0.00     0.278 C 
BRANCH  21  22
HETATM   22  N           1     -21.613  -2.934  -7.232  0.00  0.00    -0.066 N 
HETATM   23  H           1     -22.450  -2.360  -7.482  0.00  0.00     0.275 HD
HETATM   24  H           1     -21.299  -2.688  -6.266  0.00  0.00     0.275 HD
HETATM   25  H           1     -20.841  -2.739  -7.910  0.00  0.00     0.275 HD
ENDBRANCH  21  22
BRANCH  21  26
HETATM   26  C           1     -21.698  -4.927  -8.685  0.00  0.00     0.021 C 
HETATM   27  C           1     -22.886  -4.617  -9.587  0.00  0.00     0.012 C 
BRANCH  26  28
HETATM   28  C           1     -20.447  -4.268  -9.249  0.00  0.00     0.002 C 
HETATM   29  C           1     -20.548  -4.202 -10.768  0.00  0.00     0.005 C 
ENDBRANCH  26  28
ENDBRANCH  21  26
ENDBRANCH  19  21
ENDBRANCH   1  17
TORSDOF 10
ENDMDL
MODEL 4
REMARK VINA RESULT:      -6.0     15.343     17.059
REMARK  10 active torsions:
REMARK  status: ('A' for Active; 'I' for Inactive)
REMARK    1  A    between atoms: C_2  and  C_3 
REMARK    2  A    between atoms: C_3  and  C_24 
REMARK    3  A    between atoms: C_3  and  N_5 
REMARK    4  A    between atoms: N_4  and  C_19 
REMARK       I    between atoms: N_5  and  C_16 
REMARK    5  A    between atoms: C_6  and  C_7 
REMARK    6  A    between atoms: C_6  and  C_24 
REMARK    7  A    between atoms: C_7  and  N_10 
REMARK       I    between atoms: N_10  and  C_15 
REMARK       I    between atoms: N_11  and  C_15 
REMARK    8  A    between atoms: C_16  and  C_19 
REMARK    9  A    between atoms: C_19  and  C_20 
REMARK   10  A    between atoms: C_20  and  C_27 
ROOT
HETATM    1  C           1     -20.599  -8.070  -4.758  0.00  0.00     0.185 C 
ENDROOT
BRANCH   1   2
HETATM    2  C           1     -19.436  -9.020  -4.909  0.00  0.00     0.196 C 
HETATM    3  O           1     -19.405  -9.824  -5.866  0.00  0.00    -0.646 OA
HETATM    4  O           1     -18.503  -9.003  -4.077  0.00  0.00    -0.646 OA
ENDBRANCH   1   2
BRANCH   1   5
HETATM    5  C           1     -20.396  -6.869  -5.672  0.00  0.00     0.038 C 
BRANCH   5   6
HETATM    6  C           1     -21.692  -6.074  -5.763  0.00  0.00     0.023 C 
BRANCH   6   7
HETATM    7  C           1     -21.494  -4.883  -6.692  0.00  0.00     0.138 C 
BRANCH   7   8
HETATM    8  N           1     -22.804  -4.355  -7.100  0.00  0.00    -0.227 N 
HETATM    9  H           1     -23.529  -4.130  -6.374  0.00  0.00     0.177 HD
HETATM   10  C           1     -23.058  -4.172  -8.326  0.00  0.00     0.665 C 
HETATM   11  N           1     -24.217  -3.705  -8.687  0.00  0.00    -0.235 N 
HETATM   12  N           1     -22.184  -4.443  -9.202  0.00  0.00    -0.235 N 
HETATM   13  H           1     -24.938  -3.482  -7.965  0.00  0.00     0.174 HD
HETATM   14  H           1     -24.427  -3.554  -9.700  0.00  0.00     0.174 HD
HETATM   15  H           1     -22.396  -4.291 -10.219  0.00  0.00     0.174 HD
HETATM   16  H           1     -21.249  -4.819  -8.911  0.00  0.00     0.174 HD
ENDBRANCH   7   8
ENDBRANCH   6   7
ENDBRANCH   5   6
ENDBRANCH   1   5
BRANCH   1  17
HETATM   17  N           1     -20.681  -7.622  -3.382  0.00  0.00    -0.345 N 
HETATM   18  H           1     -20.239  -6.754  -3.106  0.00  0.00     0.163 HD
HETATM   19  C           1     -21.357  -8.371  -2.457  0.00  0.00     0.249 C 
HETATM   20  O           1     -21.884  -9.407  -2.787  0.00  0.00    -0.271 OA
BRANCH  19  21
HETATM   21  C           1     -21.442  -7.905  -1.025  0.00  0.00     0.278 C 
BRANCH  21  22
HETATM   22  N           1     -22.505  -6.853  -0.904  0.00  0.00    -0.066 N 
HETATM   23  H           1     -22.250  -6.030  -1.495  0.00  0.00     0.275 HD
HETATM   24  H           1     -23.420  -7.243  -1.227  0.00  0.00     0.275 HD
HETATM   25  H           1     -22.587  -6.554   0.094  0.00  0.00     0.275 HD
ENDBRANCH  21  22
BRANCH  21  26
HETATM   26  C           1     -21.790  -9.083  -0.126  0.00  0.00     0.021 C 
HETATM   27  C           1     -21.042  -8.954   1.194  0.00  0.00     0.012 C 
BRANCH  26  28
HETATM   28  C           1     -23.289  -9.094   0.141  0.00  0.00     0.002 C 
HETATM   29  C           1     -23.838 -10.497  -0.093  0.00  0.00     0.005 C 
ENDBRANCH  26  28
ENDBRANCH  21  26
ENDBRANCH  19  21
ENDBRANCH   1  17
TORSDOF 10
ENDMDL
MODEL 5
REMARK VINA RESULT:      -5.6     14.590     16.279
REMARK  10 active torsions:
REMARK  status: ('A' for Active; 'I' for Inactive)
REMARK    1  A    between atoms: C_2  and  C_3 
REMARK    2  A    between atoms: C_3  and  C_24 
REMARK    3  A    between atoms: C_3  and  N_5 
REMARK    4  A    between atoms: N_4  and  C_19 
REMARK       I    between atoms: N_5  and  C_16 
REMARK    5  A    between atoms: C_6  and  C_7 
REMARK    6  A    between atoms: C_6  and  C_24 
REMARK    7  A    between atoms: C_7  and  N_10 
REMARK       I    between atoms: N_10  and  C_15 
REMARK       I    between atoms: N_11  and  C_15 
REMARK    8  A    between atoms: C_16  and  C_19 
REMARK    9  A    between atoms: C_19  and  C_20 
REMARK   10  A    between atoms: C_20  and  C_27 
ROOT
HETATM    1  C           1     -21.520  -7.371  -4.020  0.00  0.00     0.185 C 
ENDROOT
BRANCH   1   2
HETATM    2  C           1     -21.615  -6.815  -2.620  0.00  0.00     0.196 C 
HETATM    3  O           1     -20.901  -7.288  -1.709  0.00  0.00    -0.646 OA
HETATM    4  O           1     -22.409  -5.882  -2.371  0.00  0.00    -0.646 OA
ENDBRANCH   1   2
BRANCH   1   5
HETATM    5  C           1     -20.696  -8.652  -4.004  0.00  0.00     0.038 C 
BRANCH   5   6
HETATM    6  C           1     -21.534  -9.803  -4.543  0.00  0.00     0.023 C 
BRANCH   6   7
HETATM    7  C           1     -21.703 -10.861  -3.460  0.00  0.00     0.138 C 
BRANCH   7   8
HETATM    8  N           1     -21.502 -10.247  -2.139  0.00  0.00    -0.227 N 
HETATM    9  H           1     -20.615  -9.722  -1.933  0.00  0.00     0.177 HD
HETATM   10  C           1     -22.396 -10.351  -1.250  0.00  0.00     0.665 C 
HETATM   11  N           1     -22.218  -9.809  -0.082  0.00  0.00    -0.235 N 
HETATM   12  N           1     -23.465 -10.984  -1.498  0.00  0.00    -0.235 N 
HETATM   13  H           1     -21.337  -9.287   0.122  0.00  0.00     0.174 HD
HETATM   14  H           1     -22.957  -9.895   0.652  0.00  0.00     0.174 HD
HETATM   15  H           1     -24.207 -11.071  -0.760  0.00  0.00     0.174 HD
HETATM   16  H           1     -23.609 -11.423  -2.441  0.00  0.00     0.174 HD
ENDBRANCH   7   8
ENDBRANCH   6   7
ENDBRANCH   5   6
ENDBRANCH   1   5
BRANCH   1  17
HETATM   17  N           1     -20.881  -6.397  -4.883  0.00  0.00    -0.345 N 
HETATM   18  H           1     -19.874  -6.305  -4.884  0.00  0.00     0.163 HD
HETATM   19  C           1     -21.642  -5.603  -5.699  0.00  0.00     0.249 C 
HETATM   20  O           1     -22.845  -5.713  -5.698  0.00  0.00    -0.271 OA
BRANCH  19  21
HETATM   21  C           1     -20.978  -4.589  -6.598  0.00  0.00     0.278 C 
BRANCH  21  22
HETATM   22  N           1     -19.489  -4.680  -6.439  0.00  0.00    -0.066 N 
HETATM   23  H           1     -19.263  -5.189  -5.554  0.00  0.00     0.275 HD
HETATM   24  H           1     -19.083  -5.196  -7.251  0.00  0.00     0.275 HD
HETATM   25  H           1     -19.084  -3.716  -6.400  0.00  0.00     0.275 HD
ENDBRANCH  21  22
BRANCH  21  26
HETATM   26  C           1     -21.352  -4.872  -8.047  0.00  0.00     0.021 C 
HETATM   27  C           1     -22.339  -3.819  -8.532  0.00  0.00     0.012 C 
BRANCH  26  28
HETATM   28  C           1     -20.100  -4.830  -8.912  0.00  0.00     0.002 C 
HETATM   29  C           1     -20.463  -4.345 -10.310  0.00  0.00     0.005 C 
ENDBRANCH  26  28
ENDBRANCH  21  26
ENDBRANCH  19  21
ENDBRANCH   1  17
TORSDOF 10
ENDMDL
MODEL 6
REMARK VINA RESULT:      -5.5     14.360     16.039
REMARK  10 active torsions:
REMARK  status: ('A' for Active; 'I' for Inactive)
REMARK    1  A    between atoms: C_2  and  C_3 
REMARK    2  A    between atoms: C_3  and  C_24 
REMARK    3  A    between atoms: C_3  and  N_5 
REMARK    4  A    between atoms: N_4  and  C_19 
REMARK       I    between atoms: N_5  and  C_16 
REMARK    5  A    between atoms: C_6  and  C_7 
REMARK    6  A    between atoms: C_6  and  C_24 
REMARK    7  A    between atoms: C_7  and  N_10 
REMARK       I    between atoms: N_10  and  C_15 
REMARK       I    between atoms: N_11  and  C_15 
REMARK    8  A    between atoms: C_16  and  C_19 
REMARK    9  A    between atoms: C_19  and  C_20 
REMARK   10  A    between atoms: C_20  and  C_27 
ROOT
HETATM    1  C           1     -19.998  -8.095  -4.853  0.00  0.00     0.185 C 
ENDROOT
BRANCH   1   2
HETATM    2  C           1     -18.947  -9.136  -5.155  0.00  0.00     0.196 C 
HETATM    3  O           1     -19.034  -9.830  -6.190  0.00  0.00    -0.646 OA
HETATM    4  O           1     -17.990  -9.302  -4.368  0.00  0.00    -0.646 OA
ENDBRANCH   1   2
BRANCH   1   5
HETATM    5  C           1     -21.370  -8.756  -4.809  0.00  0.00     0.038 C 
BRANCH   5   6
HETATM    6  C           1     -21.398  -9.799  -3.700  0.00  0.00     0.023 C 
BRANCH   6   7
HETATM    7  C           1     -21.596  -9.108  -2.356  0.00  0.00     0.138 C 
BRANCH   7   8
HETATM    8  N           1     -21.780  -7.665  -2.569  0.00  0.00    -0.227 N 
HETATM    9  H           1     -21.646  -7.254  -3.526  0.00  0.00     0.177 HD
HETATM   10  C           1     -22.099  -6.917  -1.598  0.00  0.00     0.665 C 
HETATM   11  N           1     -22.261  -5.641  -1.786  0.00  0.00    -0.235 N 
HETATM   12  N           1     -22.261  -7.413  -0.444  0.00  0.00    -0.235 N 
HETATM   13  H           1     -22.128  -5.233  -2.739  0.00  0.00     0.174 HD
HETATM   14  H           1     -22.525  -5.025  -0.985  0.00  0.00     0.174 HD
HETATM   15  H           1     -22.526  -6.793   0.361  0.00  0.00     0.174 HD
HETATM   16  H           1     -22.130  -8.444  -0.292  0.00  0.00     0.174 HD
ENDBRANCH   7   8
ENDBRANCH   6   7
ENDBRANCH   5   6
ENDBRANCH   1   5
BRANCH   1  17
HETATM   17  N           1     -19.984  -7.081  -5.888  0.00  0.00    -0.345 N 
HETATM   18  H           1     -19.670  -7.313  -6.821  0.00  0.00     0.163 HD
HETATM   19  C           1     -20.399  -5.807  -5.604  0.00  0.00     0.249 C 
HETATM   20  O           1     -20.775  -5.529  -4.490  0.00  0.00    -0.271 OA
BRANCH  19  21
HETATM   21  C           1     -20.385  -4.750  -6.681  0.00  0.00     0.278 C 
BRANCH  21  22
HETATM   22  N           1     -19.006  -4.649  -7.263  0.00  0.00    -0.066 N 
HETATM   23  H           1     -18.848  -5.443  -7.925  0.00  0.00     0.275 HD
HETATM   24  H           1     -18.910  -3.744  -7.776  0.00  0.00     0.275 HD
HETATM   25  H           1     -18.299  -4.691  -6.494  0.00  0.00     0.275 HD
ENDBRANCH  21  22
BRANCH  21  26
HETATM   26  C           1     -21.372  -5.128  -7.776  0.00  0.00     0.021 C 
HETATM   27  C           1     -22.705  -4.437  -7.519  0.00  0.00     0.012 C 
BRANCH  26  28
HETATM   28  C           1     -20.826  -4.687  -9.127  0.00  0.00     0.002 C 
HETATM   29  C           1     -21.915  -3.956  -9.903  0.00  0.00     0.005 C 
ENDBRANCH  26  28
ENDBRANCH  21  26
ENDBRANCH  19  21
ENDBRANCH   1  17
TORSDOF 10
ENDMDL
MODEL 7
REMARK VINA RESULT:      -5.5      1.689      2.067
REMARK  10 active torsions:
REMARK  status: ('A' for Active; 'I' for Inactive)
REMARK    1  A    between atoms: C_2  and  C_3 
REMARK    2  A    between atoms: C_3  and  C_24 
REMARK    3  A    between atoms: C_3  and  N_5 
REMARK    4  A    between atoms: N_4  and  C_19 
REMARK       I    between atoms: N_5  and  C_16 
REMARK    5  A    between atoms: C_6  and  C_7 
REMARK    6  A    between atoms: C_6  and  C_24 
REMARK    7  A    between atoms: C_7  and  N_10 
REMARK       I    between atoms: N_10  and  C_15 
REMARK       I    between atoms: N_11  and  C_15 
REMARK    8  A    between atoms: C_16  and  C_19 
REMARK    9  A    between atoms: C_19  and  C_20 
REMARK   10  A    between atoms: C_20  and  C_27 
ROOT
HETATM    1  C           1     -29.567  -7.424 -17.371  0.00  0.00     0.185 C 
ENDROOT
BRANCH   1   2
HETATM    2  C           1     -30.157  -8.016 -18.628  0.00  0.00     0.196 C 
HETATM    3  O           1     -29.441  -8.695 -19.395  0.00  0.00    -0.646 OA
HETATM    4  O           1     -31.362  -7.827 -18.902  0.00  0.00    -0.646 OA
ENDBRANCH   1   2
BRANCH   1   5
HETATM    5  C           1     -30.432  -6.261 -16.903  0.00  0.00     0.038 C 
BRANCH   5   6
HETATM    6  C           1     -30.082  -5.012 -17.701  0.00  0.00     0.023 C 
BRANCH   6   7
HETATM    7  C           1     -31.020  -3.877 -17.308  0.00  0.00     0.138 C 
BRANCH   7   8
HETATM    8  N           1     -32.092  -4.401 -16.449  0.00  0.00    -0.227 N 
HETATM    9  H           1     -31.874  -5.131 -15.725  0.00  0.00     0.177 HD
HETATM   10  C           1     -33.276  -3.974 -16.581  0.00  0.00     0.665 C 
HETATM   11  N           1     -34.223  -4.437 -15.821  0.00  0.00    -0.235 N 
HETATM   12  N           1     -33.537  -3.094 -17.454  0.00  0.00    -0.235 N 
HETATM   13  H           1     -34.007  -5.163 -15.101  0.00  0.00     0.174 HD
HETATM   14  H           1     -35.200  -4.084 -15.931  0.00  0.00     0.174 HD
HETATM   15  H           1     -34.519  -2.740 -17.564  0.00  0.00     0.174 HD
HETATM   16  H           1     -32.772  -2.720 -18.068  0.00  0.00     0.174 HD
ENDBRANCH   7   8
ENDBRANCH   6   7
ENDBRANCH   5   6
ENDBRANCH   1   5
BRANCH   1  17
HETATM   17  N           1     -28.225  -6.948 -17.645  0.00  0.00    -0.345 N 
HETATM   18  H           1     -27.954  -6.715 -18.592  0.00  0.00     0.163 HD
HETATM   19  C           1     -27.326  -6.811 -16.622  0.00  0.00     0.249 C 
HETATM   20  O           1     -27.650  -7.089 -15.492  0.00  0.00    -0.271 OA
BRANCH  19  21
HETATM   21  C           1     -25.929  -6.316 -16.906  0.00  0.00     0.278 C 
BRANCH  21  22
HETATM   22  N           1     -25.099  -6.420 -15.661  0.00  0.00    -0.066 N 
HETATM   23  H           1     -24.130  -6.720 -15.912  0.00  0.00     0.275 HD
HETATM   24  H           1     -25.064  -5.489 -15.187  0.00  0.00     0.275 HD
HETATM   25  H           1     -25.526  -7.124 -15.016  0.00  0.00     0.275 HD
ENDBRANCH  21  22
BRANCH  21  26
HETATM   26  C           1     -25.304  -7.163 -18.006  0.00  0.00     0.021 C 
HETATM   27  C           1     -25.415  -6.431 -19.337  0.00  0.00     0.012 C 
BRANCH  26  28
HETATM   28  C           1     -23.836  -7.410 -17.684  0.00  0.00     0.002 C 
HETATM   29  C           1     -22.979  -7.007 -18.877  0.00  0.00     0.005 C 
ENDBRANCH  26  28
ENDBRANCH  21  26
ENDBRANCH  19  21
ENDBRANCH   1  17
TORSDOF 10
ENDMDL
MODEL 8
REMARK VINA RESULT:      -5.4     15.055     16.729
REMARK  10 active torsions:
REMARK  status: ('A' for Active; 'I' for Inactive)
REMARK    1  A    between atoms: C_2  and  C_3 
REMARK    2  A    between atoms: C_3  and  C_24 
REMARK    3  A    between atoms: C_3  and  N_5 
REMARK    4  A    between atoms: N_4  and  C_19 
REMARK       I    between atoms: N_5  and  C_16 
REMARK    5  A    between atoms: C_6  and  C_7 
REMARK    6  A    between atoms: C_6  and  C_24 
REMARK    7  A    between atoms: C_7  and  N_10 
REMARK       I    between atoms: N_10  and  C_15 
REMARK       I    between atoms: N_11  and  C_15 
REMARK    8  A    between atoms: C_16  and  C_19 
REMARK    9  A    between atoms: C_19  and  C_20 
REMARK   10  A    between atoms: C_20  and  C_27 
ROOT
HETATM    1  C           1     -20.595  -8.310  -4.520  0.00  0.00     0.185 C 
ENDROOT
BRANCH   1   2
HETATM    2  C           1     -19.219  -8.862  -4.803  0.00  0.00     0.196 C 
HETATM    3  O           1     -18.430  -9.086  -3.860  0.00  0.00    -0.646 OA
HETATM    4  O           1     -18.870  -9.094  -5.980  0.00  0.00    -0.646 OA
ENDBRANCH   1   2
BRANCH   1   5
HETATM    5  C           1     -21.567  -9.459  -4.286  0.00  0.00     0.038 C 
BRANCH   5   6
HETATM    6  C           1     -21.694  -9.721  -2.791  0.00  0.00     0.023 C 
BRANCH   6   7
HETATM    7  C           1     -21.597  -8.402  -2.033  0.00  0.00     0.138 C 
BRANCH   7   8
HETATM    8  N           1     -20.980  -8.635  -0.719  0.00  0.00    -0.227 N 
HETATM    9  H           1     -20.005  -9.021  -0.658  0.00  0.00     0.177 HD
HETATM   10  C           1     -21.624  -8.371   0.338  0.00  0.00     0.665 C 
HETATM   11  N           1     -21.079  -8.577   1.500  0.00  0.00    -0.235 N 
HETATM   12  N           1     -22.800  -7.905   0.264  0.00  0.00    -0.235 N 
HETATM   13  H           1     -20.109  -8.961   1.561  0.00  0.00     0.174 HD
HETATM   14  H           1     -21.611  -8.358   2.372  0.00  0.00     0.174 HD
HETATM   15  H           1     -23.333  -7.686   1.141  0.00  0.00     0.174 HD
HETATM   16  H           1     -23.240  -7.739  -0.675  0.00  0.00     0.174 HD
ENDBRANCH   7   8
ENDBRANCH   6   7
ENDBRANCH   5   6
ENDBRANCH   1   5
BRANCH   1  17
HETATM   17  N           1     -21.042  -7.523  -5.653  0.00  0.00    -0.345 N 
HETATM   18  H           1     -20.986  -7.906  -6.588  0.00  0.00     0.163 HD
HETATM   19  C           1     -21.542  -6.263  -5.458  0.00  0.00     0.249 C 
HETATM   20  O           1     -21.609  -5.807  -4.341  0.00  0.00    -0.271 OA
BRANCH  19  21
HETATM   21  C           1     -22.007  -5.445  -6.637  0.00  0.00     0.278 C 
BRANCH  21  22
HETATM   22  N           1     -23.406  -4.963  -6.390  0.00  0.00    -0.066 N 
HETATM   23  H           1     -23.938  -5.692  -5.862  0.00  0.00     0.275 HD
HETATM   24  H           1     -23.377  -4.081  -5.831  0.00  0.00     0.275 HD
HETATM   25  H           1     -23.878  -4.781  -7.305  0.00  0.00     0.275 HD
ENDBRANCH  21  22
BRANCH  21  26
HETATM   26  C           1     -21.083  -4.249  -6.821  0.00  0.00     0.021 C 
HETATM   27  C           1     -19.657  -4.737  -7.039  0.00  0.00     0.012 C 
BRANCH  26  28
HETATM   28  C           1     -21.533  -3.441  -8.031  0.00  0.00     0.002 C 
HETATM   29  C           1     -21.294  -4.251  -9.300  0.00  0.00     0.005 C 
ENDBRANCH  26  28
ENDBRANCH  21  26
ENDBRANCH  19  21
ENDBRANCH   1  17
TORSDOF 10
ENDMDL
MODEL 9
REMARK VINA RESULT:      -5.4     13.923     15.742
REMARK  10 active torsions:
REMARK  status: ('A' for Active; 'I' for Inactive)
REMARK    1  A    between atoms: C_2  and  C_3 
REMARK    2  A    between atoms: C_3  and  C_24 
REMARK    3  A    between atoms: C_3  and  N_5 
REMARK    4  A    between atoms: N_4  and  C_19 
REMARK       I    between atoms: N_5  and  C_16 
REMARK    5  A    between atoms: C_6  and  C_7 
REMARK    6  A    between atoms: C_6  and  C_24 
REMARK    7  A    between atoms: C_7  and  N_10 
REMARK       I    between atoms: N_10  and  C_15 
REMARK       I    between atoms: N_11  and  C_15 
REMARK    8  A    between atoms: C_16  and  C_19 
REMARK    9  A    between atoms: C_19  and  C_20 
REMARK   10  A    between atoms: C_20  and  C_27 
ROOT
HETATM    1  C           1     -20.854  -7.060  -4.726  0.00  0.00     0.185 C 
ENDROOT
BRANCH   1   2
HETATM    2  C           1     -20.404  -8.368  -5.330  0.00  0.00     0.196 C 
HETATM    3  O           1     -21.242  -9.257  -5.591  0.00  0.00    -0.646 OA
HETATM    4  O           1     -19.192  -8.560  -5.570  0.00  0.00    -0.646 OA
ENDBRANCH   1   2
BRANCH   1   5
HETATM    5  C           1     -21.700  -7.335  -3.490  0.00  0.00     0.038 C 
BRANCH   5   6
HETATM    6  C           1     -20.796  -7.754  -2.338  0.00  0.00     0.023 C 
BRANCH   6   7
HETATM    7  C           1     -21.406  -8.954  -1.624  0.00  0.00     0.138 C 
BRANCH   7   8
HETATM    8  N           1     -22.035  -9.845  -2.609  0.00  0.00    -0.227 N 
HETATM    9  H           1     -22.861  -9.511  -3.167  0.00  0.00     0.177 HD
HETATM   10  C           1     -21.582 -11.013  -2.787  0.00  0.00     0.665 C 
HETATM   11  N           1     -22.138 -11.801  -3.659  0.00  0.00    -0.235 N 
HETATM   12  N           1     -20.586 -11.415  -2.115  0.00  0.00    -0.235 N 
HETATM   13  H           1     -22.959 -11.469  -4.213  0.00  0.00     0.174 HD
HETATM   14  H           1     -21.763 -12.765  -3.804  0.00  0.00     0.174 HD
HETATM   15  H           1     -20.210 -12.384  -2.262  0.00  0.00     0.174 HD
HETATM   16  H           1     -20.137 -10.778  -1.410  0.00  0.00     0.174 HD
ENDBRANCH   7   8
ENDBRANCH   6   7
ENDBRANCH   5   6
ENDBRANCH   1   5
BRANCH   1  17
HETATM   17  N           1     -21.643  -6.326  -5.697  0.00  0.00    -0.345 N 
HETATM   18  H           1     -22.556  -6.666  -5.968  0.00  0.00     0.163 HD
HETATM   19  C           1     -21.151  -5.171  -6.245  0.00  0.00     0.249 C 
HETATM   20  O           1     -20.061  -4.765  -5.921  0.00  0.00    -0.271 OA
BRANCH  19  21
HETATM   21  C           1     -21.971  -4.407  -7.255  0.00  0.00     0.278 C 
BRANCH  21  22
HETATM   22  N           1     -21.619  -2.951  -7.185  0.00  0.00    -0.066 N 
HETATM   23  H           1     -22.453  -2.377  -7.445  0.00  0.00     0.275 HD
HETATM   24  H           1     -21.321  -2.710  -6.213  0.00  0.00     0.275 HD
HETATM   25  H           1     -20.837  -2.750  -7.850  0.00  0.00     0.275 HD
ENDBRANCH  21  22
BRANCH  21  26
HETATM   26  C           1     -21.677  -4.935  -8.652  0.00  0.00     0.021 C 
HETATM   27  C           1     -22.872  -4.667  -9.558  0.00  0.00     0.012 C 
BRANCH  26  28
HETATM   28  C           1     -20.449  -4.231  -9.213  0.00  0.00     0.002 C 
HETATM   29  C           1     -20.457  -4.326 -10.734  0.00  0.00     0.005 C 
ENDBRANCH  26  28
ENDBRANCH  21  26
ENDBRANCH  19  21
ENDBRANCH   1  17
TORSDOF 10
ENDMDL
