MODEL 1
REMARK VINA RESULT:      -6.5      0.000      0.000
REMARK  8 active torsions:
REMARK  status: ('A' for Active; 'I' for Inactive)
REMARK    1  A    between atoms: C_2  and  C_3 
REMARK    2  A    between atoms: C_3  and  C_6 
REMARK    3  A    between atoms: C_3  and  N_17 
REMARK    4  A    between atoms: C_12  and  C_23 
REMARK       I    between atoms: C_12  and  N_20 
REMARK    5  A    between atoms: N_14  and  C_19 
REMARK       I    between atoms: N_17  and  C_22 
REMARK    6  A    between atoms: C_18  and  C_19 
REMARK    7  A    between atoms: C_18  and  C_23 
REMARK    8  A    between atoms: C_19  and  C_22 
ROOT
HETATM    1  C           1     -21.299  -5.919  -6.955  0.00  0.00     0.275 C 
ENDROOT
BRANCH   1   2
HETATM    2  N           1     -19.867  -6.208  -7.299  0.00  0.00    -0.066 N 
HETATM    3  H           1     -19.295  -6.221  -6.426  0.00  0.00     0.275 HD
HETATM    4  H           1     -19.508  -5.466  -7.942  0.00  0.00     0.275 HD
HETATM    5  H           1     -19.803  -7.137  -7.772  0.00  0.00     0.275 HD
ENDBRANCH   1   2
BRANCH   1   6
HETATM    6  C           1     -21.419  -5.664  -5.457  0.00  0.00     0.052 C 
BRANCH   6   7
HETATM    7  C           1     -21.979  -6.904  -4.774  0.00  0.00     0.105 C 
BRANCH   7   8
HETATM    8  C           1     -21.647  -6.862  -3.302  0.00  0.00     0.215 C 
HETATM    9  N           1     -22.295  -5.980  -2.480  0.00  0.00    -0.370 N 
HETATM   10  H           1     -22.073  -5.952  -1.493  0.00  0.00     0.159 HD
HETATM   11  H           1     -22.996  -5.355  -2.859  0.00  0.00     0.159 HD
HETATM   12  O           1     -20.812  -7.607  -2.851  0.00  0.00    -0.274 OA
ENDBRANCH   7   8
ENDBRANCH   6   7
ENDBRANCH   1   6
BRANCH   1  13
HETATM   13  C           1     -21.761  -4.699  -7.712  0.00  0.00     0.249 C 
HETATM   14  O           1     -21.687  -3.606  -7.202  0.00  0.00    -0.271 OA
HETATM   15  N           1     -22.266  -4.830  -8.978  0.00  0.00    -0.344 N 
HETATM   16  H           1     -22.328  -5.745  -9.406  0.00  0.00     0.163 HD
BRANCH  15  17
HETATM   17  C           1     -22.710  -3.658  -9.706  0.00  0.00     0.189 C 
BRANCH  17  18
HETATM   18  C           1     -24.172  -3.804 -10.050  0.00  0.00     0.197 C 
HETATM   19  O           1     -24.770  -2.881 -10.643  0.00  0.00    -0.646 OA
HETATM   20  O           1     -24.785  -4.849  -9.740  0.00  0.00    -0.646 OA
ENDBRANCH  17  18
BRANCH  17  21
HETATM   21  C           1     -21.899  -3.518 -10.987  0.00  0.00     0.010 C 
HETATM   22  C           1     -20.414  -3.527 -10.650  0.00  0.00     0.012 C 
HETATM   23  C           1     -22.215  -4.683 -11.917  0.00  0.00     0.012 C 
ENDBRANCH  17  21
ENDBRANCH  15  17
ENDBRANCH   1  13
TORSDOF 8
ENDMDL
MODEL 2
REMARK VINA RESULT:      -6.5     10.633     12.673
REMARK  8 active torsions:
REMARK  status: ('A' for Active; 'I' for Inactive)
REMARK    1  A    between atoms: C_2  and  C_3 
REMARK    2  A    between atoms: C_3  and  C_6 
REMARK    3  A    between atoms: C_3  and  N_17 
REMARK    4  A    between atoms: C_12  and  C_23 
REMARK       I    between atoms: C_12  and  N_20 
REMARK    5  A    between atoms: N_14  and  C_19 
REMARK       I    between atoms: N_17  and  C_22 
REMARK    6  A    between atoms: C_18  and  C_19 
REMARK    7  A    between atoms: C_18  and  C_23 
REMARK    8  A    between atoms: C_19  and  C_22 
ROOT
HETATM    1  C           1     -24.442  -6.659 -18.461  0.00  0.00     0.275 C 
ENDROOT
BRANCH   1   2
HETATM    2  N           1     -23.349  -7.497 -17.865  0.00  0.00    -0.066 N 
HETATM    3  H           1     -23.766  -8.212 -17.228  0.00  0.00     0.275 HD
HETATM    4  H           1     -22.697  -6.885 -17.324  0.00  0.00     0.275 HD
HETATM    5  H           1     -22.821  -7.976 -18.629  0.00  0.00     0.275 HD
ENDBRANCH   1   2
BRANCH   1   6
HETATM    6  C           1     -25.149  -7.450 -19.554  0.00  0.00     0.052 C 
BRANCH   6   7
HETATM    7  C           1     -24.741  -6.907 -20.917  0.00  0.00     0.105 C 
BRANCH   7   8
HETATM    8  C           1     -24.087  -8.004 -21.721  0.00  0.00     0.215 C 
HETATM    9  N           1     -23.163  -8.825 -21.134  0.00  0.00    -0.370 N 
HETATM   10  H           1     -22.724  -9.561 -21.673  0.00  0.00     0.159 HD
HETATM   11  H           1     -22.917  -8.697 -20.160  0.00  0.00     0.159 HD
HETATM   12  O           1     -24.379  -8.157 -22.882  0.00  0.00    -0.274 OA
ENDBRANCH   7   8
ENDBRANCH   6   7
ENDBRANCH   1   6
BRANCH   1  13
HETATM   13  C           1     -25.433  -6.289 -17.385  0.00  0.00     0.249 C 
HETATM   14  O           1     -25.045  -6.005 -16.276  0.00  0.00    -0.271 OA
HETATM   15  N           1     -26.773  -6.275 -17.665  0.00  0.00    -0.344 N 
HETATM   16  H           1     -27.099  -6.513 -18.593  0.00  0.00     0.163 HD
BRANCH  15  17
HETATM   17  C           1     -27.726  -5.920 -16.631  0.00  0.00     0.189 C 
BRANCH  17  18
HETATM   18  C           1     -28.347  -7.174 -16.068  0.00  0.00     0.197 C 
HETATM   19  O           1     -29.246  -7.766 -16.703  0.00  0.00    -0.646 OA
HETATM   20  O           1     -27.963  -7.622 -14.966  0.00  0.00    -0.646 OA
ENDBRANCH  17  18
BRANCH  17  21
HETATM   21  C           1     -28.814  -5.037 -17.227  0.00  0.00     0.010 C 
HETATM   22  C           1     -28.518  -3.578 -16.902  0.00  0.00     0.012 C 
HETATM   23  C           1     -28.848  -5.224 -18.738  0.00  0.00     0.012 C 
ENDBRANCH  17  21
ENDBRANCH  15  17
ENDBRANCH   1  13
TORSDOF 8
ENDMDL
MODEL 3
REMARK VINA RESULT:      -6.3     11.665     13.719
REMARK  8 active torsions:
REMARK  status: ('A' for Active; 'I' for Inactive)
REMARK    1  A    between atoms: C_2  and  C_3 
REMARK    2  A    between atoms: C_3  and  C_6 
REMARK    3  A    between atoms: C_3  and  N_17 
REMARK    4  A    between atoms: C_12  and  C_23 
REMARK       I    between atoms: C_12  and  N_20 
REMARK    5  A    between atoms: N_14  and  C_19 
REMARK       I    between atoms: N_17  and  C_22 
REMARK    6  A    between atoms: C_18  and  C_19 
REMARK    7  A    between atoms: C_18  and  C_23 
REMARK    8  A    between atoms: C_19  and  C_22 
ROOT
HETATM    1  C           1     -25.123  -6.878 -19.995  0.00  0.00     0.275 C 
ENDROOT
BRANCH   1   2
HETATM    2  N           1     -24.572  -7.435 -18.716  0.00  0.00    -0.066 N 
HETATM    3  H           1     -24.784  -6.780 -17.931  0.00  0.00     0.275 HD
HETATM    4  H           1     -23.537  -7.552 -18.805  0.00  0.00     0.275 HD
HETATM    5  H           1     -25.011  -8.364 -18.523  0.00  0.00     0.275 HD
ENDBRANCH   1   2
BRANCH   1   6
HETATM    6  C           1     -25.205  -7.985 -21.038  0.00  0.00     0.052 C 
BRANCH   6   7
HETATM    7  C           1     -24.205  -7.708 -22.153  0.00  0.00     0.105 C 
BRANCH   7   8
HETATM    8  C           1     -22.963  -8.537 -21.933  0.00  0.00     0.215 C 
HETATM    9  N           1     -22.543  -9.410 -22.899  0.00  0.00    -0.370 N 
HETATM   10  H           1     -21.710  -9.966 -22.751  0.00  0.00     0.159 HD
HETATM   11  H           1     -23.065  -9.501 -23.761  0.00  0.00     0.159 HD
HETATM   12  O           1     -22.340  -8.429 -20.904  0.00  0.00    -0.274 OA
ENDBRANCH   7   8
ENDBRANCH   6   7
ENDBRANCH   1   6
BRANCH   1  13
HETATM   13  C           1     -26.502  -6.318 -19.746  0.00  0.00     0.249 C 
HETATM   14  O           1     -27.114  -5.794 -20.647  0.00  0.00    -0.271 OA
HETATM   15  N           1     -27.059  -6.402 -18.498  0.00  0.00    -0.344 N 
HETATM   16  H           1     -26.547  -6.840 -17.744  0.00  0.00     0.163 HD
BRANCH  15  17
HETATM   17  C           1     -28.384  -5.864 -18.258  0.00  0.00     0.189 C 
BRANCH  17  18
HETATM   18  C           1     -28.293  -4.727 -17.270  0.00  0.00     0.197 C 
HETATM   19  O           1     -27.668  -4.879 -16.199  0.00  0.00    -0.646 OA
HETATM   20  O           1     -28.844  -3.633 -17.523  0.00  0.00    -0.646 OA
ENDBRANCH  17  18
BRANCH  17  21
HETATM   21  C           1     -29.281  -6.957 -17.694  0.00  0.00     0.010 C 
HETATM   22  C           1     -30.575  -6.338 -17.182  0.00  0.00     0.012 C 
HETATM   23  C           1     -29.599  -7.967 -18.789  0.00  0.00     0.012 C 
ENDBRANCH  17  21
ENDBRANCH  15  17
ENDBRANCH   1  13
TORSDOF 8
ENDMDL
MODEL 4
REMARK VINA RESULT:      -6.2      2.341      5.772
REMARK  8 active torsions:
REMARK  status: ('A' for Active; 'I' for Inactive)
REMARK    1  A    between atoms: C_2  and  C_3 
REMARK    2  A    between atoms: C_3  and  C_6 
REMARK    3  A    between atoms: C_3  and  N_17 
REMARK    4  A    between atoms: C_12  and  C_23 
REMARK       I    between atoms: C_12  and  N_20 
REMARK    5  A    between atoms: N_14  and  C_19 
REMARK       I    between atoms: N_17  and  C_22 
REMARK    6  A    between atoms: C_18  and  C_19 
REMARK    7  A    between atoms: C_18  and  C_23 
REMARK    8  A    between atoms: C_19  and  C_22 
ROOT
HETATM    1  C           1     -21.751  -3.627 -10.756  0.00  0.00     0.275 C 
ENDROOT
BRANCH   1   2
HETATM    2  N           1     -20.832  -2.924 -11.711  0.00  0.00    -0.066 N 
HETATM    3  H           1     -21.015  -1.896 -11.677  0.00  0.00     0.275 HD
HETATM    4  H           1     -21.002  -3.276 -12.680  0.00  0.00     0.275 HD
HETATM    5  H           1     -19.840  -3.110 -11.443  0.00  0.00     0.275 HD
ENDBRANCH   1   2
BRANCH   1   6
HETATM    6  C           1     -22.659  -4.575 -11.529  0.00  0.00     0.052 C 
BRANCH   6   7
HETATM    7  C           1     -23.811  -5.015 -10.637  0.00  0.00     0.105 C 
BRANCH   7   8
HETATM    8  C           1     -24.577  -3.802 -10.168  0.00  0.00     0.215 C 
HETATM    9  N           1     -24.580  -3.465  -8.841  0.00  0.00    -0.370 N 
HETATM   10  H           1     -25.094  -2.652  -8.527  0.00  0.00     0.159 HD
HETATM   11  H           1     -24.070  -4.030  -8.174  0.00  0.00     0.159 HD
HETATM   12  O           1     -25.186  -3.128 -10.964  0.00  0.00    -0.274 OA
ENDBRANCH   7   8
ENDBRANCH   6   7
ENDBRANCH   1   6
BRANCH   1  13
HETATM   13  C           1     -20.933  -4.412  -9.760  0.00  0.00     0.249 C 
HETATM   14  O           1     -19.906  -4.945 -10.108  0.00  0.00    -0.271 OA
HETATM   15  N           1     -21.355  -4.522  -8.463  0.00  0.00    -0.344 N 
HETATM   16  H           1     -22.215  -4.076  -8.171  0.00  0.00     0.163 HD
BRANCH  15  17
HETATM   17  C           1     -20.570  -5.277  -7.506  0.00  0.00     0.189 C 
BRANCH  17  18
HETATM   18  C           1     -21.492  -6.056  -6.601  0.00  0.00     0.197 C 
HETATM   19  O           1     -22.485  -5.496  -6.089  0.00  0.00    -0.646 OA
HETATM   20  O           1     -21.264  -7.262  -6.364  0.00  0.00    -0.646 OA
ENDBRANCH  17  18
BRANCH  17  21
HETATM   21  C           1     -19.729  -4.320  -6.672  0.00  0.00     0.010 C 
HETATM   22  C           1     -19.855  -4.686  -5.199  0.00  0.00     0.012 C 
HETATM   23  C           1     -18.271  -4.422  -7.099  0.00  0.00     0.012 C 
ENDBRANCH  17  21
ENDBRANCH  15  17
ENDBRANCH   1  13
TORSDOF 8
ENDMDL
MODEL 5
REMARK VINA RESULT:      -6.2      1.870      6.581
REMARK  8 active torsions:
REMARK  status: ('A' for Active; 'I' for Inactive)
REMARK    1  A    between atoms: C_2  and  C_3 
REMARK    2  A    between atoms: C_3  and  C_6 
REMARK    3  A    between atoms: C_3  and  N_17 
REMARK    4  A    between atoms: C_12  and  C_23 
REMARK       I    between atoms: C_12  and  N_20 
REMARK    5  A    between atoms: N_14  and  C_19 
REMARK       I    between atoms: N_17  and  C_22 
REMARK    6  A    between atoms: C_18  and  C_19 
REMARK    7  A    between atoms: C_18  and  C_23 
REMARK    8  A    between atoms: C_19  and  C_22 
ROOT
HETATM    1  C           1     -20.470  -4.635  -6.463  0.00  0.00     0.275 C 
ENDROOT
BRANCH   1   2
HETATM    2  N           1     -19.684  -5.397  -7.490  0.00  0.00    -0.066 N 
HETATM    3  H           1     -18.673  -5.391  -7.229  0.00  0.00     0.275 HD
HETATM    4  H           1     -19.807  -4.948  -8.425  0.00  0.00     0.275 HD
HETATM    5  H           1     -20.028  -6.383  -7.531  0.00  0.00     0.275 HD
ENDBRANCH   1   2
BRANCH   1   6
HETATM    6  C           1     -21.399  -3.651  -7.163  0.00  0.00     0.052 C 
BRANCH   6   7
HETATM    7  C           1     -21.483  -3.997  -8.643  0.00  0.00     0.105 C 
BRANCH   7   8
HETATM    8  C           1     -22.915  -4.309  -9.007  0.00  0.00     0.215 C 
HETATM    9  N           1     -23.919  -4.058  -8.111  0.00  0.00    -0.370 N 
HETATM   10  H           1     -24.878  -4.267  -8.355  0.00  0.00     0.159 HD
HETATM   11  H           1     -23.702  -3.664  -7.204  0.00  0.00     0.159 HD
HETATM   12  O           1     -23.174  -4.779 -10.088  0.00  0.00    -0.274 OA
ENDBRANCH   7   8
ENDBRANCH   6   7
ENDBRANCH   1   6
BRANCH   1  13
HETATM   13  C           1     -21.286  -5.600  -5.639  0.00  0.00     0.249 C 
HETATM   14  O           1     -22.489  -5.624  -5.751  0.00  0.00    -0.271 OA
HETATM   15  N           1     -20.664  -6.448  -4.763  0.00  0.00    -0.344 N 
HETATM   16  H           1     -19.657  -6.429  -4.668  0.00  0.00     0.163 HD
BRANCH  15  17
HETATM   17  C           1     -21.448  -7.375  -3.970  0.00  0.00     0.189 C 
BRANCH  17  18
HETATM   18  C           1     -21.616  -6.826  -2.575  0.00  0.00     0.197 C 
HETATM   19  O           1     -22.429  -5.902  -2.361  0.00  0.00    -0.646 OA
HETATM   20  O           1     -20.942  -7.297  -1.633  0.00  0.00    -0.646 OA
ENDBRANCH  17  18
BRANCH  17  21
HETATM   21  C           1     -20.733  -8.718  -3.905  0.00  0.00     0.010 C 
HETATM   22  C           1     -21.684  -9.821  -4.349  0.00  0.00     0.012 C 
HETATM   23  C           1     -19.520  -8.692  -4.826  0.00  0.00     0.012 C 
ENDBRANCH  17  21
ENDBRANCH  15  17
ENDBRANCH   1  13
TORSDOF 8
ENDMDL
MODEL 6
REMARK VINA RESULT:      -5.7     10.273     12.815
REMARK  8 active torsions:
REMARK  status: ('A' for Active; 'I' for Inactive)
REMARK    1  A    between atoms: C_2  and  C_3 
REMARK    2  A    between atoms: C_3  and  C_6 
REMARK    3  A    between atoms: C_3  and  N_17 
REMARK    4  A    between atoms: C_12  and  C_23 
REMARK       I    between atoms: C_12  and  N_20 
REMARK    5  A    between atoms: N_14  and  C_19 
REMARK       I    between atoms: N_17  and  C_22 
REMARK    6  A    between atoms: C_18  and  C_19 
REMARK    7  A    between atoms: C_18  and  C_23 
REMARK    8  A    between atoms: C_19  and  C_22 
ROOT
HETATM    1  C           1     -29.859  -3.719 -16.992  0.00  0.00     0.275 C 
ENDROOT
BRANCH   1   2
HETATM    2  N           1     -29.937  -2.358 -17.619  0.00  0.00    -0.066 N 
HETATM    3  H           1     -30.914  -2.178 -17.941  0.00  0.00     0.275 HD
HETATM    4  H           1     -29.285  -2.312 -18.435  0.00  0.00     0.275 HD
HETATM    5  H           1     -29.664  -1.634 -16.916  0.00  0.00     0.275 HD
ENDBRANCH   1   2
BRANCH   1   6
HETATM    6  C           1     -30.701  -4.698 -17.800  0.00  0.00     0.052 C 
BRANCH   6   7
HETATM    7  C           1     -31.855  -5.201 -16.944  0.00  0.00     0.105 C 
BRANCH   7   8
HETATM    8  C           1     -32.906  -4.123 -16.830  0.00  0.00     0.215 C 
HETATM    9  N           1     -33.879  -4.215 -15.873  0.00  0.00    -0.370 N 
HETATM   10  H           1     -34.584  -3.492 -15.796  0.00  0.00     0.159 HD
HETATM   11  H           1     -33.896  -5.006 -15.241  0.00  0.00     0.159 HD
HETATM   12  O           1     -32.886  -3.180 -17.584  0.00  0.00    -0.274 OA
ENDBRANCH   7   8
ENDBRANCH   6   7
ENDBRANCH   1   6
BRANCH   1  13
HETATM   13  C           1     -28.423  -4.182 -16.976  0.00  0.00     0.249 C 
HETATM   14  O           1     -27.546  -3.422 -16.642  0.00  0.00    -0.271 OA
HETATM   15  N           1     -28.114  -5.465 -17.342  0.00  0.00    -0.344 N 
HETATM   16  H           1     -28.848  -6.102 -17.622  0.00  0.00     0.163 HD
BRANCH  15  17
HETATM   17  C           1     -26.734  -5.911 -17.327  0.00  0.00     0.189 C 
BRANCH  17  18
HETATM   18  C           1     -26.340  -6.371 -18.709  0.00  0.00     0.197 C 
HETATM   19  O           1     -25.149  -6.659 -18.955  0.00  0.00    -0.646 OA
HETATM   20  O           1     -27.205  -6.465 -19.607  0.00  0.00    -0.646 OA
ENDBRANCH  17  18
BRANCH  17  21
HETATM   21  C           1     -26.585  -7.065 -16.345  0.00  0.00     0.010 C 
HETATM   22  C           1     -25.393  -6.803 -15.433  0.00  0.00     0.012 C 
HETATM   23  C           1     -27.850  -7.183 -15.506  0.00  0.00     0.012 C 
ENDBRANCH  17  21
ENDBRANCH  15  17
ENDBRANCH   1  13
TORSDOF 8
ENDMDL
MODEL 7
REMARK VINA RESULT:      -5.7      3.203      8.021
REMARK  8 active torsions:
REMARK  status: ('A' for Active; 'I' for Inactive)
REMARK    1  A    between atoms: C_2  and  C_3 
REMARK    2  A    between atoms: C_3  and  C_6 
REMARK    3  A    between atoms: C_3  and  N_17 
REMARK    4  A    between atoms: C_12  and  C_23 
REMARK       I    between atoms: C_12  and  N_20 
REMARK    5  A    between atoms: N_14  and  C_19 
REMARK       I    between atoms: N_17  and  C_22 
REMARK    6  A    between atoms: C_18  and  C_19 
REMARK    7  A    between atoms: C_18  and  C_23 
REMARK    8  A    between atoms: C_19  and  C_22 
ROOT
HETATM    1  C           1     -20.436  -7.447  -4.996  0.00  0.00     0.275 C 
ENDROOT
BRANCH   1   2
HETATM    2  N           1     -21.156  -8.272  -6.021  0.00  0.00    -0.066 N 
HETATM    3  H           1     -20.704  -8.142  -6.953  0.00  0.00     0.275 HD
HETATM    4  H           1     -22.155  -7.969  -6.072  0.00  0.00     0.275 HD
HETATM    5  H           1     -21.113  -9.280  -5.750  0.00  0.00     0.275 HD
ENDBRANCH   1   2
BRANCH   1   6
HETATM    6  C           1     -21.172  -6.128  -4.797  0.00  0.00     0.052 C 
BRANCH   6   7
HETATM    7  C           1     -20.441  -5.021  -5.543  0.00  0.00     0.105 C 
BRANCH   7   8
HETATM    8  C           1     -21.171  -4.711  -6.828  0.00  0.00     0.215 C 
HETATM    9  N           1     -21.605  -3.438  -7.079  0.00  0.00    -0.370 N 
HETATM   10  H           1     -22.094  -3.231  -7.940  0.00  0.00     0.159 HD
HETATM   11  H           1     -21.437  -2.703  -6.403  0.00  0.00     0.159 HD
HETATM   12  O           1     -21.371  -5.588  -7.634  0.00  0.00    -0.274 OA
ENDBRANCH   7   8
ENDBRANCH   6   7
ENDBRANCH   1   6
BRANCH   1  13
HETATM   13  C           1     -20.388  -8.200  -3.689  0.00  0.00     0.249 C 
HETATM   14  O           1     -19.362  -8.729  -3.333  0.00  0.00    -0.271 OA
HETATM   15  N           1     -21.509  -8.284  -2.907  0.00  0.00    -0.344 N 
HETATM   16  H           1     -22.368  -7.841  -3.204  0.00  0.00     0.163 HD
BRANCH  15  17
HETATM   17  C           1     -21.463  -9.007  -1.651  0.00  0.00     0.189 C 
BRANCH  17  18
HETATM   18  C           1     -22.055 -10.382  -1.841  0.00  0.00     0.197 C 
HETATM   19  O           1     -23.240 -10.603  -1.511  0.00  0.00    -0.646 OA
HETATM   20  O           1     -21.361 -11.299  -2.329  0.00  0.00    -0.646 OA
ENDBRANCH  17  18
BRANCH  17  21
HETATM   21  C           1     -22.264  -8.250  -0.600  0.00  0.00     0.010 C 
HETATM   22  C           1     -21.577  -8.381   0.753  0.00  0.00     0.012 C 
HETATM   23  C           1     -22.346  -6.779  -0.988  0.00  0.00     0.012 C 
ENDBRANCH  17  21
ENDBRANCH  15  17
ENDBRANCH   1  13
TORSDOF 8
ENDMDL
MODEL 8
REMARK VINA RESULT:      -5.4      4.571      8.543
REMARK  8 active torsions:
REMARK  status: ('A' for Active; 'I' for Inactive)
REMARK    1  A    between atoms: C_2  and  C_3 
REMARK    2  A    between atoms: C_3  and  C_6 
REMARK    3  A    between atoms: C_3  and  N_17 
REMARK    4  A    between atoms: C_12  and  C_23 
REMARK       I    between atoms: C_12  and  N_20 
REMARK    5  A    between atoms: N_14  and  C_19 
REMARK       I    between atoms: N_17  and  C_22 
REMARK    6  A    between atoms: C_18  and  C_19 
REMARK    7  A    between atoms: C_18  and  C_23 
REMARK    8  A    between atoms: C_19  and  C_22 
ROOT
HETATM    1  C           1     -20.452  -9.512  -4.300  0.00  0.00     0.275 C 
ENDROOT
BRANCH   1   2
HETATM    2  N           1     -20.949 -10.200  -5.538  0.00  0.00    -0.066 N 
HETATM    3  H           1     -21.444 -11.080  -5.272  0.00  0.00     0.275 HD
HETATM    4  H           1     -20.140 -10.427  -6.159  0.00  0.00     0.275 HD
HETATM    5  H           1     -21.610  -9.569  -6.046  0.00  0.00     0.275 HD
ENDBRANCH   1   2
BRANCH   1   6
HETATM    6  C           1     -20.211  -8.039  -4.601  0.00  0.00     0.052 C 
BRANCH   6   7
HETATM    7  C           1     -21.293  -7.529  -5.543  0.00  0.00     0.105 C 
BRANCH   7   8
HETATM    8  C           1     -22.044  -6.398  -4.883  0.00  0.00     0.215 C 
HETATM    9  N           1     -21.770  -6.060  -3.586  0.00  0.00    -0.370 N 
HETATM   10  H           1     -22.274  -5.302  -3.143  0.00  0.00     0.159 HD
HETATM   11  H           1     -21.064  -6.568  -3.068  0.00  0.00     0.159 HD
HETATM   12  O           1     -22.886  -5.792  -5.501  0.00  0.00    -0.274 OA
ENDBRANCH   7   8
ENDBRANCH   6   7
ENDBRANCH   1   6
BRANCH   1  13
HETATM   13  C           1     -21.484  -9.641  -3.206  0.00  0.00     0.249 C 
HETATM   14  O           1     -22.524 -10.217  -3.421  0.00  0.00    -0.271 OA
HETATM   15  N           1     -21.241  -9.104  -1.971  0.00  0.00    -0.344 N 
HETATM   16  H           1     -20.370  -8.622  -1.791  0.00  0.00     0.163 HD
BRANCH  15  17
HETATM   17  C           1     -22.232  -9.228  -0.919  0.00  0.00     0.189 C 
BRANCH  17  18
HETATM   18  C           1     -22.376  -7.906  -0.207  0.00  0.00     0.197 C 
HETATM   19  O           1     -22.740  -6.891  -0.839  0.00  0.00    -0.646 OA
HETATM   20  O           1     -22.132  -7.826   1.017  0.00  0.00    -0.646 OA
ENDBRANCH  17  18
BRANCH  17  21
HETATM   21  C           1     -21.788 -10.294   0.073  0.00  0.00     0.010 C 
HETATM   22  C           1     -22.738 -11.482  -0.000  0.00  0.00     0.012 C 
HETATM   23  C           1     -20.376 -10.751  -0.271  0.00  0.00     0.012 C 
ENDBRANCH  17  21
ENDBRANCH  15  17
ENDBRANCH   1  13
TORSDOF 8
ENDMDL
MODEL 9
REMARK VINA RESULT:      -5.3      3.666      8.863
REMARK  8 active torsions:
REMARK  status: ('A' for Active; 'I' for Inactive)
REMARK    1  A    between atoms: C_2  and  C_3 
REMARK    2  A    between atoms: C_3  and  C_6 
REMARK    3  A    between atoms: C_3  and  N_17 
REMARK    4  A    between atoms: C_12  and  C_23 
REMARK       I    between atoms: C_12  and  N_20 
REMARK    5  A    between atoms: N_14  and  C_19 
REMARK       I    between atoms: N_17  and  C_22 
REMARK    6  A    between atoms: C_18  and  C_19 
REMARK    7  A    between atoms: C_18  and  C_23 
REMARK    8  A    between atoms: C_19  and  C_22 
ROOT
HETATM    1  C           1     -20.801  -7.323  -3.484  0.00  0.00     0.275 C 
ENDROOT
BRANCH   1   2
HETATM    2  N           1     -20.111  -8.537  -4.033  0.00  0.00    -0.066 N 
HETATM    3  H           1     -19.784  -8.342  -5.005  0.00  0.00     0.275 HD
HETATM    4  H           1     -20.778  -9.341  -4.043  0.00  0.00     0.275 HD
HETATM    5  H           1     -19.291  -8.774  -3.431  0.00  0.00     0.275 HD
ENDBRANCH   1   2
BRANCH   1   6
HETATM    6  C           1     -21.756  -6.766  -4.532  0.00  0.00     0.052 C 
BRANCH   6   7
HETATM    7  C           1     -21.132  -5.542  -5.188  0.00  0.00     0.105 C 
BRANCH   7   8
HETATM    8  C           1     -21.056  -5.755  -6.681  0.00  0.00     0.215 C 
HETATM    9  N           1     -21.757  -4.939  -7.526  0.00  0.00    -0.370 N 
HETATM   10  H           1     -21.706  -5.082  -8.526  0.00  0.00     0.159 HD
HETATM   11  H           1     -22.329  -4.192  -7.150  0.00  0.00     0.159 HD
HETATM   12  O           1     -20.375  -6.646  -7.128  0.00  0.00    -0.274 OA
ENDBRANCH   7   8
ENDBRANCH   6   7
ENDBRANCH   1   6
BRANCH   1  13
HETATM   13  C           1     -21.575  -7.702  -2.246  0.00  0.00     0.249 C 
HETATM   14  O           1     -22.205  -6.863  -1.647  0.00  0.00    -0.271 OA
HETATM   15  N           1     -21.564  -8.997  -1.802  0.00  0.00    -0.344 N 
HETATM   16  H           1     -21.036  -9.699  -2.303  0.00  0.00     0.163 HD
BRANCH  15  17
HETATM   17  C           1     -22.308  -9.361  -0.612  0.00  0.00     0.189 C 
BRANCH  17  18
HETATM   18  C           1     -21.396  -9.302   0.589  0.00  0.00     0.197 C 
HETATM   19  O           1     -20.630 -10.257   0.840  0.00  0.00    -0.646 OA
HETATM   20  O           1     -21.407  -8.297   1.333  0.00  0.00    -0.646 OA
ENDBRANCH  17  18
BRANCH  17  21
HETATM   21  C           1     -22.852 -10.775  -0.767  0.00  0.00     0.010 C 
HETATM   22  C           1     -24.164 -10.900  -0.005  0.00  0.00     0.012 C 
HETATM   23  C           1     -23.092 -11.067  -2.243  0.00  0.00     0.012 C 
ENDBRANCH  17  21
ENDBRANCH  15  17
ENDBRANCH   1  13
TORSDOF 8
ENDMDL
