MODEL 1
REMARK VINA RESULT:      -6.7      0.000      0.000
REMARK  10 active torsions:
REMARK  status: ('A' for Active; 'I' for Inactive)
REMARK    1  A    between atoms: N_3  and  C_12 
REMARK       I    between atoms: N_3  and  C_6 
REMARK    2  A    between atoms: C_6  and  C_15 
REMARK    3  A    between atoms: O_8  and  C_20 
REMARK    4  A    between atoms: O_8  and  P_14 
REMARK    5  A    between atoms: N_9  and  C_15 
REMARK    6  A    between atoms: O_11  and  P_14 
REMARK    7  A    between atoms: C_12  and  C_13 
REMARK    8  A    between atoms: C_12  and  C_20 
REMARK    9  A    between atoms: C_15  and  C_22 
REMARK   10  A    between atoms: C_22  and  O_23 
ROOT
HETATM    1  N           1     -34.782  -1.769 -12.861  0.00  0.00    -0.343 N 
HETATM    2  H           1     -35.233  -2.112 -13.700  0.00  0.00     0.163 HD
HETATM    3  C           1     -34.037  -2.620 -12.091  0.00  0.00     0.251 C 
HETATM    4  O           1     -33.497  -2.213 -11.089  0.00  0.00    -0.271 OA
ENDROOT
BRANCH   1   5
HETATM    5  C           1     -34.925  -0.379 -12.477  0.00  0.00     0.210 C 
BRANCH   5   6
HETATM    6  C           1     -36.220  -0.197 -11.722  0.00  0.00     0.198 C 
HETATM    7  O           1     -37.280  -0.679 -12.175  0.00  0.00    -0.646 OA
HETATM    8  O           1     -36.231   0.436 -10.645  0.00  0.00    -0.646 OA
ENDBRANCH   5   6
BRANCH   5   9
HETATM    9  C           1     -34.937   0.493 -13.725  0.00  0.00     0.217 C 
BRANCH   9  10
HETATM   10  O           1     -34.998  -0.321 -14.865  0.00  0.00    -0.287 OA
BRANCH  10  11
HETATM   11  P           1     -36.308  -0.145 -15.792  0.00  0.00     0.406 P 
HETATM   12  O           1     -36.121  -0.886 -17.058  0.00  0.00    -0.624 OA
HETATM   13  O           1     -36.513   1.291 -16.087  0.00  0.00    -0.624 OA
BRANCH  11  14
HETATM   14  O           1     -37.599  -0.725 -15.015  0.00  0.00    -0.300 OA
HETATM   15  H           1     -37.908  -0.009 -14.487  0.00  0.00     0.223 HD
ENDBRANCH  11  14
ENDBRANCH  10  11
ENDBRANCH   9  10
ENDBRANCH   5   9
ENDBRANCH   1   5
BRANCH   3  16
HETATM   16  C           1     -33.888  -4.067 -12.492  0.00  0.00     0.302 C 
BRANCH  16  17
HETATM   17  N           1     -32.494  -4.528 -12.188  0.00  0.00    -0.064 N 
HETATM   18  H           1     -32.065  -3.895 -11.474  0.00  0.00     0.275 HD
HETATM   19  H           1     -32.524  -5.503 -11.813  0.00  0.00     0.275 HD
HETATM   20  H           1     -31.921  -4.507 -13.061  0.00  0.00     0.275 HD
ENDBRANCH  16  17
BRANCH  16  21
HETATM   21  C           1     -34.884  -4.916 -11.712  0.00  0.00     0.153 C 
HETATM   22  C           1     -34.140  -5.748 -10.677  0.00  0.00     0.042 C 
BRANCH  21  23
HETATM   23  O           1     -35.805  -4.080 -11.066  0.00  0.00    -0.393 OA
HETATM   24  H           1     -35.376  -3.741 -10.300  0.00  0.00     0.210 HD
ENDBRANCH  21  23
ENDBRANCH  16  21
ENDBRANCH   3  16
TORSDOF 10
ENDMDL
MODEL 2
REMARK VINA RESULT:      -5.8     10.111     11.594
REMARK  10 active torsions:
REMARK  status: ('A' for Active; 'I' for Inactive)
REMARK    1  A    between atoms: N_3  and  C_12 
REMARK       I    between atoms: N_3  and  C_6 
REMARK    2  A    between atoms: C_6  and  C_15 
REMARK    3  A    between atoms: O_8  and  C_20 
REMARK    4  A    between atoms: O_8  and  P_14 
REMARK    5  A    between atoms: N_9  and  C_15 
REMARK    6  A    between atoms: O_11  and  P_14 
REMARK    7  A    between atoms: C_12  and  C_13 
REMARK    8  A    between atoms: C_12  and  C_20 
REMARK    9  A    between atoms: C_15  and  C_22 
REMARK   10  A    between atoms: C_22  and  O_23 
ROOT
HETATM    1  N           1     -26.454  -6.625 -18.174  0.00  0.00    -0.343 N 
HETATM    2  H           1     -27.339  -6.912 -18.576  0.00  0.00     0.163 HD
HETATM    3  C           1     -25.289  -6.857 -18.853  0.00  0.00     0.251 C 
HETATM    4  O           1     -24.233  -6.515 -18.374  0.00  0.00    -0.271 OA
ENDROOT
BRANCH   1   5
HETATM    5  C           1     -26.424  -5.971 -16.881  0.00  0.00     0.210 C 
BRANCH   5   6
HETATM    6  C           1     -26.446  -7.014 -15.790  0.00  0.00     0.198 C 
HETATM    7  O           1     -27.537  -7.407 -15.323  0.00  0.00    -0.646 OA
HETATM    8  O           1     -25.374  -7.483 -15.352  0.00  0.00    -0.646 OA
ENDBRANCH   5   6
BRANCH   5   9
HETATM    9  C           1     -27.640  -5.065 -16.743  0.00  0.00     0.217 C 
BRANCH   9  10
HETATM   10  O           1     -28.626  -5.462 -17.657  0.00  0.00    -0.287 OA
BRANCH  10  11
HETATM   11  P           1     -30.134  -5.539 -17.084  0.00  0.00     0.406 P 
HETATM   12  O           1     -30.813  -6.730 -17.638  0.00  0.00    -0.624 OA
HETATM   13  O           1     -30.874  -4.320 -17.480  0.00  0.00    -0.624 OA
BRANCH  11  14
HETATM   14  O           1     -30.092  -5.644 -15.473  0.00  0.00    -0.300 OA
HETATM   15  H           1     -30.912  -6.040 -15.233  0.00  0.00     0.223 HD
ENDBRANCH  11  14
ENDBRANCH  10  11
ENDBRANCH   9  10
ENDBRANCH   5   9
ENDBRANCH   1   5
BRANCH   3  16
HETATM   16  C           1     -25.321  -7.538 -20.199  0.00  0.00     0.302 C 
BRANCH  16  17
HETATM   17  N           1     -26.745  -7.708 -20.639  0.00  0.00    -0.064 N 
HETATM   18  H           1     -27.373  -7.160 -20.006  0.00  0.00     0.275 HD
HETATM   19  H           1     -26.850  -7.360 -21.618  0.00  0.00     0.275 HD
HETATM   20  H           1     -27.004  -8.718 -20.597  0.00  0.00     0.275 HD
ENDBRANCH  16  17
BRANCH  16  21
HETATM   21  C           1     -24.574  -6.686 -21.218  0.00  0.00     0.153 C 
HETATM   22  C           1     -24.249  -7.530 -22.443  0.00  0.00     0.042 C 
BRANCH  21  23
HETATM   23  O           1     -25.376  -5.601 -21.597  0.00  0.00    -0.393 OA
HETATM   24  H           1     -24.996  -4.831 -21.209  0.00  0.00     0.210 HD
ENDBRANCH  21  23
ENDBRANCH  16  21
ENDBRANCH   3  16
TORSDOF 10
ENDMDL
MODEL 3
REMARK VINA RESULT:      -5.8     10.128     12.017
REMARK  10 active torsions:
REMARK  status: ('A' for Active; 'I' for Inactive)
REMARK    1  A    between atoms: N_3  and  C_12 
REMARK       I    between atoms: N_3  and  C_6 
REMARK    2  A    between atoms: C_6  and  C_15 
REMARK    3  A    between atoms: O_8  and  C_20 
REMARK    4  A    between atoms: O_8  and  P_14 
REMARK    5  A    between atoms: N_9  and  C_15 
REMARK    6  A    between atoms: O_11  and  P_14 
REMARK    7  A    between atoms: C_12  and  C_13 
REMARK    8  A    between atoms: C_12  and  C_20 
REMARK    9  A    between atoms: C_15  and  C_22 
REMARK   10  A    between atoms: C_22  and  O_23 
ROOT
HETATM    1  N           1     -27.401  -7.269 -19.224  0.00  0.00    -0.343 N 
HETATM    2  H           1     -27.563  -8.268 -19.218  0.00  0.00     0.163 HD
HETATM    3  C           1     -28.381  -6.415 -18.795  0.00  0.00     0.251 C 
HETATM    4  O           1     -28.188  -5.222 -18.802  0.00  0.00    -0.271 OA
ENDROOT
BRANCH   1   5
HETATM    5  C           1     -26.132  -6.743 -19.688  0.00  0.00     0.210 C 
BRANCH   5   6
HETATM    6  C           1     -25.711  -7.477 -20.938  0.00  0.00     0.198 C 
HETATM    7  O           1     -24.714  -7.089 -21.585  0.00  0.00    -0.646 OA
HETATM    8  O           1     -26.359  -8.472 -21.326  0.00  0.00    -0.646 OA
ENDBRANCH   5   6
BRANCH   5   9
HETATM    9  C           1     -25.078  -6.936 -18.606  0.00  0.00     0.217 C 
BRANCH   9  10
HETATM   10  O           1     -25.404  -6.153 -17.490  0.00  0.00    -0.287 OA
BRANCH  10  11
HETATM   11  P           1     -25.529  -6.939 -16.085  0.00  0.00     0.406 P 
HETATM   12  O           1     -25.184  -6.024 -14.975  0.00  0.00    -0.624 OA
HETATM   13  O           1     -24.600  -8.091 -16.081  0.00  0.00    -0.624 OA
BRANCH  11  14
HETATM   14  O           1     -27.043  -7.466 -15.897  0.00  0.00    -0.300 OA
HETATM   15  H           1     -27.092  -8.255 -16.409  0.00  0.00     0.223 HD
ENDBRANCH  11  14
ENDBRANCH  10  11
ENDBRANCH   9  10
ENDBRANCH   5   9
ENDBRANCH   1   5
BRANCH   3  16
HETATM   16  C           1     -29.701  -6.963 -18.312  0.00  0.00     0.302 C 
BRANCH  16  17
HETATM   17  N           1     -29.467  -8.236 -17.555  0.00  0.00    -0.064 N 
HETATM   18  H           1     -29.081  -8.961 -18.203  0.00  0.00     0.275 HD
HETATM   19  H           1     -28.785  -8.061 -16.784  0.00  0.00     0.275 HD
HETATM   20  H           1     -30.370  -8.573 -17.153  0.00  0.00     0.275 HD
ENDBRANCH  16  17
BRANCH  16  21
HETATM   21  C           1     -30.370  -5.944 -17.398  0.00  0.00     0.153 C 
HETATM   22  C           1     -31.822  -6.345 -17.170  0.00  0.00     0.042 C 
BRANCH  21  23
HETATM   23  O           1     -29.697  -5.906 -16.169  0.00  0.00    -0.393 OA
HETATM   24  H           1     -28.921  -6.430 -16.266  0.00  0.00     0.210 HD
ENDBRANCH  21  23
ENDBRANCH  16  21
ENDBRANCH   3  16
TORSDOF 10
ENDMDL
MODEL 4
REMARK VINA RESULT:      -5.8      2.676      5.282
REMARK  10 active torsions:
REMARK  status: ('A' for Active; 'I' for Inactive)
REMARK    1  A    between atoms: N_3  and  C_12 
REMARK       I    between atoms: N_3  and  C_6 
REMARK    2  A    between atoms: C_6  and  C_15 
REMARK    3  A    between atoms: O_8  and  C_20 
REMARK    4  A    between atoms: O_8  and  P_14 
REMARK    5  A    between atoms: N_9  and  C_15 
REMARK    6  A    between atoms: O_11  and  P_14 
REMARK    7  A    between atoms: C_12  and  C_13 
REMARK    8  A    between atoms: C_12  and  C_20 
REMARK    9  A    between atoms: C_15  and  C_22 
REMARK   10  A    between atoms: C_22  and  O_23 
ROOT
HETATM    1  N           1     -35.857  -0.269 -12.207  0.00  0.00    -0.343 N 
HETATM    2  H           1     -34.968   0.185 -12.041  0.00  0.00     0.163 HD
HETATM    3  C           1     -36.427  -0.221 -13.451  0.00  0.00     0.251 C 
HETATM    4  O           1     -37.488  -0.763 -13.650  0.00  0.00    -0.271 OA
ENDROOT
BRANCH   1   5
HETATM    5  C           1     -36.527  -0.967 -11.129  0.00  0.00     0.210 C 
BRANCH   5   6
HETATM    6  C           1     -36.870   0.012 -10.032  0.00  0.00     0.198 C 
HETATM    7  O           1     -36.247  -0.019  -8.949  0.00  0.00    -0.646 OA
HETATM    8  O           1     -37.777   0.853 -10.207  0.00  0.00    -0.646 OA
ENDBRANCH   5   6
BRANCH   5   9
HETATM    9  C           1     -35.607  -2.047 -10.576  0.00  0.00     0.217 C 
BRANCH   9  10
HETATM   10  O           1     -35.716  -3.203 -11.362  0.00  0.00    -0.287 OA
BRANCH  10  11
HETATM   11  P           1     -34.418  -3.585 -12.244  0.00  0.00     0.406 P 
HETATM   12  O           1     -33.194  -3.148 -11.538  0.00  0.00    -0.624 OA
HETATM   13  O           1     -34.499  -2.908 -13.557  0.00  0.00    -0.624 OA
BRANCH  11  14
HETATM   14  O           1     -34.370  -5.184 -12.464  0.00  0.00    -0.300 OA
HETATM   15  H           1     -34.117  -5.299 -13.364  0.00  0.00     0.223 HD
ENDBRANCH  11  14
ENDBRANCH  10  11
ENDBRANCH   9  10
ENDBRANCH   5   9
ENDBRANCH   1   5
BRANCH   3  16
HETATM   16  C           1     -35.729   0.506 -14.574  0.00  0.00     0.302 C 
BRANCH  16  17
HETATM   17  N           1     -34.831  -0.448 -15.304  0.00  0.00    -0.064 N 
HETATM   18  H           1     -35.076  -0.449 -16.321  0.00  0.00     0.275 HD
HETATM   19  H           1     -33.837  -0.148 -15.188  0.00  0.00     0.275 HD
HETATM   20  H           1     -34.954  -1.409 -14.916  0.00  0.00     0.275 HD
ENDBRANCH  16  17
BRANCH  16  21
HETATM   21  C           1     -36.766   1.066 -15.539  0.00  0.00     0.153 C 
HETATM   22  C           1     -36.194   2.290 -16.242  0.00  0.00     0.042 C 
BRANCH  21  23
HETATM   23  O           1     -37.094   0.091 -16.491  0.00  0.00    -0.393 OA
HETATM   24  H           1     -37.238   0.541 -17.306  0.00  0.00     0.210 HD
ENDBRANCH  21  23
ENDBRANCH  16  21
ENDBRANCH   3  16
TORSDOF 10
ENDMDL
MODEL 5
REMARK VINA RESULT:      -5.4      5.375      7.042
REMARK  10 active torsions:
REMARK  status: ('A' for Active; 'I' for Inactive)
REMARK    1  A    between atoms: N_3  and  C_12 
REMARK       I    between atoms: N_3  and  C_6 
REMARK    2  A    between atoms: C_6  and  C_15 
REMARK    3  A    between atoms: O_8  and  C_20 
REMARK    4  A    between atoms: O_8  and  P_14 
REMARK    5  A    between atoms: N_9  and  C_15 
REMARK    6  A    between atoms: O_11  and  P_14 
REMARK    7  A    between atoms: C_12  and  C_13 
REMARK    8  A    between atoms: C_12  and  C_20 
REMARK    9  A    between atoms: C_15  and  C_22 
REMARK   10  A    between atoms: C_22  and  O_23 
ROOT
HETATM    1  N           1     -31.402  -4.965 -16.123  0.00  0.00    -0.343 N 
HETATM    2  H           1     -31.095  -4.454 -15.304  0.00  0.00     0.163 HD
HETATM    3  C           1     -30.590  -5.919 -16.676  0.00  0.00     0.251 C 
HETATM    4  O           1     -30.955  -6.529 -17.653  0.00  0.00    -0.271 OA
ENDROOT
BRANCH   1   5
HETATM    5  C           1     -32.697  -4.685 -16.710  0.00  0.00     0.210 C 
BRANCH   5   6
HETATM    6  C           1     -32.646  -3.363 -17.436  0.00  0.00     0.198 C 
HETATM    7  O           1     -31.579  -2.980 -17.963  0.00  0.00    -0.646 OA
HETATM    8  O           1     -33.670  -2.651 -17.510  0.00  0.00    -0.646 OA
ENDBRANCH   5   6
BRANCH   5   9
HETATM    9  C           1     -33.748  -4.620 -15.609  0.00  0.00     0.217 C 
BRANCH   9  10
HETATM   10  O           1     -33.193  -4.028 -14.466  0.00  0.00    -0.287 OA
BRANCH  10  11
HETATM   11  P           1     -34.074  -4.128 -13.117  0.00  0.00     0.406 P 
HETATM   12  O           1     -34.900  -2.909 -12.974  0.00  0.00    -0.624 OA
HETATM   13  O           1     -33.174  -4.254 -11.949  0.00  0.00    -0.624 OA
BRANCH  11  14
HETATM   14  O           1     -35.035  -5.423 -13.198  0.00  0.00    -0.300 OA
HETATM   15  H           1     -34.452  -6.162 -13.175  0.00  0.00     0.223 HD
ENDBRANCH  11  14
ENDBRANCH  10  11
ENDBRANCH   9  10
ENDBRANCH   5   9
ENDBRANCH   1   5
BRANCH   3  16
HETATM   16  C           1     -29.242  -6.210 -16.065  0.00  0.00     0.302 C 
BRANCH  16  17
HETATM   17  N           1     -28.725  -7.514 -16.594  0.00  0.00    -0.064 N 
HETATM   18  H           1     -29.167  -7.715 -17.520  0.00  0.00     0.275 HD
HETATM   19  H           1     -27.688  -7.457 -16.708  0.00  0.00     0.275 HD
HETATM   20  H           1     -28.961  -8.280 -15.924  0.00  0.00     0.275 HD
ENDBRANCH  16  17
BRANCH  16  21
HETATM   21  C           1     -28.268  -5.095 -16.426  0.00  0.00     0.153 C 
HETATM   22  C           1     -26.952  -5.703 -16.892  0.00  0.00     0.042 C 
BRANCH  21  23
HETATM   23  O           1     -28.813  -4.315 -17.456  0.00  0.00    -0.393 OA
HETATM   24  H           1     -28.709  -4.805 -18.254  0.00  0.00     0.210 HD
ENDBRANCH  21  23
ENDBRANCH  16  21
ENDBRANCH   3  16
TORSDOF 10
ENDMDL
MODEL 6
REMARK VINA RESULT:      -5.4     25.382     26.592
REMARK  10 active torsions:
REMARK  status: ('A' for Active; 'I' for Inactive)
REMARK    1  A    between atoms: N_3  and  C_12 
REMARK       I    between atoms: N_3  and  C_6 
REMARK    2  A    between atoms: C_6  and  C_15 
REMARK    3  A    between atoms: O_8  and  C_20 
REMARK    4  A    between atoms: O_8  and  P_14 
REMARK    5  A    between atoms: N_9  and  C_15 
REMARK    6  A    between atoms: O_11  and  P_14 
REMARK    7  A    between atoms: C_12  and  C_13 
REMARK    8  A    between atoms: C_12  and  C_20 
REMARK    9  A    between atoms: C_15  and  C_22 
REMARK   10  A    between atoms: C_22  and  O_23 
ROOT
HETATM    1  N           1     -11.446   5.478 -21.478  0.00  0.00    -0.343 N 
HETATM    2  H           1     -11.874   6.369 -21.699  0.00  0.00     0.163 HD
HETATM    3  C           1     -11.999   4.320 -21.954  0.00  0.00     0.251 C 
HETATM    4  O           1     -11.490   3.256 -21.692  0.00  0.00    -0.271 OA
ENDROOT
BRANCH   1   5
HETATM    5  C           1     -10.252   5.429 -20.659  0.00  0.00     0.210 C 
BRANCH   5   6
HETATM    6  C           1     -10.639   5.485 -19.201  0.00  0.00     0.198 C 
HETATM    7  O           1      -9.802   5.844 -18.345  0.00  0.00    -0.646 OA
HETATM    8  O           1     -11.797   5.173 -18.851  0.00  0.00    -0.646 OA
ENDBRANCH   5   6
BRANCH   5   9
HETATM    9  C           1      -9.360   6.617 -20.994  0.00  0.00     0.217 C 
BRANCH   9  10
HETATM   10  O           1     -10.150   7.687 -21.438  0.00  0.00    -0.287 OA
BRANCH  10  11
HETATM   11  P           1      -9.932   9.093 -20.675  0.00  0.00     0.406 P 
HETATM   12  O           1     -11.025  10.024 -21.033  0.00  0.00    -0.624 OA
HETATM   13  O           1      -8.634   9.677 -21.081  0.00  0.00    -0.624 OA
BRANCH  11  14
HETATM   14  O           1      -9.937   8.847 -19.080  0.00  0.00    -0.300 OA
HETATM   15  H           1      -9.788   9.696 -18.701  0.00  0.00     0.223 HD
ENDBRANCH  11  14
ENDBRANCH  10  11
ENDBRANCH   9  10
ENDBRANCH   5   9
ENDBRANCH   1   5
BRANCH   3  16
HETATM   16  C           1     -13.242   4.371 -22.808  0.00  0.00     0.302 C 
BRANCH  16  17
HETATM   17  N           1     -13.981   3.071 -22.691  0.00  0.00    -0.064 N 
HETATM   18  H           1     -14.182   2.697 -23.647  0.00  0.00     0.275 HD
HETATM   19  H           1     -13.396   2.384 -22.165  0.00  0.00     0.275 HD
HETATM   20  H           1     -14.880   3.225 -22.182  0.00  0.00     0.275 HD
ENDBRANCH  16  17
BRANCH  16  21
HETATM   21  C           1     -14.138   5.508 -22.333  0.00  0.00     0.153 C 
HETATM   22  C           1     -15.539   5.319 -22.899  0.00  0.00     0.042 C 
BRANCH  21  23
HETATM   23  O           1     -14.195   5.505 -20.933  0.00  0.00    -0.393 OA
HETATM   24  H           1     -14.429   4.632 -20.671  0.00  0.00     0.210 HD
ENDBRANCH  21  23
ENDBRANCH  16  21
ENDBRANCH   3  16
TORSDOF 10
ENDMDL
MODEL 7
REMARK VINA RESULT:      -5.3     13.159     15.186
REMARK  10 active torsions:
REMARK  status: ('A' for Active; 'I' for Inactive)
REMARK    1  A    between atoms: N_3  and  C_12 
REMARK       I    between atoms: N_3  and  C_6 
REMARK    2  A    between atoms: C_6  and  C_15 
REMARK    3  A    between atoms: O_8  and  C_20 
REMARK    4  A    between atoms: O_8  and  P_14 
REMARK    5  A    between atoms: N_9  and  C_15 
REMARK    6  A    between atoms: O_11  and  P_14 
REMARK    7  A    between atoms: C_12  and  C_13 
REMARK    8  A    between atoms: C_12  and  C_20 
REMARK    9  A    between atoms: C_15  and  C_22 
REMARK   10  A    between atoms: C_22  and  O_23 
ROOT
HETATM    1  N           1     -21.720  -5.218  -6.628  0.00  0.00    -0.343 N 
HETATM    2  H           1     -22.117  -4.462  -6.084  0.00  0.00     0.163 HD
HETATM    3  C           1     -21.194  -6.312  -5.995  0.00  0.00     0.251 C 
HETATM    4  O           1     -20.720  -7.215  -6.643  0.00  0.00    -0.271 OA
ENDROOT
BRANCH   1   5
HETATM    5  C           1     -21.707  -5.142  -8.075  0.00  0.00     0.210 C 
BRANCH   5   6
HETATM    6  C           1     -20.420  -4.500  -8.534  0.00  0.00     0.198 C 
HETATM    7  O           1     -19.801  -3.726  -7.772  0.00  0.00    -0.646 OA
HETATM    8  O           1     -19.974  -4.742  -9.675  0.00  0.00    -0.646 OA
ENDBRANCH   5   6
BRANCH   5   9
HETATM    9  C           1     -22.889  -4.306  -8.548  0.00  0.00     0.217 C 
BRANCH   9  10
HETATM   10  O           1     -23.481  -4.918  -9.661  0.00  0.00    -0.287 OA
BRANCH  10  11
HETATM   11  P           1     -23.658  -3.991 -10.971  0.00  0.00     0.406 P 
HETATM   12  O           1     -22.548  -3.015 -11.039  0.00  0.00    -0.624 OA
HETATM   13  O           1     -24.946  -3.268 -10.891  0.00  0.00    -0.624 OA
BRANCH  11  14
HETATM   14  O           1     -23.641  -4.918 -12.293  0.00  0.00    -0.300 OA
HETATM   15  H           1     -24.418  -4.679 -12.769  0.00  0.00     0.223 HD
ENDBRANCH  11  14
ENDBRANCH  10  11
ENDBRANCH   9  10
ENDBRANCH   5   9
ENDBRANCH   1   5
BRANCH   3  16
HETATM   16  C           1     -21.208  -6.392  -4.488  0.00  0.00     0.302 C 
BRANCH  16  17
HETATM   17  N           1     -22.602  -6.162  -3.988  0.00  0.00    -0.064 N 
HETATM   18  H           1     -22.615  -6.233  -2.945  0.00  0.00     0.275 HD
HETATM   19  H           1     -22.922  -5.210  -4.276  0.00  0.00     0.275 HD
HETATM   20  H           1     -23.241  -6.882  -4.394  0.00  0.00     0.275 HD
ENDBRANCH  16  17
BRANCH  16  21
HETATM   21  C           1     -20.731  -7.771  -4.048  0.00  0.00     0.153 C 
HETATM   22  C           1     -20.617  -7.806  -2.530  0.00  0.00     0.042 C 
BRANCH  21  23
HETATM   23  O           1     -21.652  -8.740  -4.470  0.00  0.00    -0.393 OA
HETATM   24  H           1     -21.988  -9.154  -3.693  0.00  0.00     0.210 HD
ENDBRANCH  21  23
ENDBRANCH  16  21
ENDBRANCH   3  16
TORSDOF 10
ENDMDL
MODEL 8
REMARK VINA RESULT:      -5.1      8.698     10.044
REMARK  10 active torsions:
REMARK  status: ('A' for Active; 'I' for Inactive)
REMARK    1  A    between atoms: N_3  and  C_12 
REMARK       I    between atoms: N_3  and  C_6 
REMARK    2  A    between atoms: C_6  and  C_15 
REMARK    3  A    between atoms: O_8  and  C_20 
REMARK    4  A    between atoms: O_8  and  P_14 
REMARK    5  A    between atoms: N_9  and  C_15 
REMARK    6  A    between atoms: O_11  and  P_14 
REMARK    7  A    between atoms: C_12  and  C_13 
REMARK    8  A    between atoms: C_12  and  C_20 
REMARK    9  A    between atoms: C_15  and  C_22 
REMARK   10  A    between atoms: C_22  and  O_23 
ROOT
HETATM    1  N           1     -27.621  -6.570 -16.935  0.00  0.00    -0.343 N 
HETATM    2  H           1     -27.606  -6.089 -17.826  0.00  0.00     0.163 HD
HETATM    3  C           1     -26.446  -6.953 -16.347  0.00  0.00     0.251 C 
HETATM    4  O           1     -26.462  -7.527 -15.283  0.00  0.00    -0.271 OA
ENDROOT
BRANCH   1   5
HETATM    5  C           1     -28.884  -6.852 -16.284  0.00  0.00     0.210 C 
BRANCH   5   6
HETATM    6  C           1     -29.873  -7.362 -17.305  0.00  0.00     0.198 C 
HETATM    7  O           1     -29.498  -8.151 -18.199  0.00  0.00    -0.646 OA
HETATM    8  O           1     -31.066  -6.994 -17.256  0.00  0.00    -0.646 OA
ENDBRANCH   5   6
BRANCH   5   9
HETATM    9  C           1     -29.422  -5.578 -15.648  0.00  0.00     0.217 C 
BRANCH   9  10
HETATM   10  O           1     -28.813  -4.464 -16.243  0.00  0.00    -0.287 OA
BRANCH  10  11
HETATM   11  P           1     -29.669  -3.715 -17.389  0.00  0.00     0.406 P 
HETATM   12  O           1     -29.350  -4.302 -18.708  0.00  0.00    -0.624 OA
HETATM   13  O           1     -29.330  -2.275 -17.394  0.00  0.00    -0.624 OA
BRANCH  11  14
HETATM   14  O           1     -31.245  -3.896 -17.086  0.00  0.00    -0.300 OA
HETATM   15  H           1     -31.665  -3.828 -17.927  0.00  0.00     0.223 HD
ENDBRANCH  11  14
ENDBRANCH  10  11
ENDBRANCH   9  10
ENDBRANCH   5   9
ENDBRANCH   1   5
BRANCH   3  16
HETATM   16  C           1     -25.130  -6.659 -17.024  0.00  0.00     0.302 C 
BRANCH  16  17
HETATM   17  N           1     -24.184  -7.800 -16.796  0.00  0.00    -0.064 N 
HETATM   18  H           1     -24.700  -8.598 -16.359  0.00  0.00     0.275 HD
HETATM   19  H           1     -23.781  -8.105 -17.710  0.00  0.00     0.275 HD
HETATM   20  H           1     -23.415  -7.493 -16.161  0.00  0.00     0.275 HD
ENDBRANCH  16  17
BRANCH  16  21
HETATM   21  C           1     -25.357  -6.479 -18.520  0.00  0.00     0.153 C 
HETATM   22  C           1     -24.263  -7.206 -19.290  0.00  0.00     0.042 C 
BRANCH  21  23
HETATM   23  O           1     -26.606  -7.010 -18.870  0.00  0.00    -0.393 OA
HETATM   24  H           1     -27.258  -6.412 -18.547  0.00  0.00     0.210 HD
ENDBRANCH  21  23
ENDBRANCH  16  21
ENDBRANCH   3  16
TORSDOF 10
ENDMDL
MODEL 9
REMARK VINA RESULT:      -5.0     13.726     15.879
REMARK  10 active torsions:
REMARK  status: ('A' for Active; 'I' for Inactive)
REMARK    1  A    between atoms: N_3  and  C_12 
REMARK       I    between atoms: N_3  and  C_6 
REMARK    2  A    between atoms: C_6  and  C_15 
REMARK    3  A    between atoms: O_8  and  C_20 
REMARK    4  A    between atoms: O_8  and  P_14 
REMARK    5  A    between atoms: N_9  and  C_15 
REMARK    6  A    between atoms: O_11  and  P_14 
REMARK    7  A    between atoms: C_12  and  C_13 
REMARK    8  A    between atoms: C_12  and  C_20 
REMARK    9  A    between atoms: C_15  and  C_22 
REMARK   10  A    between atoms: C_22  and  O_23 
ROOT
HETATM    1  N           1     -21.808  -6.308  -5.877  0.00  0.00    -0.343 N 
HETATM    2  H           1     -22.672  -5.991  -5.455  0.00  0.00     0.163 HD
HETATM    3  C           1     -21.196  -7.441  -5.411  0.00  0.00     0.251 C 
HETATM    4  O           1     -20.165  -7.820  -5.915  0.00  0.00    -0.271 OA
ENDROOT
BRANCH   1   5
HETATM    5  C           1     -21.220  -5.564  -6.973  0.00  0.00     0.210 C 
BRANCH   5   6
HETATM    6  C           1     -20.037  -4.775  -6.467  0.00  0.00     0.198 C 
HETATM    7  O           1     -20.015  -4.369  -5.285  0.00  0.00    -0.646 OA
HETATM    8  O           1     -19.079  -4.528  -7.231  0.00  0.00    -0.646 OA
ENDBRANCH   5   6
BRANCH   5   9
HETATM    9  C           1     -22.258  -4.610  -7.550  0.00  0.00     0.217 C 
BRANCH   9  10
HETATM   10  O           1     -22.052  -4.474  -8.930  0.00  0.00    -0.287 OA
BRANCH  10  11
HETATM   11  P           1     -23.351  -4.083  -9.806  0.00  0.00     0.406 P 
HETATM   12  O           1     -23.919  -5.303 -10.420  0.00  0.00    -0.624 OA
HETATM   13  O           1     -22.960  -3.132 -10.870  0.00  0.00    -0.624 OA
BRANCH  11  14
HETATM   14  O           1     -24.457  -3.398  -8.850  0.00  0.00    -0.300 OA
HETATM   15  H           1     -24.026  -2.648  -8.476  0.00  0.00     0.223 HD
ENDBRANCH  11  14
ENDBRANCH  10  11
ENDBRANCH   9  10
ENDBRANCH   5   9
ENDBRANCH   1   5
BRANCH   3  16
HETATM   16  C           1     -21.808  -8.216  -4.271  0.00  0.00     0.302 C 
BRANCH  16  17
HETATM   17  N           1     -21.282  -9.620  -4.282  0.00  0.00    -0.064 N 
HETATM   18  H           1     -22.064 -10.287  -4.093  0.00  0.00     0.275 HD
HETATM   19  H           1     -20.866  -9.828  -5.217  0.00  0.00     0.275 HD
HETATM   20  H           1     -20.550  -9.723  -3.544  0.00  0.00     0.275 HD
ENDBRANCH  16  17
BRANCH  16  21
HETATM   21  C           1     -21.446  -7.548  -2.950  0.00  0.00     0.153 C 
HETATM   22  C           1     -20.317  -8.322  -2.284  0.00  0.00     0.042 C 
BRANCH  21  23
HETATM   23  O           1     -21.032  -6.231  -3.190  0.00  0.00    -0.393 OA
HETATM   24  H           1     -20.551  -5.952  -2.430  0.00  0.00     0.210 HD
ENDBRANCH  21  23
ENDBRANCH  16  21
ENDBRANCH   3  16
TORSDOF 10
ENDMDL
