MODEL 1
REMARK VINA RESULT:      -6.6      0.000      0.000
REMARK  8 active torsions:
REMARK  status: ('A' for Active; 'I' for Inactive)
REMARK    1  A    between atoms: C_1  and  C_2 
REMARK    2  A    between atoms: C_1  and  C_14 
REMARK    3  A    between atoms: C_1  and  N_9 
REMARK       I    between atoms: C_2  and  N_3 
REMARK    4  A    between atoms: N_3  and  C_7 
REMARK    5  A    between atoms: C_6  and  C_7 
REMARK    6  A    between atoms: C_7  and  C_20 
REMARK    7  A    between atoms: C_11  and  C_14 
REMARK    8  A    between atoms: C_11  and  C_12 
ROOT
HETATM    1  C           1     -21.744  -4.687  -7.723  0.00  0.00     0.249 C 
HETATM    2  N           1     -22.189  -4.812  -9.011  0.00  0.00    -0.344 N 
HETATM    3  O           1     -21.749  -3.605  -7.184  0.00  0.00    -0.271 OA
HETATM    4  H           1     -22.185  -5.718  -9.462  0.00  0.00     0.163 HD
ENDROOT
BRANCH   1   5
HETATM    5  C           1     -21.248  -5.900  -6.975  0.00  0.00     0.275 C 
BRANCH   5   6
HETATM    6  C           1     -21.220  -5.600  -5.481  0.00  0.00     0.053 C 
BRANCH   6   7
HETATM    7  C           1     -22.180  -6.535  -4.758  0.00  0.00     0.115 C 
BRANCH   7   8
HETATM    8  C           1     -21.819  -6.595  -3.294  0.00  0.00     0.172 C 
HETATM    9  O           1     -22.447  -5.900  -2.466  0.00  0.00    -0.648 OA
HETATM   10  O           1     -20.891  -7.339  -2.910  0.00  0.00    -0.648 OA
ENDBRANCH   7   8
ENDBRANCH   6   7
ENDBRANCH   5   6
BRANCH   5  11
HETATM   11  N           1     -19.864  -6.242  -7.441  0.00  0.00    -0.066 N 
HETATM   12  H           1     -19.539  -7.109  -6.958  0.00  0.00     0.275 HD
HETATM   13  H           1     -19.874  -6.401  -8.473  0.00  0.00     0.275 HD
HETATM   14  H           1     -19.215  -5.453  -7.214  0.00  0.00     0.275 HD
ENDBRANCH   5  11
ENDBRANCH   1   5
BRANCH   2  15
HETATM   15  C           1     -22.666  -3.647  -9.730  0.00  0.00     0.189 C 
BRANCH  15  16
HETATM   16  C           1     -24.129  -3.822 -10.059  0.00  0.00     0.197 C 
HETATM   17  O           1     -24.756  -2.902 -10.625  0.00  0.00    -0.646 OA
HETATM   18  O           1     -24.711  -4.889  -9.768  0.00  0.00    -0.646 OA
ENDBRANCH  15  16
BRANCH  15  19
HETATM   19  C           1     -21.871  -3.485 -11.018  0.00  0.00     0.010 C 
HETATM   20  C           1     -20.382  -3.491 -10.699  0.00  0.00     0.012 C 
HETATM   21  C           1     -22.193  -4.637 -11.961  0.00  0.00     0.012 C 
ENDBRANCH  15  19
ENDBRANCH   2  15
TORSDOF 8
ENDMDL
MODEL 2
REMARK VINA RESULT:      -6.5     13.209     14.801
REMARK  8 active torsions:
REMARK  status: ('A' for Active; 'I' for Inactive)
REMARK    1  A    between atoms: C_1  and  C_2 
REMARK    2  A    between atoms: C_1  and  C_14 
REMARK    3  A    between atoms: C_1  and  N_9 
REMARK       I    between atoms: C_2  and  N_3 
REMARK    4  A    between atoms: N_3  and  C_7 
REMARK    5  A    between atoms: C_6  and  C_7 
REMARK    6  A    between atoms: C_7  and  C_20 
REMARK    7  A    between atoms: C_11  and  C_14 
REMARK    8  A    between atoms: C_11  and  C_12 
ROOT
HETATM    1  C           1     -35.331  -1.640 -12.849  0.00  0.00     0.249 C 
HETATM    2  N           1     -34.846  -1.228 -14.062  0.00  0.00    -0.344 N 
HETATM    3  O           1     -36.453  -1.343 -12.515  0.00  0.00    -0.271 OA
HETATM    4  H           1     -33.907  -1.477 -14.342  0.00  0.00     0.163 HD
ENDROOT
BRANCH   1   5
HETATM    5  C           1     -34.463  -2.464 -11.931  0.00  0.00     0.275 C 
BRANCH   5   6
HETATM    6  C           1     -35.316  -3.517 -11.234  0.00  0.00     0.053 C 
BRANCH   6   7
HETATM    7  C           1     -34.416  -4.607 -10.669  0.00  0.00     0.115 C 
BRANCH   7   8
HETATM    8  C           1     -34.708  -5.914 -11.367  0.00  0.00     0.172 C 
HETATM    9  O           1     -35.114  -5.913 -12.549  0.00  0.00    -0.648 OA
HETATM   10  O           1     -34.545  -6.995 -10.762  0.00  0.00    -0.648 OA
ENDBRANCH   7   8
ENDBRANCH   6   7
ENDBRANCH   5   6
BRANCH   5  11
HETATM   11  N           1     -33.833  -1.572 -10.903  0.00  0.00    -0.066 N 
HETATM   12  H           1     -32.797  -1.703 -10.916  0.00  0.00     0.275 HD
HETATM   13  H           1     -34.062  -0.576 -11.121  0.00  0.00     0.275 HD
HETATM   14  H           1     -34.204  -1.816  -9.956  0.00  0.00     0.275 HD
ENDBRANCH   5  11
ENDBRANCH   1   5
BRANCH   2  15
HETATM   15  C           1     -35.680  -0.436 -14.944  0.00  0.00     0.189 C 
BRANCH  15  16
HETATM   16  C           1     -35.770  -1.110 -16.292  0.00  0.00     0.197 C 
HETATM   17  O           1     -34.842  -1.850 -16.682  0.00  0.00    -0.646 OA
HETATM   18  O           1     -36.773  -0.929 -17.016  0.00  0.00    -0.646 OA
ENDBRANCH  15  16
BRANCH  15  19
HETATM   19  C           1     -35.071   0.950 -15.109  0.00  0.00     0.010 C 
HETATM   20  C           1     -36.104   1.890 -15.716  0.00  0.00     0.012 C 
HETATM   21  C           1     -34.640   1.479 -13.747  0.00  0.00     0.012 C 
ENDBRANCH  15  19
ENDBRANCH   2  15
TORSDOF 8
ENDMDL
MODEL 3
REMARK VINA RESULT:      -6.4     12.554     14.021
REMARK  8 active torsions:
REMARK  status: ('A' for Active; 'I' for Inactive)
REMARK    1  A    between atoms: C_1  and  C_2 
REMARK    2  A    between atoms: C_1  and  C_14 
REMARK    3  A    between atoms: C_1  and  N_9 
REMARK       I    between atoms: C_2  and  N_3 
REMARK    4  A    between atoms: N_3  and  C_7 
REMARK    5  A    between atoms: C_6  and  C_7 
REMARK    6  A    between atoms: C_7  and  C_20 
REMARK    7  A    between atoms: C_11  and  C_14 
REMARK    8  A    between atoms: C_11  and  C_12 
ROOT
HETATM    1  C           1     -34.537  -2.621 -11.699  0.00  0.00     0.249 C 
HETATM    2  N           1     -35.445  -1.857 -12.382  0.00  0.00    -0.344 N 
HETATM    3  O           1     -33.827  -2.113 -10.864  0.00  0.00    -0.271 OA
HETATM    4  H           1     -36.041  -2.283 -13.080  0.00  0.00     0.163 HD
ENDROOT
BRANCH   1   5
HETATM    5  C           1     -34.426  -4.098 -11.987  0.00  0.00     0.275 C 
BRANCH   5   6
HETATM    6  C           1     -34.286  -4.862 -10.676  0.00  0.00     0.053 C 
BRANCH   6   7
HETATM    7  C           1     -33.659  -6.223 -10.947  0.00  0.00     0.115 C 
BRANCH   7   8
HETATM    8  C           1     -34.397  -7.283 -10.166  0.00  0.00     0.172 C 
HETATM    9  O           1     -33.987  -8.464 -10.173  0.00  0.00    -0.648 OA
HETATM   10  O           1     -35.417  -6.979  -9.511  0.00  0.00    -0.648 OA
ENDBRANCH   7   8
ENDBRANCH   6   7
ENDBRANCH   5   6
BRANCH   5  11
HETATM   11  N           1     -33.221  -4.350 -12.843  0.00  0.00    -0.066 N 
HETATM   12  H           1     -33.172  -5.365 -13.085  0.00  0.00     0.275 HD
HETATM   13  H           1     -33.293  -3.786 -13.719  0.00  0.00     0.275 HD
HETATM   14  H           1     -32.358  -4.075 -12.320  0.00  0.00     0.275 HD
ENDBRANCH   5  11
ENDBRANCH   1   5
BRANCH   2  15
HETATM   15  C           1     -35.552  -0.438 -12.105  0.00  0.00     0.189 C 
BRANCH  15  16
HETATM   16  C           1     -36.719  -0.192 -11.180  0.00  0.00     0.197 C 
HETATM   17  O           1     -37.783  -0.830 -11.334  0.00  0.00    -0.646 OA
HETATM   18  O           1     -36.620   0.647 -10.259  0.00  0.00    -0.646 OA
ENDBRANCH  15  16
BRANCH  15  19
HETATM   19  C           1     -35.770   0.318 -13.409  0.00  0.00     0.010 C 
HETATM   20  C           1     -34.554   1.188 -13.700  0.00  0.00     0.012 C 
HETATM   21  C           1     -35.966  -0.677 -14.546  0.00  0.00     0.012 C 
ENDBRANCH  15  19
ENDBRANCH   2  15
TORSDOF 8
ENDMDL
MODEL 4
REMARK VINA RESULT:      -6.4     10.297     12.603
REMARK  8 active torsions:
REMARK  status: ('A' for Active; 'I' for Inactive)
REMARK    1  A    between atoms: C_1  and  C_2 
REMARK    2  A    between atoms: C_1  and  C_14 
REMARK    3  A    between atoms: C_1  and  N_9 
REMARK       I    between atoms: C_2  and  N_3 
REMARK    4  A    between atoms: N_3  and  C_7 
REMARK    5  A    between atoms: C_6  and  C_7 
REMARK    6  A    between atoms: C_7  and  C_20 
REMARK    7  A    between atoms: C_11  and  C_14 
REMARK    8  A    between atoms: C_11  and  C_12 
ROOT
HETATM    1  C           1     -25.441  -6.239 -17.122  0.00  0.00     0.249 C 
HETATM    2  N           1     -26.759  -6.213 -17.490  0.00  0.00    -0.344 N 
HETATM    3  O           1     -25.126  -5.989 -15.982  0.00  0.00    -0.271 OA
HETATM    4  H           1     -27.023  -6.423 -18.443  0.00  0.00     0.163 HD
ENDROOT
BRANCH   1   5
HETATM    5  C           1     -24.381  -6.582 -18.139  0.00  0.00     0.275 C 
BRANCH   5   6
HETATM    6  C           1     -25.043  -6.950 -19.460  0.00  0.00     0.053 C 
BRANCH   6   7
HETATM    7  C           1     -24.063  -7.739 -20.318  0.00  0.00     0.115 C 
BRANCH   7   8
HETATM    8  C           1     -24.729  -8.130 -21.615  0.00  0.00     0.172 C 
HETATM    9  O           1     -24.089  -8.078 -22.687  0.00  0.00    -0.648 OA
HETATM   10  O           1     -25.922  -8.506 -21.615  0.00  0.00    -0.648 OA
ENDBRANCH   7   8
ENDBRANCH   6   7
ENDBRANCH   5   6
BRANCH   5  11
HETATM   11  N           1     -23.572  -7.745 -17.645  0.00  0.00    -0.066 N 
HETATM   12  H           1     -23.876  -7.995 -16.678  0.00  0.00     0.275 HD
HETATM   13  H           1     -23.716  -8.562 -18.279  0.00  0.00     0.275 HD
HETATM   14  H           1     -22.559  -7.484 -17.635  0.00  0.00     0.275 HD
ENDBRANCH   5  11
ENDBRANCH   1   5
BRANCH   2  15
HETATM   15  C           1     -27.778  -5.884 -16.512  0.00  0.00     0.189 C 
BRANCH  15  16
HETATM   16  C           1     -28.406  -7.154 -15.992  0.00  0.00     0.197 C 
HETATM   17  O           1     -28.037  -7.631 -14.897  0.00  0.00    -0.646 OA
HETATM   18  O           1     -29.296  -7.728 -16.656  0.00  0.00    -0.646 OA
ENDBRANCH  15  16
BRANCH  15  19
HETATM   19  C           1     -28.847  -5.019 -17.165  0.00  0.00     0.010 C 
HETATM   20  C           1     -28.544  -3.550 -16.900  0.00  0.00     0.012 C 
HETATM   21  C           1     -28.857  -5.273 -18.667  0.00  0.00     0.012 C 
ENDBRANCH  15  19
ENDBRANCH   2  15
TORSDOF 8
ENDMDL
MODEL 5
REMARK VINA RESULT:      -6.3     12.250     14.140
REMARK  8 active torsions:
REMARK  status: ('A' for Active; 'I' for Inactive)
REMARK    1  A    between atoms: C_1  and  C_2 
REMARK    2  A    between atoms: C_1  and  C_14 
REMARK    3  A    between atoms: C_1  and  N_9 
REMARK       I    between atoms: C_2  and  N_3 
REMARK    4  A    between atoms: N_3  and  C_7 
REMARK    5  A    between atoms: C_6  and  C_7 
REMARK    6  A    between atoms: C_7  and  C_20 
REMARK    7  A    between atoms: C_11  and  C_14 
REMARK    8  A    between atoms: C_11  and  C_12 
ROOT
HETATM    1  C           1     -33.853  -4.485 -15.417  0.00  0.00     0.249 C 
HETATM    2  N           1     -33.381  -3.996 -14.228  0.00  0.00    -0.344 N 
HETATM    3  O           1     -34.996  -4.866 -15.503  0.00  0.00    -0.271 OA
HETATM    4  H           1     -32.424  -3.676 -14.157  0.00  0.00     0.163 HD
ENDROOT
BRANCH   1   5
HETATM    5  C           1     -32.945  -4.546 -16.621  0.00  0.00     0.275 C 
BRANCH   5   6
HETATM    6  C           1     -31.507  -4.761 -16.163  0.00  0.00     0.053 C 
BRANCH   6   7
HETATM    7  C           1     -30.725  -5.465 -17.263  0.00  0.00     0.115 C 
BRANCH   7   8
HETATM    8  C           1     -29.760  -4.493 -17.897  0.00  0.00     0.172 C 
HETATM    9  O           1     -28.943  -4.893 -18.754  0.00  0.00    -0.648 OA
HETATM   10  O           1     -29.778  -3.288 -17.563  0.00  0.00    -0.648 OA
ENDBRANCH   7   8
ENDBRANCH   6   7
ENDBRANCH   5   6
BRANCH   5  11
HETATM   11  N           1     -33.039  -3.258 -17.383  0.00  0.00    -0.066 N 
HETATM   12  H           1     -33.371  -2.499 -16.746  0.00  0.00     0.275 HD
HETATM   13  H           1     -32.097  -3.008 -17.761  0.00  0.00     0.275 HD
HETATM   14  H           1     -33.715  -3.370 -18.173  0.00  0.00     0.275 HD
ENDBRANCH   5  11
ENDBRANCH   1   5
BRANCH   2  15
HETATM   15  C           1     -34.254  -3.937 -13.072  0.00  0.00     0.189 C 
BRANCH  15  16
HETATM   16  C           1     -34.721  -2.517 -12.866  0.00  0.00     0.197 C 
HETATM   17  O           1     -34.766  -2.035 -11.714  0.00  0.00    -0.646 OA
HETATM   18  O           1     -35.060  -1.822 -13.848  0.00  0.00    -0.646 OA
ENDBRANCH  15  16
BRANCH  15  19
HETATM   19  C           1     -33.493  -4.406 -11.838  0.00  0.00     0.010 C 
HETATM   20  C           1     -34.114  -5.696 -11.320  0.00  0.00     0.012 C 
HETATM   21  C           1     -32.036  -4.655 -12.206  0.00  0.00     0.012 C 
ENDBRANCH  15  19
ENDBRANCH   2  15
TORSDOF 8
ENDMDL
MODEL 6
REMARK VINA RESULT:      -6.2     10.228     12.991
REMARK  8 active torsions:
REMARK  status: ('A' for Active; 'I' for Inactive)
REMARK    1  A    between atoms: C_1  and  C_2 
REMARK    2  A    between atoms: C_1  and  C_14 
REMARK    3  A    between atoms: C_1  and  N_9 
REMARK       I    between atoms: C_2  and  N_3 
REMARK    4  A    between atoms: N_3  and  C_7 
REMARK    5  A    between atoms: C_6  and  C_7 
REMARK    6  A    between atoms: C_7  and  C_20 
REMARK    7  A    between atoms: C_11  and  C_14 
REMARK    8  A    between atoms: C_11  and  C_12 
ROOT
HETATM    1  C           1     -25.494  -6.736 -18.654  0.00  0.00     0.249 C 
HETATM    2  N           1     -26.754  -6.594 -18.138  0.00  0.00    -0.344 N 
HETATM    3  O           1     -24.535  -6.372 -18.016  0.00  0.00    -0.271 OA
HETATM    4  H           1     -27.557  -6.899 -18.672  0.00  0.00     0.163 HD
ENDROOT
BRANCH   1   5
HETATM    5  C           1     -25.304  -7.348 -20.020  0.00  0.00     0.275 C 
BRANCH   5   6
HETATM    6  C           1     -23.881  -7.878 -20.146  0.00  0.00     0.053 C 
BRANCH   6   7
HETATM    7  C           1     -23.587  -8.203 -21.604  0.00  0.00     0.115 C 
BRANCH   7   8
HETATM    8  C           1     -22.192  -8.766 -21.724  0.00  0.00     0.172 C 
HETATM    9  O           1     -21.883  -9.465 -22.713  0.00  0.00    -0.648 OA
HETATM   10  O           1     -21.346  -8.535 -20.832  0.00  0.00    -0.648 OA
ENDBRANCH   7   8
ENDBRANCH   6   7
ENDBRANCH   5   6
BRANCH   5  11
HETATM   11  N           1     -25.543  -6.307 -21.072  0.00  0.00    -0.066 N 
HETATM   12  H           1     -26.273  -6.646 -21.738  0.00  0.00     0.275 HD
HETATM   13  H           1     -25.867  -5.423 -20.619  0.00  0.00     0.275 HD
HETATM   14  H           1     -24.654  -6.127 -21.593  0.00  0.00     0.275 HD
ENDBRANCH   5  11
ENDBRANCH   1   5
BRANCH   2  15
HETATM   15  C           1     -26.938  -6.006 -16.825  0.00  0.00     0.189 C 
BRANCH  15  16
HETATM   16  C           1     -26.801  -7.077 -15.770  0.00  0.00     0.197 C 
HETATM   17  O           1     -25.668  -7.478 -15.432  0.00  0.00    -0.646 OA
HETATM   18  O           1     -27.822  -7.560 -15.235  0.00  0.00    -0.646 OA
ENDBRANCH  15  16
BRANCH  15  19
HETATM   19  C           1     -28.324  -5.381 -16.739  0.00  0.00     0.010 C 
HETATM   20  C           1     -28.201  -3.864 -16.798  0.00  0.00     0.012 C 
HETATM   21  C           1     -29.173  -5.868 -17.906  0.00  0.00     0.012 C 
ENDBRANCH  15  19
ENDBRANCH   2  15
TORSDOF 8
ENDMDL
MODEL 7
REMARK VINA RESULT:      -6.1      1.693      2.112
REMARK  8 active torsions:
REMARK  status: ('A' for Active; 'I' for Inactive)
REMARK    1  A    between atoms: C_1  and  C_2 
REMARK    2  A    between atoms: C_1  and  C_14 
REMARK    3  A    between atoms: C_1  and  N_9 
REMARK       I    between atoms: C_2  and  N_3 
REMARK    4  A    between atoms: N_3  and  C_7 
REMARK    5  A    between atoms: C_6  and  C_7 
REMARK    6  A    between atoms: C_7  and  C_20 
REMARK    7  A    between atoms: C_11  and  C_14 
REMARK    8  A    between atoms: C_11  and  C_12 
ROOT
HETATM    1  C           1     -21.752  -4.376  -7.166  0.00  0.00     0.249 C 
HETATM    2  N           1     -22.289  -4.780  -8.358  0.00  0.00    -0.344 N 
HETATM    3  O           1     -21.442  -3.220  -7.003  0.00  0.00    -0.271 OA
HETATM    4  H           1     -22.549  -5.748  -8.494  0.00  0.00     0.163 HD
ENDROOT
BRANCH   1   5
HETATM    5  C           1     -21.548  -5.375  -6.053  0.00  0.00     0.275 C 
BRANCH   5   6
HETATM    6  C           1     -20.813  -6.595  -6.594  0.00  0.00     0.053 C 
BRANCH   6   7
HETATM    7  C           1     -20.145  -7.336  -5.443  0.00  0.00     0.115 C 
BRANCH   7   8
HETATM    8  C           1     -20.917  -8.598  -5.141  0.00  0.00     0.172 C 
HETATM    9  O           1     -20.623  -9.665  -5.722  0.00  0.00    -0.648 OA
HETATM   10  O           1     -21.850  -8.574  -4.310  0.00  0.00    -0.648 OA
ENDBRANCH   7   8
ENDBRANCH   6   7
ENDBRANCH   5   6
BRANCH   5  11
HETATM   11  N           1     -22.881  -5.796  -5.510  0.00  0.00    -0.066 N 
HETATM   12  H           1     -23.379  -6.379  -6.220  0.00  0.00     0.275 HD
HETATM   13  H           1     -22.740  -6.354  -4.638  0.00  0.00     0.275 HD
HETATM   14  H           1     -23.452  -4.947  -5.294  0.00  0.00     0.275 HD
ENDBRANCH   5  11
ENDBRANCH   1   5
BRANCH   2  15
HETATM   15  C           1     -22.485  -3.820  -9.427  0.00  0.00     0.189 C 
BRANCH  15  16
HETATM   16  C           1     -23.931  -3.836  -9.859  0.00  0.00     0.197 C 
HETATM   17  O           1     -24.686  -2.890  -9.549  0.00  0.00    -0.646 OA
HETATM   18  O           1     -24.372  -4.795 -10.529  0.00  0.00    -0.646 OA
ENDBRANCH  15  16
BRANCH  15  19
HETATM   19  C           1     -21.597  -4.188 -10.608  0.00  0.00     0.010 C 
HETATM   20  C           1     -21.409  -2.968 -11.501  0.00  0.00     0.012 C 
HETATM   21  C           1     -20.241  -4.657 -10.097  0.00  0.00     0.012 C 
ENDBRANCH  15  19
ENDBRANCH   2  15
TORSDOF 8
ENDMDL
MODEL 8
REMARK VINA RESULT:      -5.8     11.179     13.850
REMARK  8 active torsions:
REMARK  status: ('A' for Active; 'I' for Inactive)
REMARK    1  A    between atoms: C_1  and  C_2 
REMARK    2  A    between atoms: C_1  and  C_14 
REMARK    3  A    between atoms: C_1  and  N_9 
REMARK       I    between atoms: C_2  and  N_3 
REMARK    4  A    between atoms: N_3  and  C_7 
REMARK    5  A    between atoms: C_6  and  C_7 
REMARK    6  A    between atoms: C_7  and  C_20 
REMARK    7  A    between atoms: C_11  and  C_14 
REMARK    8  A    between atoms: C_11  and  C_12 
ROOT
HETATM    1  C           1     -26.989  -6.565 -19.751  0.00  0.00     0.249 C 
HETATM    2  N           1     -27.518  -6.746 -18.501  0.00  0.00    -0.344 N 
HETATM    3  O           1     -27.317  -5.609 -20.413  0.00  0.00    -0.271 OA
HETATM    4  H           1     -27.243  -7.546 -17.946  0.00  0.00     0.163 HD
ENDROOT
BRANCH   1   5
HETATM    5  C           1     -25.997  -7.559 -20.301  0.00  0.00     0.275 C 
BRANCH   5   6
HETATM    6  C           1     -24.916  -6.821 -21.081  0.00  0.00     0.053 C 
BRANCH   6   7
HETATM    7  C           1     -24.462  -7.677 -22.255  0.00  0.00     0.115 C 
BRANCH   7   8
HETATM    8  C           1     -23.107  -8.270 -21.952  0.00  0.00     0.172 C 
HETATM    9  O           1     -22.703  -8.334 -20.771  0.00  0.00    -0.648 OA
HETATM   10  O           1     -22.390  -8.696 -22.883  0.00  0.00    -0.648 OA
ENDBRANCH   7   8
ENDBRANCH   6   7
ENDBRANCH   5   6
BRANCH   5  11
HETATM   11  N           1     -26.703  -8.518 -21.213  0.00  0.00    -0.066 N 
HETATM   12  H           1     -26.950  -9.384 -20.685  0.00  0.00     0.275 HD
HETATM   13  H           1     -27.575  -8.072 -21.579  0.00  0.00     0.275 HD
HETATM   14  H           1     -26.075  -8.764 -22.013  0.00  0.00     0.275 HD
ENDBRANCH   5  11
ENDBRANCH   1   5
BRANCH   2  15
HETATM   15  C           1     -28.471  -5.790 -17.972  0.00  0.00     0.189 C 
BRANCH  15  16
HETATM   16  C           1     -27.817  -4.978 -16.880  0.00  0.00     0.197 C 
HETATM   17  O           1     -27.933  -3.734 -16.873  0.00  0.00    -0.646 OA
HETATM   18  O           1     -27.161  -5.551 -15.984  0.00  0.00    -0.646 OA
ENDBRANCH  15  16
BRANCH  15  19
HETATM   19  C           1     -29.672  -6.534 -17.402  0.00  0.00     0.010 C 
HETATM   20  C           1     -30.796  -5.546 -17.125  0.00  0.00     0.012 C 
HETATM   21  C           1     -30.146  -7.576 -18.407  0.00  0.00     0.012 C 
ENDBRANCH  15  19
ENDBRANCH   2  15
TORSDOF 8
ENDMDL
MODEL 9
REMARK VINA RESULT:      -5.8      2.066      6.778
REMARK  8 active torsions:
REMARK  status: ('A' for Active; 'I' for Inactive)
REMARK    1  A    between atoms: C_1  and  C_2 
REMARK    2  A    between atoms: C_1  and  C_14 
REMARK    3  A    between atoms: C_1  and  N_9 
REMARK       I    between atoms: C_2  and  N_3 
REMARK    4  A    between atoms: N_3  and  C_7 
REMARK    5  A    between atoms: C_6  and  C_7 
REMARK    6  A    between atoms: C_7  and  C_20 
REMARK    7  A    between atoms: C_11  and  C_14 
REMARK    8  A    between atoms: C_11  and  C_12 
ROOT
HETATM    1  C           1     -21.145  -5.245  -6.284  0.00  0.00     0.249 C 
HETATM    2  N           1     -21.616  -6.292  -5.538  0.00  0.00    -0.344 N 
HETATM    3  O           1     -19.971  -4.962  -6.255  0.00  0.00    -0.271 OA
HETATM    4  H           1     -22.599  -6.529  -5.564  0.00  0.00     0.163 HD
ENDROOT
BRANCH   1   5
HETATM    5  C           1     -22.092  -4.446  -7.145  0.00  0.00     0.275 C 
BRANCH   5   6
HETATM    6  C           1     -22.031  -4.957  -8.579  0.00  0.00     0.053 C 
BRANCH   6   7
HETATM    7  C           1     -22.290  -3.805  -9.540  0.00  0.00     0.115 C 
BRANCH   7   8
HETATM    8  C           1     -23.591  -4.039 -10.268  0.00  0.00     0.172 C 
HETATM    9  O           1     -23.945  -5.202 -10.558  0.00  0.00    -0.648 OA
HETATM   10  O           1     -24.315  -3.069 -10.581  0.00  0.00    -0.648 OA
ENDBRANCH   7   8
ENDBRANCH   6   7
ENDBRANCH   5   6
BRANCH   5  11
HETATM   11  N           1     -21.697  -2.999  -7.114  0.00  0.00    -0.066 N 
HETATM   12  H           1     -21.825  -2.624  -6.147  0.00  0.00     0.275 HD
HETATM   13  H           1     -20.694  -2.907  -7.393  0.00  0.00     0.275 HD
HETATM   14  H           1     -22.297  -2.460  -7.779  0.00  0.00     0.275 HD
ENDBRANCH   5  11
ENDBRANCH   1   5
BRANCH   2  15
HETATM   15  C           1     -20.706  -7.060  -4.711  0.00  0.00     0.189 C 
BRANCH  15  16
HETATM   16  C           1     -20.323  -8.330  -5.431  0.00  0.00     0.197 C 
HETATM   17  O           1     -21.202  -9.160  -5.744  0.00  0.00    -0.646 OA
HETATM   18  O           1     -19.125  -8.550  -5.715  0.00  0.00    -0.646 OA
ENDBRANCH  15  16
BRANCH  15  19
HETATM   19  C           1     -21.388  -7.407  -3.395  0.00  0.00     0.010 C 
HETATM   20  C           1     -20.420  -8.183  -2.512  0.00  0.00     0.012 C 
HETATM   21  C           1     -21.806  -6.125  -2.686  0.00  0.00     0.012 C 
ENDBRANCH  15  19
ENDBRANCH   2  15
TORSDOF 8
ENDMDL
