MODEL 1
REMARK VINA RESULT:      -5.7      0.000      0.000
REMARK  6 active torsions:
REMARK  status: ('A' for Active; 'I' for Inactive)
REMARK    1  A    between atoms: C_3  and  C_15 
REMARK    2  A    between atoms: N_8  and  C_13 
REMARK    3  A    between atoms: N_11  and  C_15 
REMARK       I    between atoms: N_11  and  C_12 
REMARK    4  A    between atoms: C_12  and  C_13 
REMARK    5  A    between atoms: C_13  and  C_16 
REMARK    6  A    between atoms: C_16  and  C_18 
ROOT
HETATM    1  H           1     -27.444  -8.148 -18.768  0.00  0.00     0.163 HD
HETATM    2  O           1     -28.392  -5.181 -19.137  0.00  0.00    -0.271 OA
HETATM    3  N           1     -27.503  -7.229 -19.186  0.00  0.00    -0.345 N 
HETATM    4  C           1     -28.323  -6.279 -18.638  0.00  0.00     0.249 C 
ENDROOT
BRANCH   4   5
HETATM    5  C           1     -29.138  -6.603 -17.411  0.00  0.00     0.278 C 
BRANCH   5   6
HETATM    6  N           1     -29.314  -8.089 -17.305  0.00  0.00    -0.066 N 
HETATM    7  H           1     -29.690  -8.329 -16.360  0.00  0.00     0.275 HD
HETATM    8  H           1     -28.391  -8.560 -17.443  0.00  0.00     0.275 HD
HETATM    9  H           1     -29.983  -8.414 -18.038  0.00  0.00     0.275 HD
ENDBRANCH   5   6
BRANCH   5  10
HETATM   10  C           1     -28.417  -6.089 -16.171  0.00  0.00     0.021 C 
HETATM   11  C           1     -29.442  -5.644 -15.136  0.00  0.00     0.012 C 
BRANCH  10  12
HETATM   12  C           1     -27.557  -7.202 -15.586  0.00  0.00     0.002 C 
HETATM   13  C           1     -26.085  -6.869 -15.793  0.00  0.00     0.005 C 
ENDBRANCH  10  12
ENDBRANCH   5  10
ENDBRANCH   4   5
BRANCH   3  14
HETATM   14  C           1     -26.719  -6.918 -20.365  0.00  0.00     0.181 C 
HETATM   15  C           1     -25.323  -6.478 -19.946  0.00  0.00     0.043 C 
BRANCH  14  16
HETATM   16  C           1     -26.620  -8.144 -21.240  0.00  0.00     0.196 C 
HETATM   17  O           1     -27.634  -8.844 -21.451  0.00  0.00    -0.646 OA
HETATM   18  O           1     -25.525  -8.459 -21.753  0.00  0.00    -0.646 OA
ENDBRANCH  14  16
ENDBRANCH   3  14
TORSDOF 6
ENDMDL
MODEL 2
REMARK VINA RESULT:      -5.5     10.810     12.585
REMARK  6 active torsions:
REMARK  status: ('A' for Active; 'I' for Inactive)
REMARK    1  A    between atoms: C_3  and  C_15 
REMARK    2  A    between atoms: N_8  and  C_13 
REMARK    3  A    between atoms: N_11  and  C_15 
REMARK       I    between atoms: N_11  and  C_12 
REMARK    4  A    between atoms: C_12  and  C_13 
REMARK    5  A    between atoms: C_13  and  C_16 
REMARK    6  A    between atoms: C_16  and  C_18 
ROOT
HETATM    1  H           1     -22.539  -5.790  -9.293  0.00  0.00     0.163 HD
HETATM    2  O           1     -21.265  -3.691  -7.341  0.00  0.00    -0.271 OA
HETATM    3  N           1     -22.288  -4.880  -8.931  0.00  0.00    -0.345 N 
HETATM    4  C           1     -21.565  -4.779  -7.773  0.00  0.00     0.249 C 
ENDROOT
BRANCH   4   5
HETATM    5  C           1     -21.142  -6.026  -7.037  0.00  0.00     0.278 C 
BRANCH   5   6
HETATM    6  N           1     -19.662  -6.217  -7.186  0.00  0.00    -0.066 N 
HETATM    7  H           1     -19.194  -6.043  -6.267  0.00  0.00     0.275 HD
HETATM    8  H           1     -19.294  -5.546  -7.897  0.00  0.00     0.275 HD
HETATM    9  H           1     -19.465  -7.194  -7.496  0.00  0.00     0.275 HD
ENDBRANCH   5   6
BRANCH   5  10
HETATM   10  C           1     -21.489  -5.888  -5.560  0.00  0.00     0.021 C 
HETATM   11  C           1     -22.963  -6.215  -5.353  0.00  0.00     0.012 C 
BRANCH  10  12
HETATM   12  C           1     -20.637  -6.854  -4.747  0.00  0.00     0.002 C 
HETATM   13  C           1     -21.245  -7.024  -3.360  0.00  0.00     0.005 C 
ENDBRANCH  10  12
ENDBRANCH   5  10
ENDBRANCH   4   5
BRANCH   3  14
HETATM   14  C           1     -22.694  -3.681  -9.639  0.00  0.00     0.181 C 
HETATM   15  C           1     -21.781  -3.466 -10.838  0.00  0.00     0.043 C 
BRANCH  14  16
HETATM   16  C           1     -24.119  -3.836 -10.111  0.00  0.00     0.196 C 
HETATM   17  O           1     -24.658  -2.927 -10.779  0.00  0.00    -0.646 OA
HETATM   18  O           1     -24.759  -4.874  -9.836  0.00  0.00    -0.646 OA
ENDBRANCH  14  16
ENDBRANCH   3  14
TORSDOF 6
ENDMDL
MODEL 3
REMARK VINA RESULT:      -5.4      2.445      4.891
REMARK  6 active torsions:
REMARK  status: ('A' for Active; 'I' for Inactive)
REMARK    1  A    between atoms: C_3  and  C_15 
REMARK    2  A    between atoms: N_8  and  C_13 
REMARK    3  A    between atoms: N_11  and  C_15 
REMARK       I    between atoms: N_11  and  C_12 
REMARK    4  A    between atoms: C_12  and  C_13 
REMARK    5  A    between atoms: C_13  and  C_16 
REMARK    6  A    between atoms: C_16  and  C_18 
ROOT
HETATM    1  H           1     -27.695  -6.929 -19.722  0.00  0.00     0.163 HD
HETATM    2  O           1     -26.279  -5.918 -17.112  0.00  0.00    -0.271 OA
HETATM    3  N           1     -27.613  -6.577 -18.777  0.00  0.00    -0.345 N 
HETATM    4  C           1     -26.376  -6.339 -18.240  0.00  0.00     0.249 C 
ENDROOT
BRANCH   4   5
HETATM    5  C           1     -25.136  -6.599 -19.059  0.00  0.00     0.278 C 
BRANCH   5   6
HETATM    6  N           1     -24.291  -7.630 -18.372  0.00  0.00    -0.066 N 
HETATM    7  H           1     -24.908  -8.340 -17.917  0.00  0.00     0.275 HD
HETATM    8  H           1     -23.698  -7.167 -17.646  0.00  0.00     0.275 HD
HETATM    9  H           1     -23.676  -8.101 -19.073  0.00  0.00     0.275 HD
ENDBRANCH   5   6
BRANCH   5  10
HETATM   10  C           1     -25.534  -7.107 -20.438  0.00  0.00     0.021 C 
HETATM   11  C           1     -25.550  -5.944 -21.422  0.00  0.00     0.012 C 
BRANCH  10  12
HETATM   12  C           1     -24.526  -8.150 -20.904  0.00  0.00     0.002 C 
HETATM   13  C           1     -24.053  -7.807 -22.310  0.00  0.00     0.005 C 
ENDBRANCH  10  12
ENDBRANCH   5  10
ENDBRANCH   4   5
BRANCH   3  14
HETATM   14  C           1     -28.806  -6.327 -17.991  0.00  0.00     0.181 C 
HETATM   15  C           1     -29.375  -4.962 -18.354  0.00  0.00     0.043 C 
BRANCH  14  16
HETATM   16  C           1     -29.831  -7.395 -18.282  0.00  0.00     0.196 C 
HETATM   17  O           1     -29.531  -8.369 -19.006  0.00  0.00    -0.646 OA
HETATM   18  O           1     -30.981  -7.306 -17.799  0.00  0.00    -0.646 OA
ENDBRANCH  14  16
ENDBRANCH   3  14
TORSDOF 6
ENDMDL
MODEL 4
REMARK VINA RESULT:      -5.3      2.423      3.504
REMARK  6 active torsions:
REMARK  status: ('A' for Active; 'I' for Inactive)
REMARK    1  A    between atoms: C_3  and  C_15 
REMARK    2  A    between atoms: N_8  and  C_13 
REMARK    3  A    between atoms: N_11  and  C_15 
REMARK       I    between atoms: N_11  and  C_12 
REMARK    4  A    between atoms: C_12  and  C_13 
REMARK    5  A    between atoms: C_13  and  C_16 
REMARK    6  A    between atoms: C_16  and  C_18 
ROOT
HETATM    1  H           1     -26.771  -7.994 -16.668  0.00  0.00     0.163 HD
HETATM    2  O           1     -26.986  -4.867 -16.530  0.00  0.00    -0.271 OA
HETATM    3  N           1     -26.461  -7.031 -16.698  0.00  0.00    -0.345 N 
HETATM    4  C           1     -27.357  -6.016 -16.495  0.00  0.00     0.249 C 
ENDROOT
BRANCH   4   5
HETATM    5  C           1     -28.807  -6.333 -16.226  0.00  0.00     0.278 C 
BRANCH   5   6
HETATM    6  N           1     -29.258  -5.604 -14.996  0.00  0.00    -0.066 N 
HETATM    7  H           1     -30.224  -5.233 -15.145  0.00  0.00     0.275 HD
HETATM    8  H           1     -28.606  -4.810 -14.802  0.00  0.00     0.275 HD
HETATM    9  H           1     -29.259  -6.259 -14.182  0.00  0.00     0.275 HD
ENDBRANCH   5   6
BRANCH   5  10
HETATM   10  C           1     -29.653  -5.894 -17.414  0.00  0.00     0.021 C 
HETATM   11  C           1     -30.314  -7.113 -18.045  0.00  0.00     0.012 C 
BRANCH  10  12
HETATM   12  C           1     -30.728  -4.924 -16.941  0.00  0.00     0.002 C 
HETATM   13  C           1     -30.562  -3.592 -17.660  0.00  0.00     0.005 C 
ENDBRANCH  10  12
ENDBRANCH   5  10
ENDBRANCH   4   5
BRANCH   3  14
HETATM   14  C           1     -25.067  -6.727 -16.956  0.00  0.00     0.181 C 
HETATM   15  C           1     -24.186  -7.766 -16.275  0.00  0.00     0.043 C 
BRANCH  14  16
HETATM   16  C           1     -24.815  -6.750 -18.444  0.00  0.00     0.196 C 
HETATM   17  O           1     -25.778  -6.717 -19.241  0.00  0.00    -0.646 OA
HETATM   18  O           1     -23.645  -6.803 -18.880  0.00  0.00    -0.646 OA
ENDBRANCH  14  16
ENDBRANCH   3  14
TORSDOF 6
ENDMDL
MODEL 5
REMARK VINA RESULT:      -5.2     12.652     14.716
REMARK  6 active torsions:
REMARK  status: ('A' for Active; 'I' for Inactive)
REMARK    1  A    between atoms: C_3  and  C_15 
REMARK    2  A    between atoms: N_8  and  C_13 
REMARK    3  A    between atoms: N_11  and  C_15 
REMARK       I    between atoms: N_11  and  C_12 
REMARK    4  A    between atoms: C_12  and  C_13 
REMARK    5  A    between atoms: C_13  and  C_16 
REMARK    6  A    between atoms: C_16  and  C_18 
ROOT
HETATM    1  H           1     -20.152  -6.360  -5.604  0.00  0.00     0.163 HD
HETATM    2  O           1     -23.043  -5.255  -6.115  0.00  0.00    -0.271 OA
HETATM    3  N           1     -21.158  -6.290  -5.515  0.00  0.00    -0.345 N 
HETATM    4  C           1     -21.843  -5.338  -6.221  0.00  0.00     0.249 C 
ENDROOT
BRANCH   4   5
HETATM    5  C           1     -21.099  -4.394  -7.133  0.00  0.00     0.278 C 
BRANCH   5   6
HETATM    6  N           1     -19.623  -4.538  -6.905  0.00  0.00    -0.066 N 
HETATM    7  H           1     -19.243  -5.278  -7.538  0.00  0.00     0.275 HD
HETATM    8  H           1     -19.449  -4.806  -5.910  0.00  0.00     0.275 HD
HETATM    9  H           1     -19.149  -3.630  -7.108  0.00  0.00     0.275 HD
ENDBRANCH   5   6
BRANCH   5  10
HETATM   10  C           1     -21.422  -4.727  -8.584  0.00  0.00     0.021 C 
HETATM   11  C           1     -22.426  -3.717  -9.125  0.00  0.00     0.012 C 
BRANCH  10  12
HETATM   12  C           1     -20.147  -4.669  -9.414  0.00  0.00     0.002 C 
HETATM   13  C           1     -20.481  -4.209 -10.827  0.00  0.00     0.005 C 
ENDBRANCH  10  12
ENDBRANCH   5  10
ENDBRANCH   4   5
BRANCH   3  14
HETATM   14  C           1     -21.873  -7.198  -4.639  0.00  0.00     0.181 C 
HETATM   15  C           1     -21.346  -8.613  -4.836  0.00  0.00     0.043 C 
BRANCH  14  16
HETATM   16  C           1     -21.665  -6.778  -3.205  0.00  0.00     0.196 C 
HETATM   17  O           1     -20.745  -7.290  -2.530  0.00  0.00    -0.646 OA
HETATM   18  O           1     -22.412  -5.918  -2.690  0.00  0.00    -0.646 OA
ENDBRANCH  14  16
ENDBRANCH   3  14
TORSDOF 6
ENDMDL
MODEL 6
REMARK VINA RESULT:      -5.2     12.033     13.984
REMARK  6 active torsions:
REMARK  status: ('A' for Active; 'I' for Inactive)
REMARK    1  A    between atoms: C_3  and  C_15 
REMARK    2  A    between atoms: N_8  and  C_13 
REMARK    3  A    between atoms: N_11  and  C_15 
REMARK       I    between atoms: N_11  and  C_12 
REMARK    4  A    between atoms: C_12  and  C_13 
REMARK    5  A    between atoms: C_13  and  C_16 
REMARK    6  A    between atoms: C_16  and  C_18 
ROOT
HETATM    1  H           1     -21.896  -7.029  -6.697  0.00  0.00     0.163 HD
HETATM    2  O           1     -20.912  -4.078  -6.291  0.00  0.00    -0.271 OA
HETATM    3  N           1     -21.425  -6.251  -6.253  0.00  0.00    -0.345 N 
HETATM    4  C           1     -21.473  -5.007  -6.823  0.00  0.00     0.249 C 
ENDROOT
BRANCH   4   5
HETATM    5  C           1     -22.227  -4.795  -8.112  0.00  0.00     0.278 C 
BRANCH   5   6
HETATM    6  N           1     -23.524  -4.099  -7.824  0.00  0.00    -0.066 N 
HETATM    7  H           1     -23.925  -3.727  -8.715  0.00  0.00     0.275 HD
HETATM    8  H           1     -23.355  -3.308  -7.161  0.00  0.00     0.275 HD
HETATM    9  H           1     -24.195  -4.774  -7.395  0.00  0.00     0.275 HD
ENDBRANCH   5   6
BRANCH   5  10
HETATM   10  C           1     -21.392  -3.942  -9.056  0.00  0.00     0.021 C 
HETATM   11  C           1     -20.147  -4.715  -9.474  0.00  0.00     0.012 C 
BRANCH  10  12
HETATM   12  C           1     -22.214  -3.600 -10.292  0.00  0.00     0.002 C 
HETATM   13  C           1     -21.290  -3.468 -11.496  0.00  0.00     0.005 C 
ENDBRANCH  10  12
ENDBRANCH   5  10
ENDBRANCH   4   5
BRANCH   3  14
HETATM   14  C           1     -20.701  -6.454  -5.014  0.00  0.00     0.181 C 
HETATM   15  C           1     -21.673  -6.399  -3.843  0.00  0.00     0.043 C 
BRANCH  14  16
HETATM   16  C           1     -20.023  -7.802  -5.044  0.00  0.00     0.196 C 
HETATM   17  O           1     -19.401  -8.166  -6.066  0.00  0.00    -0.646 OA
HETATM   18  O           1     -20.083  -8.554  -4.048  0.00  0.00    -0.646 OA
ENDBRANCH  14  16
ENDBRANCH   3  14
TORSDOF 6
ENDMDL
MODEL 7
REMARK VINA RESULT:      -5.2     10.706     12.427
REMARK  6 active torsions:
REMARK  status: ('A' for Active; 'I' for Inactive)
REMARK    1  A    between atoms: C_3  and  C_15 
REMARK    2  A    between atoms: N_8  and  C_13 
REMARK    3  A    between atoms: N_11  and  C_15 
REMARK       I    between atoms: N_11  and  C_12 
REMARK    4  A    between atoms: C_12  and  C_13 
REMARK    5  A    between atoms: C_13  and  C_16 
REMARK    6  A    between atoms: C_16  and  C_18 
ROOT
HETATM    1  H           1     -22.270  -5.548  -8.934  0.00  0.00     0.163 HD
HETATM    2  O           1     -21.030  -3.123  -7.378  0.00  0.00    -0.271 OA
HETATM    3  N           1     -21.780  -4.673  -8.800  0.00  0.00    -0.345 N 
HETATM    4  C           1     -21.615  -4.167  -7.538  0.00  0.00     0.249 C 
ENDROOT
BRANCH   4   5
HETATM    5  C           1     -22.162  -4.916  -6.348  0.00  0.00     0.278 C 
BRANCH   5   6
HETATM    6  N           1     -23.652  -5.030  -6.470  0.00  0.00    -0.066 N 
HETATM    7  H           1     -23.901  -5.978  -6.833  0.00  0.00     0.275 HD
HETATM    8  H           1     -24.004  -4.301  -7.131  0.00  0.00     0.275 HD
HETATM    9  H           1     -24.092  -4.890  -5.533  0.00  0.00     0.275 HD
ENDBRANCH   5   6
BRANCH   5  10
HETATM   10  C           1     -21.550  -6.310  -6.298  0.00  0.00     0.021 C 
HETATM   11  C           1     -20.036  -6.195  -6.170  0.00  0.00     0.012 C 
BRANCH  10  12
HETATM   12  C           1     -22.104  -7.065  -5.097  0.00  0.00     0.002 C 
HETATM   13  C           1     -21.026  -7.178  -4.026  0.00  0.00     0.005 C 
ENDBRANCH  10  12
ENDBRANCH   5  10
ENDBRANCH   4   5
BRANCH   3  14
HETATM   14  C           1     -21.254  -3.953  -9.943  0.00  0.00     0.181 C 
HETATM   15  C           1     -20.088  -4.731 -10.539  0.00  0.00     0.043 C 
BRANCH  14  16
HETATM   16  C           1     -22.339  -3.798 -10.981  0.00  0.00     0.196 C 
HETATM   17  O           1     -23.478  -3.410 -10.640  0.00  0.00    -0.646 OA
HETATM   18  O           1     -22.100  -4.057 -12.180  0.00  0.00    -0.646 OA
ENDBRANCH  14  16
ENDBRANCH   3  14
TORSDOF 6
ENDMDL
MODEL 8
REMARK VINA RESULT:      -5.1      1.511      2.381
REMARK  6 active torsions:
REMARK  status: ('A' for Active; 'I' for Inactive)
REMARK    1  A    between atoms: C_3  and  C_15 
REMARK    2  A    between atoms: N_8  and  C_13 
REMARK    3  A    between atoms: N_11  and  C_15 
REMARK       I    between atoms: N_11  and  C_12 
REMARK    4  A    between atoms: C_12  and  C_13 
REMARK    5  A    between atoms: C_13  and  C_16 
REMARK    6  A    between atoms: C_16  and  C_18 
ROOT
HETATM    1  H           1     -27.267  -8.116 -18.735  0.00  0.00     0.163 HD
HETATM    2  O           1     -28.173  -5.148 -19.197  0.00  0.00    -0.271 OA
HETATM    3  N           1     -27.300  -7.203 -19.172  0.00  0.00    -0.345 N 
HETATM    4  C           1     -28.134  -6.237 -18.676  0.00  0.00     0.249 C 
ENDROOT
BRANCH   4   5
HETATM    5  C           1     -29.002  -6.532 -17.478  0.00  0.00     0.278 C 
BRANCH   5   6
HETATM    6  N           1     -28.429  -5.857 -16.267  0.00  0.00    -0.066 N 
HETATM    7  H           1     -29.195  -5.386 -15.735  0.00  0.00     0.275 HD
HETATM    8  H           1     -27.723  -5.146 -16.565  0.00  0.00     0.275 HD
HETATM    9  H           1     -27.968  -6.568 -15.656  0.00  0.00     0.275 HD
ENDBRANCH   5   6
BRANCH   5  10
HETATM   10  C           1     -30.411  -6.011 -17.729  0.00  0.00     0.021 C 
HETATM   11  C           1     -31.415  -7.133 -17.502  0.00  0.00     0.012 C 
BRANCH  10  12
HETATM   12  C           1     -30.706  -4.865 -16.770  0.00  0.00     0.002 C 
HETATM   13  C           1     -30.914  -3.580 -17.561  0.00  0.00     0.005 C 
ENDBRANCH  10  12
ENDBRANCH   5  10
ENDBRANCH   4   5
BRANCH   3  14
HETATM   14  C           1     -26.466  -6.920 -20.323  0.00  0.00     0.181 C 
HETATM   15  C           1     -25.047  -6.621 -19.860  0.00  0.00     0.043 C 
BRANCH  14  16
HETATM   16  C           1     -26.454  -8.118 -21.241  0.00  0.00     0.196 C 
HETATM   17  O           1     -27.503  -8.774 -21.426  0.00  0.00    -0.646 OA
HETATM   18  O           1     -25.397  -8.454 -21.817  0.00  0.00    -0.646 OA
ENDBRANCH  14  16
ENDBRANCH   3  14
TORSDOF 6
ENDMDL
MODEL 9
REMARK VINA RESULT:      -5.1     14.312     15.984
REMARK  6 active torsions:
REMARK  status: ('A' for Active; 'I' for Inactive)
REMARK    1  A    between atoms: C_3  and  C_15 
REMARK    2  A    between atoms: N_8  and  C_13 
REMARK    3  A    between atoms: N_11  and  C_15 
REMARK       I    between atoms: N_11  and  C_12 
REMARK    4  A    between atoms: C_12  and  C_13 
REMARK    5  A    between atoms: C_13  and  C_16 
REMARK    6  A    between atoms: C_16  and  C_18 
ROOT
HETATM    1  H           1     -20.867  -4.865  -4.551  0.00  0.00     0.163 HD
HETATM    2  O           1     -22.009  -7.786  -4.556  0.00  0.00    -0.271 OA
HETATM    3  N           1     -21.247  -5.722  -4.932  0.00  0.00    -0.345 N 
HETATM    4  C           1     -21.555  -6.764  -4.100  0.00  0.00     0.249 C 
ENDROOT
BRANCH   4   5
HETATM    5  C           1     -21.329  -6.635  -2.614  0.00  0.00     0.278 C 
BRANCH   5   6
HETATM    6  N           1     -22.299  -5.643  -2.045  0.00  0.00    -0.066 N 
HETATM    7  H           1     -21.773  -4.845  -1.621  0.00  0.00     0.275 HD
HETATM    8  H           1     -22.880  -6.107  -1.310  0.00  0.00     0.275 HD
HETATM    9  H           1     -22.920  -5.286  -2.805  0.00  0.00     0.275 HD
ENDBRANCH   5   6
BRANCH   5  10
HETATM   10  C           1     -21.538  -7.989  -1.948  0.00  0.00     0.021 C 
HETATM   11  C           1     -20.187  -8.644  -1.692  0.00  0.00     0.012 C 
BRANCH  10  12
HETATM   12  C           1     -22.266  -7.795  -0.624  0.00  0.00     0.002 C 
HETATM   13  C           1     -21.641  -8.694   0.436  0.00  0.00     0.005 C 
ENDBRANCH  10  12
ENDBRANCH   5  10
ENDBRANCH   4   5
BRANCH   3  14
HETATM   14  C           1     -21.464  -5.845  -6.360  0.00  0.00     0.181 C 
HETATM   15  C           1     -22.232  -4.629  -6.864  0.00  0.00     0.043 C 
BRANCH  14  16
HETATM   16  C           1     -20.133  -5.927  -7.065  0.00  0.00     0.196 C 
HETATM   17  O           1     -19.415  -6.942  -6.929  0.00  0.00    -0.646 OA
HETATM   18  O           1     -19.747  -4.982  -7.786  0.00  0.00    -0.646 OA
ENDBRANCH  14  16
ENDBRANCH   3  14
TORSDOF 6
ENDMDL
