MODEL 1
REMARK VINA RESULT:      -4.9      0.000      0.000
REMARK  8 active torsions:
REMARK  status: ('A' for Active; 'I' for Inactive)
REMARK    1  A    between atoms: Se_2  and  C_3 
REMARK    2  A    between atoms: C_3  and  C_4 
REMARK    3  A    between atoms: C_4  and  C_5 
REMARK    4  A    between atoms: C_4  and  N_10 
REMARK    5  A    between atoms: C_7  and  C_8 
REMARK    6  A    between atoms: C_7  and  C_16 
REMARK    7  A    between atoms: C_7  and  N_14 
REMARK       I    between atoms: C_8  and  N_10 
REMARK    8  A    between atoms: O_9  and  C_16 
ROOT
HETATM    1  C           1     -26.346  -6.454 -19.726  0.00  0.00     0.251 C 
HETATM    2  N           1     -26.868  -6.569 -18.466  0.00  0.00    -0.345 N 
HETATM    3  O           1     -27.011  -5.975 -20.613  0.00  0.00    -0.271 OA
HETATM    4  H           1     -26.311  -6.970 -17.722  0.00  0.00     0.163 HD
ENDROOT
BRANCH   1   5
HETATM    5  C           1     -24.941  -6.927 -20.007  0.00  0.00     0.297 C 
BRANCH   5   6
HETATM    6  C           1     -24.971  -7.989 -21.098  0.00  0.00     0.206 C 
BRANCH   6   7
HETATM    7  O           1     -26.238  -8.588 -21.134  0.00  0.00    -0.398 OA
HETATM    8  H           1     -26.868  -7.892 -21.209  0.00  0.00     0.209 HD
ENDBRANCH   6   7
ENDBRANCH   5   6
BRANCH   5   9
HETATM    9  N           1     -24.352  -7.512 -18.758  0.00  0.00    -0.064 N 
HETATM   10  H           1     -24.033  -6.740 -18.128  0.00  0.00     0.275 HD
HETATM   11  H           1     -23.538  -8.117 -19.006  0.00  0.00     0.275 HD
HETATM   12  H           1     -25.076  -8.084 -18.266  0.00  0.00     0.275 HD
ENDBRANCH   5   9
ENDBRANCH   1   5
BRANCH   2  13
HETATM   13  C           1     -28.218  -6.115 -18.195  0.00  0.00     0.185 C 
BRANCH  13  14
HETATM   14  C           1     -28.937  -7.146 -17.335  0.00  0.00     0.039 C 
BRANCH  14  15
HETATM   15 Se           1     -30.864  -6.902 -17.502  0.00  0.00     0.000 Se
HETATM   16  H           1     -31.200  -8.040 -16.633  0.00  0.00     0.000 HD
ENDBRANCH  14  15
ENDBRANCH  13  14
BRANCH  13  17
HETATM   17  C           1     -28.167  -4.796 -17.463  0.00  0.00     0.196 C 
HETATM   18  O           1     -28.919  -3.859 -17.810  0.00  0.00    -0.646 OA
HETATM   19  O           1     -27.374  -4.641 -16.510  0.00  0.00    -0.646 OA
ENDBRANCH  13  17
ENDBRANCH   2  13
TORSDOF 8
ENDMDL
MODEL 2
REMARK VINA RESULT:      -4.9     10.724     12.131
REMARK  8 active torsions:
REMARK  status: ('A' for Active; 'I' for Inactive)
REMARK    1  A    between atoms: Se_2  and  C_3 
REMARK    2  A    between atoms: C_3  and  C_4 
REMARK    3  A    between atoms: C_4  and  C_5 
REMARK    4  A    between atoms: C_4  and  N_10 
REMARK    5  A    between atoms: C_7  and  C_8 
REMARK    6  A    between atoms: C_7  and  C_16 
REMARK    7  A    between atoms: C_7  and  N_14 
REMARK       I    between atoms: C_8  and  N_10 
REMARK    8  A    between atoms: O_9  and  C_16 
ROOT
HETATM    1  C           1     -21.845  -4.743  -7.775  0.00  0.00     0.251 C 
HETATM    2  N           1     -22.323  -4.822  -9.056  0.00  0.00    -0.345 N 
HETATM    3  O           1     -21.882  -3.692  -7.182  0.00  0.00    -0.271 OA
HETATM    4  H           1     -22.294  -5.703  -9.554  0.00  0.00     0.163 HD
ENDROOT
BRANCH   1   5
HETATM    5  C           1     -21.274  -5.969  -7.106  0.00  0.00     0.297 C 
BRANCH   5   6
HETATM    6  C           1     -21.435  -5.846  -5.597  0.00  0.00     0.206 C 
BRANCH   6   7
HETATM    7  O           1     -22.793  -5.939  -5.262  0.00  0.00    -0.398 OA
HETATM    8  H           1     -22.858  -6.552  -4.549  0.00  0.00     0.209 HD
ENDBRANCH   6   7
ENDBRANCH   5   6
BRANCH   5   9
HETATM    9  N           1     -19.818  -6.090  -7.445  0.00  0.00    -0.064 N 
HETATM   10  H           1     -19.244  -5.752  -6.641  0.00  0.00     0.275 HD
HETATM   11  H           1     -19.607  -5.513  -8.290  0.00  0.00     0.275 HD
HETATM   12  H           1     -19.588  -7.091  -7.640  0.00  0.00     0.275 HD
ENDBRANCH   5   9
ENDBRANCH   1   5
BRANCH   2  13
HETATM   13  C           1     -22.872  -3.644  -9.699  0.00  0.00     0.185 C 
BRANCH  13  14
HETATM   14  C           1     -22.029  -3.293 -10.918  0.00  0.00     0.039 C 
BRANCH  14  15
HETATM   15 Se           1     -20.381  -4.332 -10.890  0.00  0.00     0.000 Se
HETATM   16  H           1     -20.116  -4.169 -12.328  0.00  0.00     0.000 HD
ENDBRANCH  14  15
ENDBRANCH  13  14
BRANCH  13  17
HETATM   17  C           1     -24.291  -3.924 -10.132  0.00  0.00     0.196 C 
HETATM   18  O           1     -24.856  -4.980  -9.773  0.00  0.00    -0.646 OA
HETATM   19  O           1     -24.900  -3.100 -10.847  0.00  0.00    -0.646 OA
ENDBRANCH  13  17
ENDBRANCH   2  13
TORSDOF 8
ENDMDL
MODEL 3
REMARK VINA RESULT:      -4.6      2.402      2.781
REMARK  8 active torsions:
REMARK  status: ('A' for Active; 'I' for Inactive)
REMARK    1  A    between atoms: Se_2  and  C_3 
REMARK    2  A    between atoms: C_3  and  C_4 
REMARK    3  A    between atoms: C_4  and  C_5 
REMARK    4  A    between atoms: C_4  and  N_10 
REMARK    5  A    between atoms: C_7  and  C_8 
REMARK    6  A    between atoms: C_7  and  C_16 
REMARK    7  A    between atoms: C_7  and  N_14 
REMARK       I    between atoms: C_8  and  N_10 
REMARK    8  A    between atoms: O_9  and  C_16 
ROOT
HETATM    1  C           1     -27.184  -5.931 -17.580  0.00  0.00     0.251 C 
HETATM    2  N           1     -28.237  -5.309 -16.963  0.00  0.00    -0.345 N 
HETATM    3  O           1     -27.240  -6.187 -18.758  0.00  0.00    -0.271 OA
HETATM    4  H           1     -28.189  -5.093 -15.976  0.00  0.00     0.163 HD
ENDROOT
BRANCH   1   5
HETATM    5  C           1     -25.953  -6.294 -16.786  0.00  0.00     0.297 C 
BRANCH   5   6
HETATM    6  C           1     -24.895  -6.863 -17.722  0.00  0.00     0.206 C 
BRANCH   6   7
HETATM    7  O           1     -23.876  -7.462 -16.967  0.00  0.00    -0.398 OA
HETATM    8  H           1     -23.633  -8.255 -17.415  0.00  0.00     0.209 HD
ENDBRANCH   6   7
ENDBRANCH   5   6
BRANCH   5   9
HETATM    9  N           1     -26.311  -7.322 -15.754  0.00  0.00    -0.064 N 
HETATM   10  H           1     -26.654  -8.188 -16.228  0.00  0.00     0.275 HD
HETATM   11  H           1     -27.060  -6.945 -15.131  0.00  0.00     0.275 HD
HETATM   12  H           1     -25.466  -7.551 -15.183  0.00  0.00     0.275 HD
ENDBRANCH   5   9
ENDBRANCH   1   5
BRANCH   2  13
HETATM   13  C           1     -29.420  -4.959 -17.726  0.00  0.00     0.185 C 
BRANCH  13  14
HETATM   14  C           1     -30.583  -5.840 -17.288  0.00  0.00     0.039 C 
BRANCH  14  15
HETATM   15 Se           1     -30.511  -7.535 -18.246  0.00  0.00     0.000 Se
HETATM   16  H           1     -31.462  -7.119 -19.290  0.00  0.00     0.000 HD
ENDBRANCH  14  15
ENDBRANCH  13  14
BRANCH  13  17
HETATM   17  C           1     -29.764  -3.511 -17.481  0.00  0.00     0.196 C 
HETATM   18  O           1     -30.959  -3.142 -17.491  0.00  0.00    -0.646 OA
HETATM   19  O           1     -28.856  -2.680 -17.266  0.00  0.00    -0.646 OA
ENDBRANCH  13  17
ENDBRANCH   2  13
TORSDOF 8
ENDMDL
MODEL 4
REMARK VINA RESULT:      -4.3     10.940     12.226
REMARK  8 active torsions:
REMARK  status: ('A' for Active; 'I' for Inactive)
REMARK    1  A    between atoms: Se_2  and  C_3 
REMARK    2  A    between atoms: C_3  and  C_4 
REMARK    3  A    between atoms: C_4  and  C_5 
REMARK    4  A    between atoms: C_4  and  N_10 
REMARK    5  A    between atoms: C_7  and  C_8 
REMARK    6  A    between atoms: C_7  and  C_16 
REMARK    7  A    between atoms: C_7  and  N_14 
REMARK       I    between atoms: C_8  and  N_10 
REMARK    8  A    between atoms: O_9  and  C_16 
ROOT
HETATM    1  C           1     -21.433  -4.999  -7.985  0.00  0.00     0.251 C 
HETATM    2  N           1     -22.144  -4.244  -8.880  0.00  0.00    -0.345 N 
HETATM    3  O           1     -20.829  -5.973  -8.364  0.00  0.00    -0.271 OA
HETATM    4  H           1     -22.650  -3.427  -8.563  0.00  0.00     0.163 HD
ENDROOT
BRANCH   1   5
HETATM    5  C           1     -21.404  -4.611  -6.527  0.00  0.00     0.297 C 
BRANCH   5   6
HETATM    6  C           1     -19.988  -4.769  -5.988  0.00  0.00     0.206 C 
BRANCH   6   7
HETATM    7  O           1     -19.066  -4.451  -6.995  0.00  0.00    -0.398 OA
HETATM    8  H           1     -19.152  -3.528  -7.164  0.00  0.00     0.209 HD
ENDBRANCH   6   7
ENDBRANCH   5   6
BRANCH   5   9
HETATM    9  N           1     -22.334  -5.500  -5.756  0.00  0.00    -0.064 N 
HETATM   10  H           1     -22.770  -6.194  -6.404  0.00  0.00     0.275 HD
HETATM   11  H           1     -23.081  -4.922  -5.311  0.00  0.00     0.275 HD
HETATM   12  H           1     -21.797  -6.007  -5.016  0.00  0.00     0.275 HD
ENDBRANCH   5   9
ENDBRANCH   1   5
BRANCH   2  13
HETATM   13  C           1     -22.173  -4.616 -10.281  0.00  0.00     0.185 C 
BRANCH  13  14
HETATM   14  C           1     -23.605  -4.543 -10.795  0.00  0.00     0.039 C 
BRANCH  14  15
HETATM   15 Se           1     -24.663  -3.409  -9.615  0.00  0.00     0.000 Se
HETATM   16  H           1     -24.283  -2.156 -10.287  0.00  0.00     0.000 HD
ENDBRANCH  14  15
ENDBRANCH  13  14
BRANCH  13  17
HETATM   17  C           1     -21.306  -3.666 -11.069  0.00  0.00     0.196 C 
HETATM   18  O           1     -20.078  -3.881 -11.174  0.00  0.00    -0.646 OA
HETATM   19  O           1     -21.813  -2.665 -11.619  0.00  0.00    -0.646 OA
ENDBRANCH  13  17
ENDBRANCH   2  13
TORSDOF 8
ENDMDL
MODEL 5
REMARK VINA RESULT:      -4.2      3.605      5.540
REMARK  8 active torsions:
REMARK  status: ('A' for Active; 'I' for Inactive)
REMARK    1  A    between atoms: Se_2  and  C_3 
REMARK    2  A    between atoms: C_3  and  C_4 
REMARK    3  A    between atoms: C_4  and  C_5 
REMARK    4  A    between atoms: C_4  and  N_10 
REMARK    5  A    between atoms: C_7  and  C_8 
REMARK    6  A    between atoms: C_7  and  C_16 
REMARK    7  A    between atoms: C_7  and  N_14 
REMARK       I    between atoms: C_8  and  N_10 
REMARK    8  A    between atoms: O_9  and  C_16 
ROOT
HETATM    1  C           1     -30.657  -6.451 -17.575  0.00  0.00     0.251 C 
HETATM    2  N           1     -29.519  -5.927 -17.025  0.00  0.00    -0.345 N 
HETATM    3  O           1     -30.637  -7.554 -18.067  0.00  0.00    -0.271 OA
HETATM    4  H           1     -29.536  -5.003 -16.611  0.00  0.00     0.163 HD
ENDROOT
BRANCH   1   5
HETATM    5  C           1     -31.937  -5.652 -17.566  0.00  0.00     0.297 C 
BRANCH   5   6
HETATM    6  C           1     -31.779  -4.449 -16.645  0.00  0.00     0.206 C 
BRANCH   6   7
HETATM    7  O           1     -31.422  -3.324 -17.401  0.00  0.00    -0.398 OA
HETATM    8  H           1     -30.576  -3.501 -17.775  0.00  0.00     0.209 HD
ENDBRANCH   6   7
ENDBRANCH   5   6
BRANCH   5   9
HETATM    9  N           1     -33.061  -6.514 -17.073  0.00  0.00    -0.064 N 
HETATM   10  H           1     -32.718  -7.123 -16.297  0.00  0.00     0.275 HD
HETATM   11  H           1     -33.411  -7.111 -17.855  0.00  0.00     0.275 HD
HETATM   12  H           1     -33.837  -5.908 -16.723  0.00  0.00     0.275 HD
ENDBRANCH   5   9
ENDBRANCH   1   5
BRANCH   2  13
HETATM   13  C           1     -28.289  -6.694 -17.033  0.00  0.00     0.185 C 
BRANCH  13  14
HETATM   14  C           1     -27.204  -5.907 -17.756  0.00  0.00     0.039 C 
BRANCH  14  15
HETATM   15 Se           1     -27.171  -6.422 -19.636  0.00  0.00     0.000 Se
HETATM   16  H           1     -27.465  -5.068 -20.132  0.00  0.00     0.000 HD
ENDBRANCH  14  15
ENDBRANCH  13  14
BRANCH  13  17
HETATM   17  C           1     -27.855  -6.962 -15.613  0.00  0.00     0.196 C 
HETATM   18  O           1     -28.629  -6.708 -14.664  0.00  0.00    -0.646 OA
HETATM   19  O           1     -26.722  -7.437 -15.384  0.00  0.00    -0.646 OA
ENDBRANCH  13  17
ENDBRANCH   2  13
TORSDOF 8
ENDMDL
MODEL 6
REMARK VINA RESULT:      -4.1     12.183     13.391
REMARK  8 active torsions:
REMARK  status: ('A' for Active; 'I' for Inactive)
REMARK    1  A    between atoms: Se_2  and  C_3 
REMARK    2  A    between atoms: C_3  and  C_4 
REMARK    3  A    between atoms: C_4  and  C_5 
REMARK    4  A    between atoms: C_4  and  N_10 
REMARK    5  A    between atoms: C_7  and  C_8 
REMARK    6  A    between atoms: C_7  and  C_16 
REMARK    7  A    between atoms: C_7  and  N_14 
REMARK       I    between atoms: C_8  and  N_10 
REMARK    8  A    between atoms: O_9  and  C_16 
ROOT
HETATM    1  C           1     -22.432  -4.235  -7.885  0.00  0.00     0.251 C 
HETATM    2  N           1     -22.242  -5.441  -7.264  0.00  0.00    -0.345 N 
HETATM    3  O           1     -21.945  -3.234  -7.420  0.00  0.00    -0.271 OA
HETATM    4  H           1     -22.649  -6.281  -7.655  0.00  0.00     0.163 HD
ENDROOT
BRANCH   1   5
HETATM    5  C           1     -23.249  -4.160  -9.152  0.00  0.00     0.297 C 
BRANCH   5   6
HETATM    6  C           1     -22.381  -3.631 -10.286  0.00  0.00     0.206 C 
BRANCH   6   7
HETATM    7  O           1     -21.059  -4.062 -10.103  0.00  0.00    -0.398 OA
HETATM    8  H           1     -20.763  -4.398 -10.933  0.00  0.00     0.209 HD
ENDBRANCH   6   7
ENDBRANCH   5   6
BRANCH   5   9
HETATM    9  N           1     -24.412  -3.237  -8.941  0.00  0.00    -0.064 N 
HETATM   10  H           1     -24.240  -2.646  -8.096  0.00  0.00     0.275 HD
HETATM   11  H           1     -25.282  -3.798  -8.802  0.00  0.00     0.275 HD
HETATM   12  H           1     -24.524  -2.621  -9.778  0.00  0.00     0.275 HD
ENDBRANCH   5   9
ENDBRANCH   1   5
BRANCH   2  13
HETATM   13  C           1     -21.457  -5.514  -6.047  0.00  0.00     0.185 C 
BRANCH  13  14
HETATM   14  C           1     -22.039  -6.583  -5.132  0.00  0.00     0.039 C 
BRANCH  14  15
HETATM   15 Se           1     -21.434  -6.275  -3.305  0.00  0.00     0.000 Se
HETATM   16  H           1     -21.441  -4.809  -3.426  0.00  0.00     0.000 HD
ENDBRANCH  14  15
ENDBRANCH  13  14
BRANCH  13  17
HETATM   17  C           1     -20.031  -5.867  -6.391  0.00  0.00     0.196 C 
HETATM   18  O           1     -19.678  -7.066  -6.438  0.00  0.00    -0.646 OA
HETATM   19  O           1     -19.202  -4.962  -6.628  0.00  0.00    -0.646 OA
ENDBRANCH  13  17
ENDBRANCH   2  13
TORSDOF 8
ENDMDL
MODEL 7
REMARK VINA RESULT:      -4.1     14.198     15.339
REMARK  8 active torsions:
REMARK  status: ('A' for Active; 'I' for Inactive)
REMARK    1  A    between atoms: Se_2  and  C_3 
REMARK    2  A    between atoms: C_3  and  C_4 
REMARK    3  A    between atoms: C_4  and  C_5 
REMARK    4  A    between atoms: C_4  and  N_10 
REMARK    5  A    between atoms: C_7  and  C_8 
REMARK    6  A    between atoms: C_7  and  C_16 
REMARK    7  A    between atoms: C_7  and  N_14 
REMARK       I    between atoms: C_8  and  N_10 
REMARK    8  A    between atoms: O_9  and  C_16 
ROOT
HETATM    1  C           1     -21.609  -5.911  -5.758  0.00  0.00     0.251 C 
HETATM    2  N           1     -21.001  -6.825  -4.939  0.00  0.00    -0.345 N 
HETATM    3  O           1     -22.793  -5.700  -5.651  0.00  0.00    -0.271 OA
HETATM    4  H           1     -20.008  -7.001  -5.027  0.00  0.00     0.163 HD
ENDROOT
BRANCH   1   5
HETATM    5  C           1     -20.799  -5.168  -6.791  0.00  0.00     0.297 C 
BRANCH   5   6
HETATM    6  C           1     -21.726  -4.629  -7.872  0.00  0.00     0.206 C 
BRANCH   6   7
HETATM    7  O           1     -22.187  -3.358  -7.503  0.00  0.00    -0.398 OA
HETATM    8  H           1     -21.685  -2.730  -7.995  0.00  0.00     0.209 HD
ENDBRANCH   6   7
ENDBRANCH   5   6
BRANCH   5   9
HETATM    9  N           1     -19.801  -6.102  -7.409  0.00  0.00    -0.064 N 
HETATM   10  H           1     -19.617  -6.897  -6.757  0.00  0.00     0.275 HD
HETATM   11  H           1     -18.910  -5.589  -7.592  0.00  0.00     0.275 HD
HETATM   12  H           1     -20.182  -6.472  -8.310  0.00  0.00     0.275 HD
ENDBRANCH   5   9
ENDBRANCH   1   5
BRANCH   2  13
HETATM   13  C           1     -21.778  -7.539  -3.945  0.00  0.00     0.185 C 
BRANCH  13  14
HETATM   14  C           1     -21.312  -8.988  -3.881  0.00  0.00     0.039 C 
BRANCH  14  15
HETATM   15 Se           1     -19.593  -9.157  -4.785  0.00  0.00     0.000 Se
HETATM   16  H           1     -19.596  -7.778  -5.298  0.00  0.00     0.000 HD
ENDBRANCH  14  15
ENDBRANCH  13  14
BRANCH  13  17
HETATM   17  C           1     -21.589  -6.889  -2.597  0.00  0.00     0.196 C 
HETATM   18  O           1     -22.283  -5.899  -2.277  0.00  0.00    -0.646 OA
HETATM   19  O           1     -20.739  -7.340  -1.799  0.00  0.00    -0.646 OA
ENDBRANCH  13  17
ENDBRANCH   2  13
TORSDOF 8
ENDMDL
MODEL 8
REMARK VINA RESULT:      -3.9     13.508     14.741
REMARK  8 active torsions:
REMARK  status: ('A' for Active; 'I' for Inactive)
REMARK    1  A    between atoms: Se_2  and  C_3 
REMARK    2  A    between atoms: C_3  and  C_4 
REMARK    3  A    between atoms: C_4  and  C_5 
REMARK    4  A    between atoms: C_4  and  N_10 
REMARK    5  A    between atoms: C_7  and  C_8 
REMARK    6  A    between atoms: C_7  and  C_16 
REMARK    7  A    between atoms: C_7  and  N_14 
REMARK       I    between atoms: C_8  and  N_10 
REMARK    8  A    between atoms: O_9  and  C_16 
ROOT
HETATM    1  C           1     -20.767  -4.807  -6.220  0.00  0.00     0.251 C 
HETATM    2  N           1     -21.181  -6.112  -6.188  0.00  0.00    -0.345 N 
HETATM    3  O           1     -20.127  -4.354  -5.302  0.00  0.00    -0.271 OA
HETATM    4  H           1     -21.716  -6.493  -6.957  0.00  0.00     0.163 HD
ENDROOT
BRANCH   1   5
HETATM    5  C           1     -21.111  -3.936  -7.404  0.00  0.00     0.297 C 
BRANCH   5   6
HETATM    6  C           1     -22.382  -4.455  -8.064  0.00  0.00     0.206 C 
BRANCH   6   7
HETATM    7  O           1     -23.458  -4.325  -7.175  0.00  0.00    -0.398 OA
HETATM    8  H           1     -23.545  -5.151  -6.728  0.00  0.00     0.209 HD
ENDBRANCH   6   7
ENDBRANCH   5   6
BRANCH   5   9
HETATM    9  N           1     -19.984  -3.971  -8.393  0.00  0.00    -0.064 N 
HETATM   10  H           1     -20.169  -3.282  -9.156  0.00  0.00     0.275 HD
HETATM   11  H           1     -19.908  -4.930  -8.802  0.00  0.00     0.275 HD
HETATM   12  H           1     -19.090  -3.726  -7.911  0.00  0.00     0.275 HD
ENDBRANCH   5   9
ENDBRANCH   1   5
BRANCH   2  13
HETATM   13  C           1     -20.851  -6.950  -5.051  0.00  0.00     0.185 C 
BRANCH  13  14
HETATM   14  C           1     -22.089  -7.137  -4.183  0.00  0.00     0.039 C 
BRANCH  14  15
HETATM   15 Se           1     -21.797  -6.301  -2.446  0.00  0.00     0.000 Se
HETATM   16  H           1     -21.309  -7.533  -1.806  0.00  0.00     0.000 HD
ENDBRANCH  14  15
ENDBRANCH  13  14
BRANCH  13  17
HETATM   17  C           1     -20.371  -8.294  -5.540  0.00  0.00     0.196 C 
HETATM   18  O           1     -19.148  -8.501  -5.698  0.00  0.00    -0.646 OA
HETATM   19  O           1     -21.195  -9.200  -5.787  0.00  0.00    -0.646 OA
ENDBRANCH  13  17
ENDBRANCH   2  13
TORSDOF 8
ENDMDL
MODEL 9
REMARK VINA RESULT:      -3.9     12.627     13.839
REMARK  8 active torsions:
REMARK  status: ('A' for Active; 'I' for Inactive)
REMARK    1  A    between atoms: Se_2  and  C_3 
REMARK    2  A    between atoms: C_3  and  C_4 
REMARK    3  A    between atoms: C_4  and  C_5 
REMARK    4  A    between atoms: C_4  and  N_10 
REMARK    5  A    between atoms: C_7  and  C_8 
REMARK    6  A    between atoms: C_7  and  C_16 
REMARK    7  A    between atoms: C_7  and  N_14 
REMARK       I    between atoms: C_8  and  N_10 
REMARK    8  A    between atoms: O_9  and  C_16 
ROOT
HETATM    1  C           1     -21.262  -6.206  -6.132  0.00  0.00     0.251 C 
HETATM    2  N           1     -21.515  -5.008  -6.746  0.00  0.00    -0.345 N 
HETATM    3  O           1     -21.142  -7.209  -6.793  0.00  0.00    -0.271 OA
HETATM    4  H           1     -21.615  -4.167  -6.192  0.00  0.00     0.163 HD
ENDROOT
BRANCH   1   5
HETATM    5  C           1     -21.134  -6.271  -4.630  0.00  0.00     0.297 C 
BRANCH   5   6
HETATM    6  C           1     -20.553  -7.620  -4.227  0.00  0.00     0.206 C 
BRANCH   6   7
HETATM    7  O           1     -21.572  -8.583  -4.213  0.00  0.00    -0.398 OA
HETATM    8  H           1     -22.306  -8.212  -4.673  0.00  0.00     0.209 HD
ENDBRANCH   6   7
ENDBRANCH   5   6
BRANCH   5   9
HETATM    9  N           1     -22.488  -6.105  -4.005  0.00  0.00    -0.064 N 
HETATM   10  H           1     -22.849  -7.037  -3.703  0.00  0.00     0.275 HD
HETATM   11  H           1     -23.144  -5.686  -4.702  0.00  0.00     0.275 HD
HETATM   12  H           1     -22.413  -5.475  -3.175  0.00  0.00     0.275 HD
ENDBRANCH   5   9
ENDBRANCH   1   5
BRANCH   2  13
HETATM   13  C           1     -21.638  -4.945  -8.189  0.00  0.00     0.185 C 
BRANCH  13  14
HETATM   14  C           1     -22.748  -3.970  -8.561  0.00  0.00     0.039 C 
BRANCH  14  15
HETATM   15 Se           1     -23.665  -4.607 -10.158  0.00  0.00     0.000 Se
HETATM   16  H           1     -24.858  -5.068  -9.430  0.00  0.00     0.000 HD
ENDBRANCH  14  15
ENDBRANCH  13  14
BRANCH  13  17
HETATM   17  C           1     -20.334  -4.474  -8.784  0.00  0.00     0.196 C 
HETATM   18  O           1     -19.563  -3.756  -8.110  0.00  0.00    -0.646 OA
HETATM   19  O           1     -20.024  -4.801  -9.949  0.00  0.00    -0.646 OA
ENDBRANCH  13  17
ENDBRANCH   2  13
TORSDOF 8
ENDMDL
