MODEL 1
REMARK VINA RESULT:      -6.3      0.000      0.000
REMARK  10 active torsions:
REMARK  status: ('A' for Active; 'I' for Inactive)
REMARK    1  A    between atoms: C_1  and  C_22 
REMARK    2  A    between atoms: C_1  and  C_2 
REMARK    3  A    between atoms: C_1  and  N_6 
REMARK    4  A    between atoms: C_2  and  C_3 
REMARK    5  A    between atoms: C_3  and  Se_4 
REMARK    6  A    between atoms: C_10  and  C_12 
REMARK    7  A    between atoms: C_12  and  C_13 
REMARK    8  A    between atoms: C_13  and  C_14 
REMARK    9  A    between atoms: C_14  and  C_18 
REMARK   10  A    between atoms: C_14  and  N_21 
REMARK       I    between atoms: N_21  and  C_22 
ROOT
HETATM    1  O           1     -33.868  -1.930 -10.898  0.00  0.00    -0.271 OA
HETATM    2  H           1     -35.509  -2.127 -13.564  0.00  0.00     0.163 HD
HETATM    3  N           1     -35.069  -1.689 -12.766  0.00  0.00    -0.345 N 
HETATM    4  C           1     -34.395  -2.453 -11.852  0.00  0.00     0.249 C 
ENDROOT
BRANCH   3   5
HETATM    5  C           1     -35.153  -0.253 -12.589  0.00  0.00     0.186 C 
BRANCH   5   6
HETATM    6  C           1     -35.232   0.423 -13.951  0.00  0.00     0.046 C 
BRANCH   6   7
HETATM    7  C           1     -35.516  -0.623 -15.022  0.00  0.00     0.116 C 
BRANCH   7   8
HETATM    8  C           1     -36.448  -0.044 -16.057  0.00  0.00     0.172 C 
HETATM    9  O           1     -36.986  -0.792 -16.902  0.00  0.00    -0.648 OA
HETATM   10  O           1     -36.682   1.184 -16.071  0.00  0.00    -0.648 OA
ENDBRANCH   7   8
ENDBRANCH   6   7
ENDBRANCH   5   6
BRANCH   5  11
HETATM   11  C           1     -36.387   0.084 -11.787  0.00  0.00     0.196 C 
HETATM   12  O           1     -36.275   0.493 -10.611  0.00  0.00    -0.646 OA
HETATM   13  O           1     -37.519  -0.046 -12.299  0.00  0.00    -0.646 OA
ENDBRANCH   5  11
ENDBRANCH   3   5
BRANCH   4  14
HETATM   14  C           1     -34.307  -3.948 -12.035  0.00  0.00     0.274 C 
BRANCH  14  15
HETATM   15  C           1     -33.995  -4.608 -10.699  0.00  0.00     0.042 C 
BRANCH  15  16
HETATM   16  C           1     -33.713  -6.088 -10.916  0.00  0.00     0.003 C 
BRANCH  16  17
HETATM   17 Se           1     -34.956  -7.150  -9.854  0.00  0.00     0.000 Se
HETATM   18  C           1     -33.868  -8.766  -9.898  0.00  0.00     0.000 C 
ENDBRANCH  16  17
ENDBRANCH  15  16
ENDBRANCH  14  15
BRANCH  14  19
HETATM   19  N           1     -33.218  -4.268 -13.016  0.00  0.00    -0.067 N 
HETATM   20  H           1     -33.634  -4.418 -13.963  0.00  0.00     0.275 HD
HETATM   21  H           1     -32.541  -3.474 -13.056  0.00  0.00     0.275 HD
HETATM   22  H           1     -32.721  -5.136 -12.712  0.00  0.00     0.275 HD
ENDBRANCH  14  19
ENDBRANCH   4  14
TORSDOF 10
ENDMDL
MODEL 2
REMARK VINA RESULT:      -6.3     10.603     11.559
REMARK  10 active torsions:
REMARK  status: ('A' for Active; 'I' for Inactive)
REMARK    1  A    between atoms: C_1  and  C_22 
REMARK    2  A    between atoms: C_1  and  C_2 
REMARK    3  A    between atoms: C_1  and  N_6 
REMARK    4  A    between atoms: C_2  and  C_3 
REMARK    5  A    between atoms: C_3  and  Se_4 
REMARK    6  A    between atoms: C_10  and  C_12 
REMARK    7  A    between atoms: C_12  and  C_13 
REMARK    8  A    between atoms: C_13  and  C_14 
REMARK    9  A    between atoms: C_14  and  C_18 
REMARK   10  A    between atoms: C_14  and  N_21 
REMARK       I    between atoms: N_21  and  C_22 
ROOT
HETATM    1  O           1     -26.457  -5.851 -17.294  0.00  0.00    -0.271 OA
HETATM    2  H           1     -27.773  -7.177 -19.815  0.00  0.00     0.163 HD
HETATM    3  N           1     -27.725  -6.745 -18.901  0.00  0.00    -0.345 N 
HETATM    4  C           1     -26.515  -6.367 -18.385  0.00  0.00     0.249 C 
ENDROOT
BRANCH   3   5
HETATM    5  C           1     -28.938  -6.529 -18.137  0.00  0.00     0.186 C 
BRANCH   5   6
HETATM    6  C           1     -29.491  -5.144 -18.444  0.00  0.00     0.046 C 
BRANCH   6   7
HETATM    7  C           1     -29.873  -4.448 -17.145  0.00  0.00     0.116 C 
BRANCH   7   8
HETATM    8  C           1     -31.310  -3.994 -17.219  0.00  0.00     0.172 C 
HETATM    9  O           1     -31.613  -2.990 -17.900  0.00  0.00    -0.648 OA
HETATM   10  O           1     -32.196  -4.620 -16.600  0.00  0.00    -0.648 OA
ENDBRANCH   7   8
ENDBRANCH   6   7
ENDBRANCH   5   6
BRANCH   5  11
HETATM   11  C           1     -29.961  -7.574 -18.511  0.00  0.00     0.196 C 
HETATM   12  O           1     -29.637  -8.530 -19.247  0.00  0.00    -0.646 OA
HETATM   13  O           1     -31.132  -7.482 -18.084  0.00  0.00    -0.646 OA
ENDBRANCH   5  11
ENDBRANCH   3   5
BRANCH   4  14
HETATM   14  C           1     -25.252  -6.592 -19.179  0.00  0.00     0.274 C 
BRANCH  14  15
HETATM   15  C           1     -25.601  -7.203 -20.529  0.00  0.00     0.042 C 
BRANCH  15  16
HETATM   16  C           1     -24.521  -8.198 -20.931  0.00  0.00     0.003 C 
BRANCH  16  17
HETATM   17 Se           1     -23.826  -7.729 -22.691  0.00  0.00     0.000 Se
HETATM   18  C           1     -22.243  -8.858 -22.547  0.00  0.00     0.000 C 
ENDBRANCH  16  17
ENDBRANCH  15  16
ENDBRANCH  14  15
BRANCH  14  19
HETATM   19  N           1     -24.350  -7.525 -18.428  0.00  0.00    -0.067 N 
HETATM   20  H           1     -24.424  -7.334 -17.403  0.00  0.00     0.275 HD
HETATM   21  H           1     -24.634  -8.513 -18.618  0.00  0.00     0.275 HD
HETATM   22  H           1     -23.362  -7.380 -18.739  0.00  0.00     0.275 HD
ENDBRANCH  14  19
ENDBRANCH   4  14
TORSDOF 10
ENDMDL
MODEL 3
REMARK VINA RESULT:      -6.1     11.575     12.672
REMARK  10 active torsions:
REMARK  status: ('A' for Active; 'I' for Inactive)
REMARK    1  A    between atoms: C_1  and  C_22 
REMARK    2  A    between atoms: C_1  and  C_2 
REMARK    3  A    between atoms: C_1  and  N_6 
REMARK    4  A    between atoms: C_2  and  C_3 
REMARK    5  A    between atoms: C_3  and  Se_4 
REMARK    6  A    between atoms: C_10  and  C_12 
REMARK    7  A    between atoms: C_12  and  C_13 
REMARK    8  A    between atoms: C_13  and  C_14 
REMARK    9  A    between atoms: C_14  and  C_18 
REMARK   10  A    between atoms: C_14  and  N_21 
REMARK       I    between atoms: N_21  and  C_22 
ROOT
HETATM    1  O           1     -24.264  -6.583 -18.530  0.00  0.00    -0.271 OA
HETATM    2  H           1     -27.376  -6.956 -18.665  0.00  0.00     0.163 HD
HETATM    3  N           1     -26.482  -6.665 -18.289  0.00  0.00    -0.345 N 
HETATM    4  C           1     -25.331  -6.930 -18.979  0.00  0.00     0.249 C 
ENDROOT
BRANCH   3   5
HETATM    5  C           1     -26.423  -5.970 -17.018  0.00  0.00     0.186 C 
BRANCH   5   6
HETATM    6  C           1     -27.666  -5.107 -16.852  0.00  0.00     0.046 C 
BRANCH   6   7
HETATM    7  C           1     -28.540  -5.230 -18.093  0.00  0.00     0.116 C 
BRANCH   7   8
HETATM    8  C           1     -29.531  -6.351 -17.903  0.00  0.00     0.172 C 
HETATM    9  O           1     -29.445  -7.386 -18.599  0.00  0.00    -0.648 OA
HETATM   10  O           1     -30.438  -6.245 -17.050  0.00  0.00    -0.648 OA
ENDBRANCH   7   8
ENDBRANCH   6   7
ENDBRANCH   5   6
BRANCH   5  11
HETATM   11  C           1     -26.356  -6.978 -15.896  0.00  0.00     0.196 C 
HETATM   12  O           1     -25.247  -7.397 -15.498  0.00  0.00    -0.646 OA
HETATM   13  O           1     -27.408  -7.393 -15.366  0.00  0.00    -0.646 OA
ENDBRANCH   5  11
ENDBRANCH   3   5
BRANCH   4  14
HETATM   14  C           1     -25.393  -7.654 -20.301  0.00  0.00     0.274 C 
BRANCH  14  15
HETATM   15  C           1     -24.861  -6.748 -21.404  0.00  0.00     0.042 C 
BRANCH  15  16
HETATM   16  C           1     -24.000  -7.562 -22.360  0.00  0.00     0.003 C 
BRANCH  16  17
HETATM   17 Se           1     -22.637  -8.523 -21.350  0.00  0.00     0.000 Se
HETATM   18  C           1     -21.922  -9.467 -22.898  0.00  0.00     0.000 C 
ENDBRANCH  16  17
ENDBRANCH  15  16
ENDBRANCH  14  15
BRANCH  14  19
HETATM   19  N           1     -26.815  -8.024 -20.602  0.00  0.00    -0.067 N 
HETATM   20  H           1     -26.928  -8.169 -21.631  0.00  0.00     0.275 HD
HETATM   21  H           1     -27.060  -8.905 -20.098  0.00  0.00     0.275 HD
HETATM   22  H           1     -27.449  -7.254 -20.287  0.00  0.00     0.275 HD
ENDBRANCH  14  19
ENDBRANCH   4  14
TORSDOF 10
ENDMDL
MODEL 4
REMARK VINA RESULT:      -6.0      1.871      3.645
REMARK  10 active torsions:
REMARK  status: ('A' for Active; 'I' for Inactive)
REMARK    1  A    between atoms: C_1  and  C_22 
REMARK    2  A    between atoms: C_1  and  C_2 
REMARK    3  A    between atoms: C_1  and  N_6 
REMARK    4  A    between atoms: C_2  and  C_3 
REMARK    5  A    between atoms: C_3  and  Se_4 
REMARK    6  A    between atoms: C_10  and  C_12 
REMARK    7  A    between atoms: C_12  and  C_13 
REMARK    8  A    between atoms: C_13  and  C_14 
REMARK    9  A    between atoms: C_14  and  C_18 
REMARK   10  A    between atoms: C_14  and  N_21 
REMARK       I    between atoms: N_21  and  C_22 
ROOT
HETATM    1  O           1     -34.673  -2.675 -13.261  0.00  0.00    -0.271 OA
HETATM    2  H           1     -35.246  -0.288 -11.308  0.00  0.00     0.163 HD
HETATM    3  N           1     -35.364  -0.887 -12.114  0.00  0.00    -0.345 N 
HETATM    4  C           1     -34.533  -1.959 -12.298  0.00  0.00     0.249 C 
ENDROOT
BRANCH   3   5
HETATM    5  C           1     -36.412  -0.609 -13.077  0.00  0.00     0.186 C 
BRANCH   5   6
HETATM    6  C           1     -37.615  -0.012 -12.359  0.00  0.00     0.046 C 
BRANCH   6   7
HETATM    7  C           1     -37.690  -0.568 -10.943  0.00  0.00     0.116 C 
BRANCH   7   8
HETATM    8  C           1     -37.279   0.500  -9.959  0.00  0.00     0.172 C 
HETATM    9  O           1     -36.171   0.427  -9.385  0.00  0.00    -0.648 OA
HETATM   10  O           1     -38.047   1.456  -9.718  0.00  0.00    -0.648 OA
ENDBRANCH   7   8
ENDBRANCH   6   7
ENDBRANCH   5   6
BRANCH   5  11
HETATM   11  C           1     -35.903   0.370 -14.107  0.00  0.00     0.196 C 
HETATM   12  O           1     -35.025   1.204 -13.796  0.00  0.00    -0.646 OA
HETATM   13  O           1     -36.360   0.347 -15.269  0.00  0.00    -0.646 OA
ENDBRANCH   5  11
ENDBRANCH   3   5
BRANCH   4  14
HETATM   14  C           1     -33.441  -2.248 -11.297  0.00  0.00     0.274 C 
BRANCH  14  15
HETATM   15  C           1     -33.067  -3.722 -11.363  0.00  0.00     0.042 C 
BRANCH  15  16
HETATM   16  C           1     -33.987  -4.521 -10.449  0.00  0.00     0.003 C 
BRANCH  16  17
HETATM   17 Se           1     -34.695  -6.056 -11.420  0.00  0.00     0.000 Se
HETATM   18  C           1     -34.824  -7.199  -9.846  0.00  0.00     0.000 C 
ENDBRANCH  16  17
ENDBRANCH  15  16
ENDBRANCH  14  15
BRANCH  14  19
HETATM   19  N           1     -33.929  -1.918  -9.917  0.00  0.00    -0.067 N 
HETATM   20  H           1     -34.708  -1.225  -9.978  0.00  0.00     0.275 HD
HETATM   21  H           1     -34.273  -2.788  -9.452  0.00  0.00     0.275 HD
HETATM   22  H           1     -33.143  -1.512  -9.359  0.00  0.00     0.275 HD
ENDBRANCH  14  19
ENDBRANCH   4  14
TORSDOF 10
ENDMDL
MODEL 5
REMARK VINA RESULT:      -5.7     13.389     15.451
REMARK  10 active torsions:
REMARK  status: ('A' for Active; 'I' for Inactive)
REMARK    1  A    between atoms: C_1  and  C_22 
REMARK    2  A    between atoms: C_1  and  C_2 
REMARK    3  A    between atoms: C_1  and  N_6 
REMARK    4  A    between atoms: C_2  and  C_3 
REMARK    5  A    between atoms: C_3  and  Se_4 
REMARK    6  A    between atoms: C_10  and  C_12 
REMARK    7  A    between atoms: C_12  and  C_13 
REMARK    8  A    between atoms: C_13  and  C_14 
REMARK    9  A    between atoms: C_14  and  C_18 
REMARK   10  A    between atoms: C_14  and  N_21 
REMARK       I    between atoms: N_21  and  C_22 
ROOT
HETATM    1  O           1     -21.174  -7.372  -6.531  0.00  0.00    -0.271 OA
HETATM    2  H           1     -21.436  -4.310  -5.901  0.00  0.00     0.163 HD
HETATM    3  N           1     -21.398  -5.151  -6.462  0.00  0.00    -0.345 N 
HETATM    4  C           1     -21.220  -6.367  -5.861  0.00  0.00     0.249 C 
ENDROOT
BRANCH   3   5
HETATM    5  C           1     -21.529  -5.067  -7.904  0.00  0.00     0.186 C 
BRANCH   5   6
HETATM    6  C           1     -22.594  -4.038  -8.258  0.00  0.00     0.046 C 
BRANCH   6   7
HETATM    7  C           1     -23.535  -4.620  -9.304  0.00  0.00     0.116 C 
BRANCH   7   8
HETATM    8  C           1     -23.769  -3.602 -10.393  0.00  0.00     0.172 C 
HETATM    9  O           1     -24.928  -3.200 -10.634  0.00  0.00    -0.648 OA
HETATM   10  O           1     -22.805  -3.162 -11.054  0.00  0.00    -0.648 OA
ENDBRANCH   7   8
ENDBRANCH   6   7
ENDBRANCH   5   6
BRANCH   5  11
HETATM   11  C           1     -20.208  -4.653  -8.506  0.00  0.00     0.196 C 
HETATM   12  O           1     -20.121  -4.439  -9.735  0.00  0.00    -0.646 OA
HETATM   13  O           1     -19.202  -4.524  -7.777  0.00  0.00    -0.646 OA
ENDBRANCH   5  11
ENDBRANCH   3   5
BRANCH   4  14
HETATM   14  C           1     -21.083  -6.455  -4.361  0.00  0.00     0.274 C 
BRANCH  14  15
HETATM   15  C           1     -20.715  -7.878  -3.965  0.00  0.00     0.042 C 
BRANCH  15  16
HETATM   16  C           1     -20.417  -7.930  -2.473  0.00  0.00     0.003 C 
BRANCH  16  17
HETATM   17 Se           1     -21.737  -9.055  -1.584  0.00  0.00     0.000 Se
HETATM   18  C           1     -22.423  -7.631  -0.443  0.00  0.00     0.000 C 
ENDBRANCH  16  17
ENDBRANCH  15  16
ENDBRANCH  14  15
BRANCH  14  19
HETATM   19  N           1     -22.385  -6.079  -3.718  0.00  0.00    -0.067 N 
HETATM   20  H           1     -22.926  -6.944  -3.493  0.00  0.00     0.275 HD
HETATM   21  H           1     -22.199  -5.548  -2.838  0.00  0.00     0.275 HD
HETATM   22  H           1     -22.939  -5.483  -4.375  0.00  0.00     0.275 HD
ENDBRANCH  14  19
ENDBRANCH   4  14
TORSDOF 10
ENDMDL
MODEL 6
REMARK VINA RESULT:      -5.6     10.002     11.017
REMARK  10 active torsions:
REMARK  status: ('A' for Active; 'I' for Inactive)
REMARK    1  A    between atoms: C_1  and  C_22 
REMARK    2  A    between atoms: C_1  and  C_2 
REMARK    3  A    between atoms: C_1  and  N_6 
REMARK    4  A    between atoms: C_2  and  C_3 
REMARK    5  A    between atoms: C_3  and  Se_4 
REMARK    6  A    between atoms: C_10  and  C_12 
REMARK    7  A    between atoms: C_12  and  C_13 
REMARK    8  A    between atoms: C_13  and  C_14 
REMARK    9  A    between atoms: C_14  and  C_18 
REMARK   10  A    between atoms: C_14  and  N_21 
REMARK       I    between atoms: N_21  and  C_22 
ROOT
HETATM    1  O           1     -25.574  -5.716 -15.810  0.00  0.00    -0.271 OA
HETATM    2  H           1     -26.888  -6.712 -18.479  0.00  0.00     0.163 HD
HETATM    3  N           1     -26.834  -6.281 -17.565  0.00  0.00    -0.345 N 
HETATM    4  C           1     -25.638  -6.231 -16.902  0.00  0.00     0.249 C 
ENDROOT
BRANCH   3   5
HETATM    5  C           1     -28.024  -5.717 -16.959  0.00  0.00     0.186 C 
BRANCH   5   6
HETATM    6  C           1     -28.966  -5.227 -18.050  0.00  0.00     0.046 C 
BRANCH   6   7
HETATM    7  C           1     -30.345  -4.972 -17.455  0.00  0.00     0.116 C 
BRANCH   7   8
HETATM    8  C           1     -30.649  -3.495 -17.503  0.00  0.00     0.172 C 
HETATM    9  O           1     -29.718  -2.663 -17.438  0.00  0.00    -0.648 OA
HETATM   10  O           1     -31.831  -3.103 -17.608  0.00  0.00    -0.648 OA
ENDBRANCH   7   8
ENDBRANCH   6   7
ENDBRANCH   5   6
BRANCH   5  11
HETATM   11  C           1     -28.716  -6.773 -16.132  0.00  0.00     0.196 C 
HETATM   12  O           1     -29.116  -7.827 -16.673  0.00  0.00    -0.646 OA
HETATM   13  O           1     -28.890  -6.594 -14.908  0.00  0.00    -0.646 OA
ENDBRANCH   5  11
ENDBRANCH   3   5
BRANCH   4  14
HETATM   14  C           1     -24.400  -6.818 -17.532  0.00  0.00     0.274 C 
BRANCH  14  15
HETATM   15  C           1     -24.681  -7.159 -18.988  0.00  0.00     0.042 C 
BRANCH  15  16
HETATM   16  C           1     -23.395  -7.619 -19.661  0.00  0.00     0.003 C 
BRANCH  16  17
HETATM   17 Se           1     -23.779  -8.175 -21.490  0.00  0.00     0.000 Se
HETATM   18  C           1     -25.716  -8.115 -21.275  0.00  0.00     0.000 C 
ENDBRANCH  16  17
ENDBRANCH  15  16
ENDBRANCH  14  15
BRANCH  14  19
HETATM   19  N           1     -24.007  -8.064 -16.795  0.00  0.00    -0.067 N 
HETATM   20  H           1     -22.965  -8.131 -16.751  0.00  0.00     0.275 HD
HETATM   21  H           1     -24.394  -8.031 -15.824  0.00  0.00     0.275 HD
HETATM   22  H           1     -24.389  -8.899 -17.295  0.00  0.00     0.275 HD
ENDBRANCH  14  19
ENDBRANCH   4  14
TORSDOF 10
ENDMDL
MODEL 7
REMARK VINA RESULT:      -5.4     14.959     17.804
REMARK  10 active torsions:
REMARK  status: ('A' for Active; 'I' for Inactive)
REMARK    1  A    between atoms: C_1  and  C_22 
REMARK    2  A    between atoms: C_1  and  C_2 
REMARK    3  A    between atoms: C_1  and  N_6 
REMARK    4  A    between atoms: C_2  and  C_3 
REMARK    5  A    between atoms: C_3  and  Se_4 
REMARK    6  A    between atoms: C_10  and  C_12 
REMARK    7  A    between atoms: C_12  and  C_13 
REMARK    8  A    between atoms: C_13  and  C_14 
REMARK    9  A    between atoms: C_14  and  C_18 
REMARK   10  A    between atoms: C_14  and  N_21 
REMARK       I    between atoms: N_21  and  C_22 
ROOT
HETATM    1  O           1     -19.652  -7.827  -5.679  0.00  0.00    -0.271 OA
HETATM    2  H           1     -22.529  -7.750  -4.429  0.00  0.00     0.163 HD
HETATM    3  N           1     -21.581  -8.071  -4.580  0.00  0.00    -0.345 N 
HETATM    4  C           1     -20.784  -7.444  -5.498  0.00  0.00     0.249 C 
ENDROOT
BRANCH   3   5
HETATM    5  C           1     -21.068  -9.197  -3.824  0.00  0.00     0.186 C 
BRANCH   5   6
HETATM    6  C           1     -21.468  -9.051  -2.362  0.00  0.00     0.046 C 
BRANCH   6   7
HETATM    7  C           1     -20.958  -7.720  -1.825  0.00  0.00     0.116 C 
BRANCH   7   8
HETATM    8  C           1     -22.120  -6.782  -1.615  0.00  0.00     0.172 C 
HETATM    9  O           1     -22.789  -6.842  -0.561  0.00  0.00    -0.648 OA
HETATM   10  O           1     -22.415  -5.945  -2.495  0.00  0.00    -0.648 OA
ENDBRANCH   7   8
ENDBRANCH   6   7
ENDBRANCH   5   6
BRANCH   5  11
HETATM   11  C           1     -21.643 -10.478  -4.377  0.00  0.00     0.196 C 
HETATM   12  O           1     -22.567 -11.062  -3.771  0.00  0.00    -0.646 OA
HETATM   13  O           1     -21.194 -10.956  -5.441  0.00  0.00    -0.646 OA
ENDBRANCH   5  11
ENDBRANCH   3   5
BRANCH   4  14
HETATM   14  C           1     -21.317  -6.272  -6.286  0.00  0.00     0.274 C 
BRANCH  14  15
HETATM   15  C           1     -20.239  -5.204  -6.403  0.00  0.00     0.042 C 
BRANCH  15  16
HETATM   16  C           1     -20.816  -3.972  -7.088  0.00  0.00     0.003 C 
BRANCH  16  17
HETATM   17 Se           1     -21.237  -4.397  -8.943  0.00  0.00     0.000 Se
HETATM   18  C           1     -23.140  -4.012  -8.771  0.00  0.00     0.000 C 
ENDBRANCH  16  17
ENDBRANCH  15  16
ENDBRANCH  14  15
BRANCH  14  19
HETATM   19  N           1     -22.512  -5.700  -5.583  0.00  0.00    -0.067 N 
HETATM   20  H           1     -22.900  -4.907  -6.141  0.00  0.00     0.275 HD
HETATM   21  H           1     -23.242  -6.440  -5.478  0.00  0.00     0.275 HD
HETATM   22  H           1     -22.227  -5.354  -4.638  0.00  0.00     0.275 HD
ENDBRANCH  14  19
ENDBRANCH   4  14
TORSDOF 10
ENDMDL
MODEL 8
REMARK VINA RESULT:      -5.2      9.368     10.895
REMARK  10 active torsions:
REMARK  status: ('A' for Active; 'I' for Inactive)
REMARK    1  A    between atoms: C_1  and  C_22 
REMARK    2  A    between atoms: C_1  and  C_2 
REMARK    3  A    between atoms: C_1  and  N_6 
REMARK    4  A    between atoms: C_2  and  C_3 
REMARK    5  A    between atoms: C_3  and  Se_4 
REMARK    6  A    between atoms: C_10  and  C_12 
REMARK    7  A    between atoms: C_12  and  C_13 
REMARK    8  A    between atoms: C_13  and  C_14 
REMARK    9  A    between atoms: C_14  and  C_18 
REMARK   10  A    between atoms: C_14  and  N_21 
REMARK       I    between atoms: N_21  and  C_22 
ROOT
HETATM    1  O           1     -29.528  -6.690 -16.706  0.00  0.00    -0.271 OA
HETATM    2  H           1     -27.576  -4.487 -17.793  0.00  0.00     0.163 HD
HETATM    3  N           1     -27.882  -5.406 -17.499  0.00  0.00    -0.345 N 
HETATM    4  C           1     -29.163  -5.592 -17.057  0.00  0.00     0.249 C 
ENDROOT
BRANCH   3   5
HETATM    5  C           1     -26.961  -6.525 -17.546  0.00  0.00     0.186 C 
BRANCH   5   6
HETATM    6  C           1     -26.047  -6.379 -18.755  0.00  0.00     0.046 C 
BRANCH   6   7
HETATM    7  C           1     -26.813  -6.744 -20.020  0.00  0.00     0.116 C 
BRANCH   7   8
HETATM    8  C           1     -26.052  -7.798 -20.785  0.00  0.00     0.172 C 
HETATM    9  O           1     -26.670  -8.635 -21.478  0.00  0.00    -0.648 OA
HETATM   10  O           1     -24.805  -7.835 -20.725  0.00  0.00    -0.648 OA
ENDBRANCH   7   8
ENDBRANCH   6   7
ENDBRANCH   5   6
BRANCH   5  11
HETATM   11  C           1     -26.130  -6.546 -16.286  0.00  0.00     0.196 C 
HETATM   12  O           1     -26.284  -7.463 -15.451  0.00  0.00    -0.646 OA
HETATM   13  O           1     -25.287  -5.647 -16.078  0.00  0.00    -0.646 OA
ENDBRANCH   5  11
ENDBRANCH   3   5
BRANCH   4  14
HETATM   14  C           1     -30.121  -4.428 -17.007  0.00  0.00     0.274 C 
BRANCH  14  15
HETATM   15  C           1     -31.552  -4.947 -16.958  0.00  0.00     0.042 C 
BRANCH  15  16
HETATM   16  C           1     -32.517  -3.808 -17.255  0.00  0.00     0.003 C 
BRANCH  16  17
HETATM   17 Se           1     -34.022  -3.890 -16.018  0.00  0.00     0.000 Se
HETATM   18  C           1     -34.870  -2.267 -16.685  0.00  0.00     0.000 C 
ENDBRANCH  16  17
ENDBRANCH  15  16
ENDBRANCH  14  15
BRANCH  14  19
HETATM   19  N           1     -29.940  -3.579 -18.230  0.00  0.00    -0.067 N 
HETATM   20  H           1     -30.746  -2.919 -18.320  0.00  0.00     0.275 HD
HETATM   21  H           1     -29.052  -3.035 -18.148  0.00  0.00     0.275 HD
HETATM   22  H           1     -29.897  -4.193 -19.076  0.00  0.00     0.275 HD
ENDBRANCH  14  19
ENDBRANCH   4  14
TORSDOF 10
ENDMDL
MODEL 9
REMARK VINA RESULT:      -5.1     10.176     11.533
REMARK  10 active torsions:
REMARK  status: ('A' for Active; 'I' for Inactive)
REMARK    1  A    between atoms: C_1  and  C_22 
REMARK    2  A    between atoms: C_1  and  C_2 
REMARK    3  A    between atoms: C_1  and  N_6 
REMARK    4  A    between atoms: C_2  and  C_3 
REMARK    5  A    between atoms: C_3  and  Se_4 
REMARK    6  A    between atoms: C_10  and  C_12 
REMARK    7  A    between atoms: C_12  and  C_13 
REMARK    8  A    between atoms: C_13  and  C_14 
REMARK    9  A    between atoms: C_14  and  C_18 
REMARK   10  A    between atoms: C_14  and  N_21 
REMARK       I    between atoms: N_21  and  C_22 
ROOT
HETATM    1  O           1     -29.254  -7.580 -18.856  0.00  0.00    -0.271 OA
HETATM    2  H           1     -27.178  -5.327 -18.179  0.00  0.00     0.163 HD
HETATM    3  N           1     -28.034  -5.863 -18.113  0.00  0.00    -0.345 N 
HETATM    4  C           1     -28.232  -6.940 -18.934  0.00  0.00     0.249 C 
ENDROOT
BRANCH   3   5
HETATM    5  C           1     -29.051  -5.488 -17.150  0.00  0.00     0.186 C 
BRANCH   5   6
HETATM    6  C           1     -28.501  -5.655 -15.740  0.00  0.00     0.046 C 
BRANCH   6   7
HETATM    7  C           1     -27.703  -6.950 -15.656  0.00  0.00     0.116 C 
BRANCH   7   8
HETATM    8  C           1     -26.228  -6.636 -15.710  0.00  0.00     0.172 C 
HETATM    9  O           1     -25.396  -7.477 -15.306  0.00  0.00    -0.648 OA
HETATM   10  O           1     -25.839  -5.537 -16.159  0.00  0.00    -0.648 OA
ENDBRANCH   7   8
ENDBRANCH   6   7
ENDBRANCH   5   6
BRANCH   5  11
HETATM   11  C           1     -29.446  -4.048 -17.370  0.00  0.00     0.196 C 
HETATM   12  O           1     -28.595  -3.141 -17.245  0.00  0.00    -0.646 OA
HETATM   13  O           1     -30.624  -3.763 -17.675  0.00  0.00    -0.646 OA
ENDBRANCH   5  11
ENDBRANCH   3   5
BRANCH   4  14
HETATM   14  C           1     -27.174  -7.329 -19.937  0.00  0.00     0.274 C 
BRANCH  14  15
HETATM   15  C           1     -26.782  -6.112 -20.764  0.00  0.00     0.042 C 
BRANCH  15  16
HETATM   16  C           1     -25.292  -6.165 -21.071  0.00  0.00     0.003 C 
BRANCH  16  17
HETATM   17 Se           1     -24.388  -7.248 -19.726  0.00  0.00     0.000 Se
HETATM   18  C           1     -23.373  -8.298 -21.017  0.00  0.00     0.000 C 
ENDBRANCH  16  17
ENDBRANCH  15  16
ENDBRANCH  14  15
BRANCH  14  19
HETATM   19  N           1     -27.715  -8.395 -20.844  0.00  0.00    -0.067 N 
HETATM   20  H           1     -27.564  -8.116 -21.840  0.00  0.00     0.275 HD
HETATM   21  H           1     -27.219  -9.296 -20.657  0.00  0.00     0.275 HD
HETATM   22  H           1     -28.738  -8.517 -20.667  0.00  0.00     0.275 HD
ENDBRANCH  14  19
ENDBRANCH   4  14
TORSDOF 10
ENDMDL
