MODEL 1
REMARK VINA RESULT:      -7.3      0.000      0.000
REMARK  12 active torsions:
REMARK  status: ('A' for Active; 'I' for Inactive)
REMARK    1  A    between atoms: C_1  and  C_22 
REMARK    2  A    between atoms: C_1  and  C_10 
REMARK    3  A    between atoms: C_2  and  O_25 
REMARK    4  A    between atoms: N_3  and  C_10 
REMARK    5  A    between atoms: C_6  and  C_20 
REMARK    6  A    between atoms: C_6  and  C_24 
REMARK    7  A    between atoms: C_8  and  C_24 
REMARK    8  A    between atoms: C_9  and  C_13 
REMARK    9  A    between atoms: C_9  and  C_23 
REMARK   10  A    between atoms: C_9  and  N_18 
REMARK       I    between atoms: C_13  and  N_15 
REMARK   11  A    between atoms: N_15  and  C_24 
REMARK   12  A    between atoms: C_22  and  C_23 
ROOT
HETATM    1  C           1     -21.273  -6.324  -4.439  0.00  0.00     0.249 C 
HETATM    2  O           1     -21.462  -7.379  -4.995  0.00  0.00    -0.271 OA
HETATM    3  N           1     -21.063  -5.190  -5.175  0.00  0.00    -0.344 N 
HETATM    4  H           1     -20.904  -4.306  -4.709  0.00  0.00     0.163 HD
ENDROOT
BRANCH   1   5
HETATM    5  C           1     -21.267  -6.257  -2.931  0.00  0.00     0.274 C 
BRANCH   5   6
HETATM    6  C           1     -20.898  -7.621  -2.363  0.00  0.00     0.042 C 
BRANCH   6   7
HETATM    7  C           1     -21.442  -7.747  -0.947  0.00  0.00     0.004 C 
BRANCH   7   8
HETATM    8  C           1     -21.725  -9.212  -0.639  0.00  0.00     0.027 C 
BRANCH   8   9
HETATM    9  C           1     -23.105  -9.342  -0.010  0.00  0.00     0.229 C 
BRANCH   9  10
HETATM   10  N           1     -23.503  -8.031   0.601  0.00  0.00    -0.079 N 
HETATM   11  H           1     -23.645  -7.323  -0.155  0.00  0.00     0.274 HD
HETATM   12  H           1     -24.392  -8.152   1.135  0.00  0.00     0.274 HD
HETATM   13  H           1     -22.748  -7.705   1.246  0.00  0.00     0.274 HD
ENDBRANCH   9  10
ENDBRANCH   8   9
ENDBRANCH   7   8
ENDBRANCH   6   7
ENDBRANCH   5   6
BRANCH   5  14
HETATM   14  N           1     -22.631  -5.867  -2.444  0.00  0.00    -0.067 N 
HETATM   15  H           1     -22.752  -6.183  -1.455  0.00  0.00     0.275 HD
HETATM   16  H           1     -22.733  -4.828  -2.492  0.00  0.00     0.275 HD
HETATM   17  H           1     -23.358  -6.317  -3.045  0.00  0.00     0.275 HD
ENDBRANCH   5  14
ENDBRANCH   1   5
BRANCH   3  18
HETATM   18  C           1     -21.068  -5.254  -6.623  0.00  0.00     0.189 C 
BRANCH  18  19
HETATM   19  C           1     -21.556  -3.926  -7.188  0.00  0.00     0.074 C 
BRANCH  19  20
HETATM   20  C           1     -22.105  -4.141  -8.564  0.00  0.00    -0.056 A 
HETATM   21  C           1     -21.249  -4.133  -9.666  0.00  0.00     0.010 A 
HETATM   22  C           1     -21.761  -4.333 -10.948  0.00  0.00     0.037 A 
HETATM   23  C           1     -23.128  -4.542 -11.128  0.00  0.00     0.065 A 
HETATM   24  C           1     -23.983  -4.551 -10.027  0.00  0.00     0.037 A 
HETATM   25  C           1     -23.472  -4.350  -8.744  0.00  0.00     0.010 A 
BRANCH  23  26
HETATM   26  O           1     -23.625  -4.737 -12.374  0.00  0.00    -0.361 OA
HETATM   27  H           1     -24.129  -5.568 -12.369  0.00  0.00     0.217 HD
ENDBRANCH  23  26
ENDBRANCH  19  20
ENDBRANCH  18  19
BRANCH  18  28
HETATM   28  C           1     -19.669  -5.527  -7.119  0.00  0.00     0.197 C 
HETATM   29  O           1     -18.855  -4.587  -7.243  0.00  0.00    -0.646 OA
HETATM   30  O           1     -19.324  -6.694  -7.405  0.00  0.00    -0.646 OA
ENDBRANCH  18  28
ENDBRANCH   3  18
TORSDOF 12
ENDMDL
MODEL 2
REMARK VINA RESULT:      -7.3     13.713     16.077
REMARK  12 active torsions:
REMARK  status: ('A' for Active; 'I' for Inactive)
REMARK    1  A    between atoms: C_1  and  C_22 
REMARK    2  A    between atoms: C_1  and  C_10 
REMARK    3  A    between atoms: C_2  and  O_25 
REMARK    4  A    between atoms: N_3  and  C_10 
REMARK    5  A    between atoms: C_6  and  C_20 
REMARK    6  A    between atoms: C_6  and  C_24 
REMARK    7  A    between atoms: C_8  and  C_24 
REMARK    8  A    between atoms: C_9  and  C_13 
REMARK    9  A    between atoms: C_9  and  C_23 
REMARK   10  A    between atoms: C_9  and  N_18 
REMARK       I    between atoms: C_13  and  N_15 
REMARK   11  A    between atoms: N_15  and  C_24 
REMARK   12  A    between atoms: C_22  and  C_23 
ROOT
HETATM    1  C           1     -35.007  -2.531 -11.202  0.00  0.00     0.249 C 
HETATM    2  O           1     -34.008  -1.856 -11.131  0.00  0.00    -0.271 OA
HETATM    3  N           1     -36.235  -1.959 -11.003  0.00  0.00    -0.344 N 
HETATM    4  H           1     -37.072  -2.524 -11.063  0.00  0.00     0.163 HD
ENDROOT
BRANCH   1   5
HETATM    5  C           1     -34.902  -4.005 -11.507  0.00  0.00     0.274 C 
BRANCH   5   6
HETATM    6  C           1     -34.023  -4.679 -10.462  0.00  0.00     0.042 C 
BRANCH   6   7
HETATM    7  C           1     -33.823  -6.142 -10.832  0.00  0.00     0.004 C 
BRANCH   7   8
HETATM    8  C           1     -34.910  -6.986 -10.177  0.00  0.00     0.027 C 
BRANCH   8   9
HETATM    9  C           1     -34.271  -8.153  -9.438  0.00  0.00     0.229 C 
BRANCH   9  10
HETATM   10  N           1     -33.468  -8.976 -10.402  0.00  0.00    -0.079 N 
HETATM   11  H           1     -33.717  -9.986 -10.291  0.00  0.00     0.274 HD
HETATM   12  H           1     -33.678  -8.672 -11.378  0.00  0.00     0.274 HD
HETATM   13  H           1     -32.450  -8.846 -10.206  0.00  0.00     0.274 HD
ENDBRANCH   9  10
ENDBRANCH   8   9
ENDBRANCH   7   8
ENDBRANCH   6   7
ENDBRANCH   5   6
BRANCH   5  14
HETATM   14  N           1     -34.293  -4.190 -12.866  0.00  0.00    -0.067 N 
HETATM   15  H           1     -33.467  -4.828 -12.793  0.00  0.00     0.275 HD
HETATM   16  H           1     -35.001  -4.611 -13.509  0.00  0.00     0.275 HD
HETATM   17  H           1     -33.986  -3.265 -13.240  0.00  0.00     0.275 HD
ENDBRANCH   5  14
ENDBRANCH   1   5
BRANCH   3  18
HETATM   18  C           1     -36.337  -0.543 -10.710  0.00  0.00     0.189 C 
BRANCH  18  19
HETATM   19  C           1     -37.458   0.068 -11.541  0.00  0.00     0.074 C 
BRANCH  19  20
HETATM   20  C           1     -37.094   0.008 -12.992  0.00  0.00    -0.056 A 
HETATM   21  C           1     -38.075  -0.260 -13.947  0.00  0.00     0.010 A 
HETATM   22  C           1     -37.734  -0.316 -15.299  0.00  0.00     0.037 A 
HETATM   23  C           1     -36.413  -0.104 -15.695  0.00  0.00     0.065 A 
HETATM   24  C           1     -35.434   0.164 -14.740  0.00  0.00     0.037 A 
HETATM   25  C           1     -35.773   0.220 -13.387  0.00  0.00     0.010 A 
BRANCH  23  26
HETATM   26  O           1     -36.083  -0.158 -17.008  0.00  0.00    -0.361 OA
HETATM   27  H           1     -35.520   0.608 -17.207  0.00  0.00     0.217 HD
ENDBRANCH  23  26
ENDBRANCH  19  20
ENDBRANCH  18  19
BRANCH  18  28
HETATM   28  C           1     -36.637  -0.355  -9.243  0.00  0.00     0.197 C 
HETATM   29  O           1     -35.729  -0.003  -8.459  0.00  0.00    -0.646 OA
HETATM   30  O           1     -37.794  -0.551  -8.812  0.00  0.00    -0.646 OA
ENDBRANCH  18  28
ENDBRANCH   3  18
TORSDOF 12
ENDMDL
MODEL 3
REMARK VINA RESULT:      -7.2      1.272      1.805
REMARK  12 active torsions:
REMARK  status: ('A' for Active; 'I' for Inactive)
REMARK    1  A    between atoms: C_1  and  C_22 
REMARK    2  A    between atoms: C_1  and  C_10 
REMARK    3  A    between atoms: C_2  and  O_25 
REMARK    4  A    between atoms: N_3  and  C_10 
REMARK    5  A    between atoms: C_6  and  C_20 
REMARK    6  A    between atoms: C_6  and  C_24 
REMARK    7  A    between atoms: C_8  and  C_24 
REMARK    8  A    between atoms: C_9  and  C_13 
REMARK    9  A    between atoms: C_9  and  C_23 
REMARK   10  A    between atoms: C_9  and  N_18 
REMARK       I    between atoms: C_13  and  N_15 
REMARK   11  A    between atoms: N_15  and  C_24 
REMARK   12  A    between atoms: C_22  and  C_23 
ROOT
HETATM    1  C           1     -21.411  -6.923  -5.557  0.00  0.00     0.249 C 
HETATM    2  O           1     -20.683  -7.612  -6.231  0.00  0.00    -0.271 OA
HETATM    3  N           1     -21.645  -5.622  -5.912  0.00  0.00    -0.344 N 
HETATM    4  H           1     -22.255  -5.045  -5.348  0.00  0.00     0.163 HD
ENDROOT
BRANCH   1   5
HETATM    5  C           1     -22.063  -7.496  -4.322  0.00  0.00     0.274 C 
BRANCH   5   6
HETATM    6  C           1     -21.844  -6.552  -3.147  0.00  0.00     0.042 C 
BRANCH   6   7
HETATM    7  C           1     -21.497  -7.358  -1.903  0.00  0.00     0.004 C 
BRANCH   7   8
HETATM    8  C           1     -22.430  -6.966  -0.765  0.00  0.00     0.027 C 
BRANCH   8   9
HETATM    9  C           1     -22.659  -8.167   0.142  0.00  0.00     0.229 C 
BRANCH   9  10
HETATM   10  N           1     -22.620  -9.426  -0.674  0.00  0.00    -0.079 N 
HETATM   11  H           1     -22.405  -9.189  -1.669  0.00  0.00     0.274 HD
HETATM   12  H           1     -21.879 -10.059  -0.299  0.00  0.00     0.274 HD
HETATM   13  H           1     -23.548  -9.903  -0.622  0.00  0.00     0.274 HD
ENDBRANCH   9  10
ENDBRANCH   8   9
ENDBRANCH   7   8
ENDBRANCH   6   7
ENDBRANCH   5   6
BRANCH   5  14
HETATM   14  N           1     -21.452  -8.831  -4.010  0.00  0.00    -0.067 N 
HETATM   15  H           1     -21.940  -9.574  -4.559  0.00  0.00     0.275 HD
HETATM   16  H           1     -20.439  -8.817  -4.266  0.00  0.00     0.275 HD
HETATM   17  H           1     -21.553  -9.029  -2.989  0.00  0.00     0.275 HD
ENDBRANCH   5  14
ENDBRANCH   1   5
BRANCH   3  18
HETATM   18  C           1     -21.020  -5.071  -7.098  0.00  0.00     0.189 C 
BRANCH  18  19
HETATM   19  C           1     -21.836  -3.885  -7.597  0.00  0.00     0.074 C 
BRANCH  19  20
HETATM   20  C           1     -22.311  -4.158  -8.991  0.00  0.00    -0.056 A 
HETATM   21  C           1     -23.664  -4.395  -9.234  0.00  0.00     0.010 A 
HETATM   22  C           1     -24.105  -4.649 -10.533  0.00  0.00     0.037 A 
HETATM   23  C           1     -23.193  -4.667 -11.588  0.00  0.00     0.065 A 
HETATM   24  C           1     -21.841  -4.430 -11.345  0.00  0.00     0.037 A 
HETATM   25  C           1     -21.399  -4.175 -10.046  0.00  0.00     0.010 A 
BRANCH  23  26
HETATM   26  O           1     -23.622  -4.913 -12.849  0.00  0.00    -0.361 OA
HETATM   27  H           1     -24.462  -4.442 -12.978  0.00  0.00     0.217 HD
ENDBRANCH  23  26
ENDBRANCH  19  20
ENDBRANCH  18  19
BRANCH  18  28
HETATM   28  C           1     -19.622  -4.612  -6.761  0.00  0.00     0.197 C 
HETATM   29  O           1     -19.304  -4.399  -5.571  0.00  0.00    -0.646 OA
HETATM   30  O           1     -18.781  -4.447  -7.672  0.00  0.00    -0.646 OA
ENDBRANCH  18  28
ENDBRANCH   3  18
TORSDOF 12
ENDMDL
MODEL 4
REMARK VINA RESULT:      -7.0     12.228     15.340
REMARK  12 active torsions:
REMARK  status: ('A' for Active; 'I' for Inactive)
REMARK    1  A    between atoms: C_1  and  C_22 
REMARK    2  A    between atoms: C_1  and  C_10 
REMARK    3  A    between atoms: C_2  and  O_25 
REMARK    4  A    between atoms: N_3  and  C_10 
REMARK    5  A    between atoms: C_6  and  C_20 
REMARK    6  A    between atoms: C_6  and  C_24 
REMARK    7  A    between atoms: C_8  and  C_24 
REMARK    8  A    between atoms: C_9  and  C_13 
REMARK    9  A    between atoms: C_9  and  C_23 
REMARK   10  A    between atoms: C_9  and  N_18 
REMARK       I    between atoms: C_13  and  N_15 
REMARK   11  A    between atoms: N_15  and  C_24 
REMARK   12  A    between atoms: C_22  and  C_23 
ROOT
HETATM    1  C           1     -26.332  -6.494 -19.848  0.00  0.00     0.249 C 
HETATM    2  O           1     -27.339  -5.872 -20.088  0.00  0.00    -0.271 OA
HETATM    3  N           1     -25.959  -6.717 -18.550  0.00  0.00    -0.344 N 
HETATM    4  H           1     -25.115  -7.238 -18.349  0.00  0.00     0.163 HD
ENDROOT
BRANCH   1   5
HETATM    5  C           1     -25.485  -7.025 -20.979  0.00  0.00     0.274 C 
BRANCH   5   6
HETATM    6  C           1     -24.302  -7.797 -20.408  0.00  0.00     0.042 C 
BRANCH   6   7
HETATM    7  C           1     -23.473  -8.372 -21.548  0.00  0.00     0.004 C 
BRANCH   7   8
HETATM    8  C           1     -22.086  -8.738 -21.034  0.00  0.00     0.027 C 
BRANCH   8   9
HETATM    9  C           1     -21.257  -9.313 -22.173  0.00  0.00     0.229 C 
BRANCH   9  10
HETATM   10  N           1     -22.057 -10.354 -22.899  0.00  0.00    -0.079 N 
HETATM   11  H           1     -22.817  -9.890 -23.447  0.00  0.00     0.274 HD
HETATM   12  H           1     -21.432 -10.882 -23.548  0.00  0.00     0.274 HD
HETATM   13  H           1     -22.480 -11.013 -22.207  0.00  0.00     0.274 HD
ENDBRANCH   9  10
ENDBRANCH   8   9
ENDBRANCH   7   8
ENDBRANCH   6   7
ENDBRANCH   5   6
BRANCH   5  14
HETATM   14  N           1     -24.981  -5.879 -21.805  0.00  0.00    -0.067 N 
HETATM   15  H           1     -24.892  -6.180 -22.802  0.00  0.00     0.275 HD
HETATM   16  H           1     -25.655  -5.082 -21.741  0.00  0.00     0.275 HD
HETATM   17  H           1     -24.047  -5.576 -21.448  0.00  0.00     0.275 HD
ENDBRANCH   5  14
ENDBRANCH   1   5
BRANCH   3  18
HETATM   18  C           1     -26.772  -6.208 -17.464  0.00  0.00     0.189 C 
BRANCH  18  19
HETATM   19  C           1     -28.120  -6.918 -17.463  0.00  0.00     0.074 C 
BRANCH  19  20
HETATM   20  C           1     -29.219  -5.903 -17.411  0.00  0.00    -0.056 A 
HETATM   21  C           1     -30.529  -6.305 -17.147  0.00  0.00     0.010 A 
HETATM   22  C           1     -31.552  -5.358 -17.100  0.00  0.00     0.037 A 
HETATM   23  C           1     -31.265  -4.010 -17.316  0.00  0.00     0.065 A 
HETATM   24  C           1     -29.956  -3.609 -17.578  0.00  0.00     0.037 A 
HETATM   25  C           1     -28.932  -4.555 -17.626  0.00  0.00     0.010 A 
BRANCH  23  26
HETATM   26  O           1     -32.259  -3.090 -17.268  0.00  0.00    -0.361 OA
HETATM   27  H           1     -32.616  -2.987 -18.166  0.00  0.00     0.217 HD
ENDBRANCH  23  26
ENDBRANCH  19  20
ENDBRANCH  18  19
BRANCH  18  28
HETATM   28  C           1     -26.070  -6.459 -16.152  0.00  0.00     0.197 C 
HETATM   29  O           1     -25.123  -5.723 -15.799  0.00  0.00    -0.646 OA
HETATM   30  O           1     -26.436  -7.402 -15.417  0.00  0.00    -0.646 OA
ENDBRANCH  18  28
ENDBRANCH   3  18
TORSDOF 12
ENDMDL
MODEL 5
REMARK VINA RESULT:      -6.9     14.053     17.478
REMARK  12 active torsions:
REMARK  status: ('A' for Active; 'I' for Inactive)
REMARK    1  A    between atoms: C_1  and  C_22 
REMARK    2  A    between atoms: C_1  and  C_10 
REMARK    3  A    between atoms: C_2  and  O_25 
REMARK    4  A    between atoms: N_3  and  C_10 
REMARK    5  A    between atoms: C_6  and  C_20 
REMARK    6  A    between atoms: C_6  and  C_24 
REMARK    7  A    between atoms: C_8  and  C_24 
REMARK    8  A    between atoms: C_9  and  C_13 
REMARK    9  A    between atoms: C_9  and  C_23 
REMARK   10  A    between atoms: C_9  and  N_18 
REMARK       I    between atoms: C_13  and  N_15 
REMARK   11  A    between atoms: N_15  and  C_24 
REMARK   12  A    between atoms: C_22  and  C_23 
ROOT
HETATM    1  C           1     -37.054  -0.232 -13.917  0.00  0.00     0.249 C 
HETATM    2  O           1     -38.017  -0.914 -13.659  0.00  0.00    -0.271 OA
HETATM    3  N           1     -36.030  -0.125 -13.015  0.00  0.00    -0.344 N 
HETATM    4  H           1     -35.223   0.446 -13.232  0.00  0.00     0.163 HD
ENDROOT
BRANCH   1   5
HETATM    5  C           1     -36.980   0.502 -15.234  0.00  0.00     0.274 C 
BRANCH   5   6
HETATM    6  C           1     -36.782  -0.500 -16.364  0.00  0.00     0.042 C 
BRANCH   6   7
HETATM    7  C           1     -35.310  -0.877 -16.458  0.00  0.00     0.004 C 
BRANCH   7   8
HETATM    8  C           1     -35.163  -2.389 -16.337  0.00  0.00     0.027 C 
BRANCH   8   9
HETATM    9  C           1     -33.974  -2.852 -17.166  0.00  0.00     0.229 C 
BRANCH   9  10
HETATM   10  N           1     -33.363  -4.066 -16.530  0.00  0.00    -0.079 N 
HETATM   11  H           1     -33.877  -4.295 -15.650  0.00  0.00     0.274 HD
HETATM   12  H           1     -33.426  -4.873 -17.190  0.00  0.00     0.274 HD
HETATM   13  H           1     -32.360  -3.874 -16.308  0.00  0.00     0.274 HD
ENDBRANCH   9  10
ENDBRANCH   8   9
ENDBRANCH   7   8
ENDBRANCH   6   7
ENDBRANCH   5   6
BRANCH   5  14
HETATM   14  N           1     -35.825   1.458 -15.208  0.00  0.00    -0.067 N 
HETATM   15  H           1     -35.032   1.033 -14.675  0.00  0.00     0.275 HD
HETATM   16  H           1     -35.518   1.659 -16.186  0.00  0.00     0.275 HD
HETATM   17  H           1     -36.118   2.347 -14.744  0.00  0.00     0.275 HD
ENDBRANCH   5  14
ENDBRANCH   1   5
BRANCH   3  18
HETATM   18  C           1     -36.100  -0.830 -11.751  0.00  0.00     0.189 C 
BRANCH  18  19
HETATM   19  C           1     -34.690  -1.096 -11.239  0.00  0.00     0.074 C 
BRANCH  19  20
HETATM   20  C           1     -34.435  -2.571 -11.226  0.00  0.00    -0.056 A 
HETATM   21  C           1     -33.155  -3.061 -11.490  0.00  0.00     0.010 A 
HETATM   22  C           1     -32.918  -4.435 -11.477  0.00  0.00     0.037 A 
HETATM   23  C           1     -33.960  -5.320 -11.200  0.00  0.00     0.065 A 
HETATM   24  C           1     -35.239  -4.831 -10.935  0.00  0.00     0.037 A 
HETATM   25  C           1     -35.477  -3.456 -10.948  0.00  0.00     0.010 A 
BRANCH  23  26
HETATM   26  O           1     -33.729  -6.655 -11.187  0.00  0.00    -0.361 OA
HETATM   27  H           1     -34.016  -7.001 -10.325  0.00  0.00     0.217 HD
ENDBRANCH  23  26
ENDBRANCH  19  20
ENDBRANCH  18  19
BRANCH  18  28
HETATM   28  C           1     -36.849   0.012 -10.748  0.00  0.00     0.197 C 
HETATM   29  O           1     -38.075  -0.164 -10.574  0.00  0.00    -0.646 OA
HETATM   30  O           1     -36.245   0.886 -10.089  0.00  0.00    -0.646 OA
ENDBRANCH  18  28
ENDBRANCH   3  18
TORSDOF 12
ENDMDL
MODEL 6
REMARK VINA RESULT:      -6.9      3.001      7.734
REMARK  12 active torsions:
REMARK  status: ('A' for Active; 'I' for Inactive)
REMARK    1  A    between atoms: C_1  and  C_22 
REMARK    2  A    between atoms: C_1  and  C_10 
REMARK    3  A    between atoms: C_2  and  O_25 
REMARK    4  A    between atoms: N_3  and  C_10 
REMARK    5  A    between atoms: C_6  and  C_20 
REMARK    6  A    between atoms: C_6  and  C_24 
REMARK    7  A    between atoms: C_8  and  C_24 
REMARK    8  A    between atoms: C_9  and  C_13 
REMARK    9  A    between atoms: C_9  and  C_23 
REMARK   10  A    between atoms: C_9  and  N_18 
REMARK       I    between atoms: C_13  and  N_15 
REMARK   11  A    between atoms: N_15  and  C_24 
REMARK   12  A    between atoms: C_22  and  C_23 
ROOT
HETATM    1  C           1     -20.150  -5.291  -6.073  0.00  0.00     0.249 C 
HETATM    2  O           1     -20.188  -4.742  -4.998  0.00  0.00    -0.271 OA
HETATM    3  N           1     -20.075  -6.655  -6.144  0.00  0.00    -0.344 N 
HETATM    4  H           1     -20.044  -7.114  -7.045  0.00  0.00     0.163 HD
ENDROOT
BRANCH   1   5
HETATM    5  C           1     -20.185  -4.470  -7.340  0.00  0.00     0.274 C 
BRANCH   5   6
HETATM    6  C           1     -21.469  -3.653  -7.380  0.00  0.00     0.042 C 
BRANCH   6   7
HETATM    7  C           1     -22.561  -4.455  -8.074  0.00  0.00     0.004 C 
BRANCH   7   8
HETATM    8  C           1     -23.166  -3.624  -9.199  0.00  0.00     0.027 C 
BRANCH   8   9
HETATM    9  C           1     -24.314  -4.393  -9.838  0.00  0.00     0.229 C 
BRANCH   9  10
HETATM   10  N           1     -25.579  -3.595  -9.720  0.00  0.00    -0.079 N 
HETATM   11  H           1     -25.988  -3.729  -8.768  0.00  0.00     0.274 HD
HETATM   12  H           1     -25.366  -2.583  -9.868  0.00  0.00     0.274 HD
HETATM   13  H           1     -26.263  -3.918 -10.441  0.00  0.00     0.274 HD
ENDBRANCH   9  10
ENDBRANCH   8   9
ENDBRANCH   7   8
ENDBRANCH   6   7
ENDBRANCH   5   6
BRANCH   5  14
HETATM   14  N           1     -20.138  -5.385  -8.528  0.00  0.00    -0.067 N 
HETATM   15  H           1     -19.192  -5.333  -8.971  0.00  0.00     0.275 HD
HETATM   16  H           1     -20.324  -6.366  -8.219  0.00  0.00     0.275 HD
HETATM   17  H           1     -20.863  -5.093  -9.221  0.00  0.00     0.275 HD
ENDBRANCH   5  14
ENDBRANCH   1   5
BRANCH   3  18
HETATM   18  C           1     -20.043  -7.444  -4.928  0.00  0.00     0.189 C 
BRANCH  18  19
HETATM   19  C           1     -21.432  -8.005  -4.650  0.00  0.00     0.074 C 
BRANCH  19  20
HETATM   20  C           1     -21.711  -7.938  -3.181  0.00  0.00    -0.056 A 
HETATM   21  C           1     -21.710  -9.105  -2.416  0.00  0.00     0.010 A 
HETATM   22  C           1     -21.971  -9.042  -1.047  0.00  0.00     0.037 A 
HETATM   23  C           1     -22.233  -7.812  -0.443  0.00  0.00     0.065 A 
HETATM   24  C           1     -22.233  -6.646  -1.208  0.00  0.00     0.037 A 
HETATM   25  C           1     -21.973  -6.708  -2.577  0.00  0.00     0.010 A 
BRANCH  23  26
HETATM   26  O           1     -22.485  -7.751   0.887  0.00  0.00    -0.361 OA
HETATM   27  H           1     -22.433  -8.653   1.244  0.00  0.00     0.217 HD
ENDBRANCH  23  26
ENDBRANCH  19  20
ENDBRANCH  18  19
BRANCH  18  28
HETATM   28  C           1     -19.065  -8.581  -5.094  0.00  0.00     0.197 C 
HETATM   29  O           1     -18.691  -8.923  -6.237  0.00  0.00    -0.646 OA
HETATM   30  O           1     -18.627  -9.181  -4.088  0.00  0.00    -0.646 OA
ENDBRANCH  18  28
ENDBRANCH   3  18
TORSDOF 12
ENDMDL
MODEL 7
REMARK VINA RESULT:      -6.8      2.915      8.183
REMARK  12 active torsions:
REMARK  status: ('A' for Active; 'I' for Inactive)
REMARK    1  A    between atoms: C_1  and  C_22 
REMARK    2  A    between atoms: C_1  and  C_10 
REMARK    3  A    between atoms: C_2  and  O_25 
REMARK    4  A    between atoms: N_3  and  C_10 
REMARK    5  A    between atoms: C_6  and  C_20 
REMARK    6  A    between atoms: C_6  and  C_24 
REMARK    7  A    between atoms: C_8  and  C_24 
REMARK    8  A    between atoms: C_9  and  C_13 
REMARK    9  A    between atoms: C_9  and  C_23 
REMARK   10  A    between atoms: C_9  and  N_18 
REMARK       I    between atoms: C_13  and  N_15 
REMARK   11  A    between atoms: N_15  and  C_24 
REMARK   12  A    between atoms: C_22  and  C_23 
ROOT
HETATM    1  C           1     -20.927  -5.671  -6.334  0.00  0.00     0.249 C 
HETATM    2  O           1     -20.701  -4.964  -5.381  0.00  0.00    -0.271 OA
HETATM    3  N           1     -20.815  -7.030  -6.219  0.00  0.00    -0.344 N 
HETATM    4  H           1     -21.005  -7.623  -7.017  0.00  0.00     0.163 HD
ENDROOT
BRANCH   1   5
HETATM    5  C           1     -21.333  -5.056  -7.651  0.00  0.00     0.274 C 
BRANCH   5   6
HETATM    6  C           1     -20.101  -4.496  -8.351  0.00  0.00     0.042 C 
BRANCH   6   7
HETATM    7  C           1     -20.152  -4.848  -9.831  0.00  0.00     0.004 C 
BRANCH   7   8
HETATM    8  C           1     -20.411  -3.587 -10.646  0.00  0.00     0.027 C 
BRANCH   8   9
HETATM    9  C           1     -21.874  -3.543 -11.063  0.00  0.00     0.229 C 
BRANCH   9  10
HETATM   10  N           1     -22.147  -4.641 -12.049  0.00  0.00    -0.079 N 
HETATM   11  H           1     -21.829  -5.554 -11.651  0.00  0.00     0.274 HD
HETATM   12  H           1     -23.172  -4.686 -12.245  0.00  0.00     0.274 HD
HETATM   13  H           1     -21.629  -4.449 -12.936  0.00  0.00     0.274 HD
ENDBRANCH   9  10
ENDBRANCH   8   9
ENDBRANCH   7   8
ENDBRANCH   6   7
ENDBRANCH   5   6
BRANCH   5  14
HETATM   14  N           1     -22.313  -3.948  -7.403  0.00  0.00    -0.067 N 
HETATM   15  H           1     -21.803  -3.037  -7.353  0.00  0.00     0.275 HD
HETATM   16  H           1     -23.006  -3.917  -8.185  0.00  0.00     0.275 HD
HETATM   17  H           1     -22.811  -4.118  -6.501  0.00  0.00     0.275 HD
ENDBRANCH   5  14
ENDBRANCH   1   5
BRANCH   3  18
HETATM   18  C           1     -20.426  -7.622  -4.954  0.00  0.00     0.189 C 
BRANCH  18  19
HETATM   19  C           1     -21.559  -8.497  -4.433  0.00  0.00     0.074 C 
BRANCH  19  20
HETATM   20  C           1     -21.721  -8.279  -2.961  0.00  0.00    -0.056 A 
HETATM   21  C           1     -21.929  -6.992  -2.465  0.00  0.00     0.010 A 
HETATM   22  C           1     -22.080  -6.789  -1.093  0.00  0.00     0.037 A 
HETATM   23  C           1     -22.023  -7.874  -0.217  0.00  0.00     0.065 A 
HETATM   24  C           1     -21.815  -9.160  -0.714  0.00  0.00     0.037 A 
HETATM   25  C           1     -21.664  -9.364  -2.086  0.00  0.00     0.010 A 
BRANCH  23  26
HETATM   26  O           1     -22.170  -7.677   1.115  0.00  0.00    -0.361 OA
HETATM   27  H           1     -21.357  -7.975   1.555  0.00  0.00     0.217 HD
ENDBRANCH  23  26
ENDBRANCH  19  20
ENDBRANCH  18  19
BRANCH  18  28
HETATM   28  C           1     -19.190  -8.465  -5.154  0.00  0.00     0.197 C 
HETATM   29  O           1     -18.679  -9.065  -4.183  0.00  0.00    -0.646 OA
HETATM   30  O           1     -18.677  -8.564  -6.289  0.00  0.00    -0.646 OA
ENDBRANCH  18  28
ENDBRANCH   3  18
TORSDOF 12
ENDMDL
MODEL 8
REMARK VINA RESULT:      -6.6     12.474     14.446
REMARK  12 active torsions:
REMARK  status: ('A' for Active; 'I' for Inactive)
REMARK    1  A    between atoms: C_1  and  C_22 
REMARK    2  A    between atoms: C_1  and  C_10 
REMARK    3  A    between atoms: C_2  and  O_25 
REMARK    4  A    between atoms: N_3  and  C_10 
REMARK    5  A    between atoms: C_6  and  C_20 
REMARK    6  A    between atoms: C_6  and  C_24 
REMARK    7  A    between atoms: C_8  and  C_24 
REMARK    8  A    between atoms: C_9  and  C_13 
REMARK    9  A    between atoms: C_9  and  C_23 
REMARK   10  A    between atoms: C_9  and  N_18 
REMARK       I    between atoms: C_13  and  N_15 
REMARK   11  A    between atoms: N_15  and  C_24 
REMARK   12  A    between atoms: C_22  and  C_23 
ROOT
HETATM    1  C           1     -34.122  -4.215 -13.468  0.00  0.00     0.249 C 
HETATM    2  O           1     -33.419  -3.303 -13.104  0.00  0.00    -0.271 OA
HETATM    3  N           1     -34.152  -4.571 -14.789  0.00  0.00    -0.344 N 
HETATM    4  H           1     -34.741  -5.335 -15.095  0.00  0.00     0.163 HD
ENDROOT
BRANCH   1   5
HETATM    5  C           1     -34.969  -4.963 -12.467  0.00  0.00     0.274 C 
BRANCH   5   6
HETATM    6  C           1     -34.307  -4.900 -11.096  0.00  0.00     0.042 C 
BRANCH   6   7
HETATM    7  C           1     -33.757  -6.272 -10.733  0.00  0.00     0.004 C 
BRANCH   7   8
HETATM    8  C           1     -34.611  -6.889  -9.633  0.00  0.00     0.027 C 
BRANCH   8   9
HETATM    9  C           1     -34.641  -8.401  -9.799  0.00  0.00     0.229 C 
BRANCH   9  10
HETATM   10  N           1     -33.307  -8.876 -10.297  0.00  0.00    -0.079 N 
HETATM   11  H           1     -33.179  -8.578 -11.291  0.00  0.00     0.274 HD
HETATM   12  H           1     -32.550  -8.462  -9.709  0.00  0.00     0.274 HD
HETATM   13  H           1     -33.265  -9.919 -10.238  0.00  0.00     0.274 HD
ENDBRANCH   9  10
ENDBRANCH   8   9
ENDBRANCH   7   8
ENDBRANCH   6   7
ENDBRANCH   5   6
BRANCH   5  14
HETATM   14  N           1     -35.098  -6.395 -12.893  0.00  0.00    -0.067 N 
HETATM   15  H           1     -34.153  -6.775 -13.129  0.00  0.00     0.275 HD
HETATM   16  H           1     -35.511  -6.953 -12.112  0.00  0.00     0.275 HD
HETATM   17  H           1     -35.717  -6.455 -13.732  0.00  0.00     0.275 HD
ENDBRANCH   5  14
ENDBRANCH   1   5
BRANCH   3  18
HETATM   18  C           1     -33.339  -3.854 -15.752  0.00  0.00     0.189 C 
BRANCH  18  19
HETATM   19  C           1     -32.738  -4.842 -16.745  0.00  0.00     0.074 C 
BRANCH  19  20
HETATM   20  C           1     -31.246  -4.723 -16.726  0.00  0.00    -0.056 A 
HETATM   21  C           1     -30.611  -3.779 -17.533  0.00  0.00     0.010 A 
HETATM   22  C           1     -29.220  -3.669 -17.514  0.00  0.00     0.037 A 
HETATM   23  C           1     -28.466  -4.502 -16.689  0.00  0.00     0.065 A 
HETATM   24  C           1     -29.101  -5.445 -15.881  0.00  0.00     0.037 A 
HETATM   25  C           1     -30.492  -5.556 -15.899  0.00  0.00     0.010 A 
BRANCH  23  26
HETATM   26  O           1     -27.115  -4.394 -16.670  0.00  0.00    -0.361 OA
HETATM   27  H           1     -26.799  -4.426 -17.589  0.00  0.00     0.217 HD
ENDBRANCH  23  26
ENDBRANCH  19  20
ENDBRANCH  18  19
BRANCH  18  28
HETATM   28  C           1     -34.198  -2.857 -16.491  0.00  0.00     0.197 C 
HETATM   29  O           1     -33.840  -2.433 -17.611  0.00  0.00    -0.646 OA
HETATM   30  O           1     -35.268  -2.456 -15.983  0.00  0.00    -0.646 OA
ENDBRANCH  18  28
ENDBRANCH   3  18
TORSDOF 12
ENDMDL
MODEL 9
REMARK VINA RESULT:      -6.5      2.639      7.862
REMARK  12 active torsions:
REMARK  status: ('A' for Active; 'I' for Inactive)
REMARK    1  A    between atoms: C_1  and  C_22 
REMARK    2  A    between atoms: C_1  and  C_10 
REMARK    3  A    between atoms: C_2  and  O_25 
REMARK    4  A    between atoms: N_3  and  C_10 
REMARK    5  A    between atoms: C_6  and  C_20 
REMARK    6  A    between atoms: C_6  and  C_24 
REMARK    7  A    between atoms: C_8  and  C_24 
REMARK    8  A    between atoms: C_9  and  C_13 
REMARK    9  A    between atoms: C_9  and  C_23 
REMARK   10  A    between atoms: C_9  and  N_18 
REMARK       I    between atoms: C_13  and  N_15 
REMARK   11  A    between atoms: N_15  and  C_24 
REMARK   12  A    between atoms: C_22  and  C_23 
ROOT
HETATM    1  C           1     -20.460  -7.272  -5.545  0.00  0.00     0.249 C 
HETATM    2  O           1     -19.519  -7.585  -6.235  0.00  0.00    -0.271 OA
HETATM    3  N           1     -20.723  -7.961  -4.393  0.00  0.00    -0.344 N 
HETATM    4  H           1     -21.511  -7.699  -3.815  0.00  0.00     0.163 HD
ENDROOT
BRANCH   1   5
HETATM    5  C           1     -21.345  -6.120  -5.954  0.00  0.00     0.274 C 
BRANCH   5   6
HETATM    6  C           1     -20.550  -4.821  -5.892  0.00  0.00     0.042 C 
BRANCH   6   7
HETATM    7  C           1     -20.976  -3.908  -7.033  0.00  0.00     0.004 C 
BRANCH   7   8
HETATM    8  C           1     -21.648  -4.735  -8.122  0.00  0.00     0.027 C 
BRANCH   8   9
HETATM    9  C           1     -22.628  -3.861  -8.892  0.00  0.00     0.229 C 
BRANCH   9  10
HETATM   10  N           1     -23.996  -3.993  -8.290  0.00  0.00    -0.079 N 
HETATM   11  H           1     -24.385  -3.042  -8.097  0.00  0.00     0.274 HD
HETATM   12  H           1     -24.622  -4.495  -8.958  0.00  0.00     0.274 HD
HETATM   13  H           1     -23.933  -4.532  -7.397  0.00  0.00     0.274 HD
ENDBRANCH   9  10
ENDBRANCH   8   9
ENDBRANCH   7   8
ENDBRANCH   6   7
ENDBRANCH   5   6
BRANCH   5  14
HETATM   14  N           1     -22.515  -6.033  -5.019  0.00  0.00    -0.067 N 
HETATM   15  H           1     -22.714  -6.980  -4.622  0.00  0.00     0.275 HD
HETATM   16  H           1     -22.291  -5.370  -4.243  0.00  0.00     0.275 HD
HETATM   17  H           1     -23.353  -5.692  -5.541  0.00  0.00     0.275 HD
ENDBRANCH   5  14
ENDBRANCH   1   5
BRANCH   3  18
HETATM   18  C           1     -19.873  -9.067  -3.999  0.00  0.00     0.189 C 
BRANCH  18  19
HETATM   19  C           1     -19.402  -8.860  -2.565  0.00  0.00     0.074 C 
BRANCH  19  20
HETATM   20  C           1     -20.578  -8.535  -1.696  0.00  0.00    -0.056 A 
HETATM   21  C           1     -21.157  -7.267  -1.752  0.00  0.00     0.010 A 
HETATM   22  C           1     -22.252  -6.965  -0.942  0.00  0.00     0.037 A 
HETATM   23  C           1     -22.768  -7.931  -0.078  0.00  0.00     0.065 A 
HETATM   24  C           1     -22.190  -9.198  -0.024  0.00  0.00     0.037 A 
HETATM   25  C           1     -21.094  -9.501  -0.833  0.00  0.00     0.010 A 
BRANCH  23  26
HETATM   26  O           1     -23.832  -7.637   0.708  0.00  0.00    -0.361 OA
HETATM   27  H           1     -24.419  -7.045   0.209  0.00  0.00     0.217 HD
ENDBRANCH  23  26
ENDBRANCH  19  20
ENDBRANCH  18  19
BRANCH  18  28
HETATM   28  C           1     -20.652 -10.357  -4.091  0.00  0.00     0.197 C 
HETATM   29  O           1     -21.881 -10.329  -4.320  0.00  0.00    -0.646 OA
HETATM   30  O           1     -20.069 -11.452  -3.939  0.00  0.00    -0.646 OA
ENDBRANCH  18  28
ENDBRANCH   3  18
TORSDOF 12
ENDMDL
