MODEL 1
REMARK VINA RESULT:      -6.7      0.000      0.000
REMARK  9 active torsions:
REMARK  status: ('A' for Active; 'I' for Inactive)
REMARK       I    between atoms: N_2  and  C_3 
REMARK    1  A    between atoms: C_3  and  C_4 
REMARK    2  A    between atoms: C_4  and  C_5 
REMARK    3  A    between atoms: C_5  and  C_6 
REMARK    4  A    between atoms: C_6  and  C_7 
REMARK    5  A    between atoms: C_6  and  N_18 
REMARK       I    between atoms: C_7  and  N_24 
REMARK    6  A    between atoms: C_9  and  C_16 
REMARK    7  A    between atoms: C_9  and  C_22 
REMARK    8  A    between atoms: C_9  and  N_24 
REMARK    9  A    between atoms: O_10  and  C_16 
ROOT
HETATM    1  C           1     -21.273  -5.865  -6.976  0.00  0.00     0.275 C 
ENDROOT
BRANCH   1   2
HETATM    2  C           1     -21.319  -5.508  -5.497  0.00  0.00     0.052 C 
BRANCH   2   3
HETATM    3  C           1     -22.211  -6.500  -4.762  0.00  0.00     0.105 C 
BRANCH   3   4
HETATM    4  C           1     -21.754  -6.618  -3.329  0.00  0.00     0.215 C 
HETATM    5  O           1     -20.839  -7.352  -3.044  0.00  0.00    -0.274 OA
HETATM    6  N           1     -22.379  -5.892  -2.349  0.00  0.00    -0.370 N 
HETATM    7  H           1     -22.073  -5.971  -1.388  0.00  0.00     0.159 HD
HETATM    8  H           1     -23.146  -5.277  -2.588  0.00  0.00     0.159 HD
ENDBRANCH   3   4
ENDBRANCH   2   3
ENDBRANCH   1   2
BRANCH   1   9
HETATM    9  C           1     -21.730  -4.682  -7.795  0.00  0.00     0.249 C 
HETATM   10  N           1     -22.144  -4.863  -9.087  0.00  0.00    -0.343 N 
HETATM   11  H           1     -22.145  -5.790  -9.493  0.00  0.00     0.163 HD
HETATM   12  O           1     -21.729  -3.576  -7.310  0.00  0.00    -0.271 OA
BRANCH  10  13
HETATM   13  C           1     -22.584  -3.726  -9.874  0.00  0.00     0.214 C 
BRANCH  13  14
HETATM   14  C           1     -21.795  -3.675 -11.175  0.00  0.00     0.147 C 
HETATM   15  C           1     -20.424  -4.301 -10.961  0.00  0.00     0.042 C 
BRANCH  14  16
HETATM   16  O           1     -22.485  -4.386 -12.167  0.00  0.00    -0.393 OA
HETATM   17  H           1     -22.370  -5.302 -11.978  0.00  0.00     0.210 HD
ENDBRANCH  14  16
ENDBRANCH  13  14
BRANCH  13  18
HETATM   18  C           1     -24.055  -3.868 -10.181  0.00  0.00     0.199 C 
HETATM   19  O           1     -24.648  -4.936  -9.921  0.00  0.00    -0.646 OA
HETATM   20  O           1     -24.680  -2.915 -10.695  0.00  0.00    -0.646 OA
ENDBRANCH  13  18
ENDBRANCH  10  13
ENDBRANCH   1   9
BRANCH   1  21
HETATM   21  N           1     -19.867  -6.224  -7.360  0.00  0.00    -0.066 N 
HETATM   22  H           1     -19.633  -7.168  -6.979  0.00  0.00     0.275 HD
HETATM   23  H           1     -19.783  -6.238  -8.401  0.00  0.00     0.275 HD
HETATM   24  H           1     -19.207  -5.515  -6.967  0.00  0.00     0.275 HD
ENDBRANCH   1  21
TORSDOF 9
ENDMDL
MODEL 2
REMARK VINA RESULT:      -6.1     11.529     13.516
REMARK  9 active torsions:
REMARK  status: ('A' for Active; 'I' for Inactive)
REMARK       I    between atoms: N_2  and  C_3 
REMARK    1  A    between atoms: C_3  and  C_4 
REMARK    2  A    between atoms: C_4  and  C_5 
REMARK    3  A    between atoms: C_5  and  C_6 
REMARK    4  A    between atoms: C_6  and  C_7 
REMARK    5  A    between atoms: C_6  and  N_18 
REMARK       I    between atoms: C_7  and  N_24 
REMARK    6  A    between atoms: C_9  and  C_16 
REMARK    7  A    between atoms: C_9  and  C_22 
REMARK    8  A    between atoms: C_9  and  N_24 
REMARK    9  A    between atoms: O_10  and  C_16 
ROOT
HETATM    1  C           1     -25.113  -6.849 -19.850  0.00  0.00     0.275 C 
ENDROOT
BRANCH   1   2
HETATM    2  C           1     -25.140  -7.922 -20.929  0.00  0.00     0.052 C 
BRANCH   2   3
HETATM    3  C           1     -24.143  -7.568 -22.025  0.00  0.00     0.105 C 
BRANCH   3   4
HETATM    4  C           1     -22.981  -8.529 -21.976  0.00  0.00     0.215 C 
HETATM    5  O           1     -22.777  -9.279 -22.899  0.00  0.00    -0.274 OA
HETATM    6  N           1     -22.155  -8.548 -20.883  0.00  0.00    -0.370 N 
HETATM    7  H           1     -21.375  -9.192 -20.850  0.00  0.00     0.159 HD
HETATM    8  H           1     -22.325  -7.919 -20.109  0.00  0.00     0.159 HD
ENDBRANCH   3   4
ENDBRANCH   2   3
ENDBRANCH   1   2
BRANCH   1   9
HETATM    9  C           1     -26.513  -6.336 -19.613  0.00  0.00     0.249 C 
HETATM   10  N           1     -27.030  -6.318 -18.347  0.00  0.00    -0.343 N 
HETATM   11  H           1     -26.474  -6.648 -17.568  0.00  0.00     0.163 HD
HETATM   12  O           1     -27.176  -5.944 -20.543  0.00  0.00    -0.271 OA
BRANCH  10  13
HETATM   13  C           1     -28.376  -5.825 -18.119  0.00  0.00     0.214 C 
BRANCH  13  14
HETATM   14  C           1     -29.188  -6.887 -17.391  0.00  0.00     0.147 C 
HETATM   15  C           1     -29.826  -7.823 -18.409  0.00  0.00     0.042 C 
BRANCH  14  16
HETATM   16  O           1     -28.345  -7.620 -16.544  0.00  0.00    -0.393 OA
HETATM   17  H           1     -28.021  -7.020 -15.894  0.00  0.00     0.210 HD
ENDBRANCH  14  16
ENDBRANCH  13  14
BRANCH  13  18
HETATM   18  C           1     -28.316  -4.572 -17.280  0.00  0.00     0.199 C 
HETATM   19  O           1     -28.948  -3.553 -17.632  0.00  0.00    -0.646 OA
HETATM   20  O           1     -27.634  -4.555 -16.232  0.00  0.00    -0.646 OA
ENDBRANCH  13  18
ENDBRANCH  10  13
ENDBRANCH   1   9
BRANCH   1  21
HETATM   21  N           1     -24.574  -7.433 -18.577  0.00  0.00    -0.066 N 
HETATM   22  H           1     -25.047  -8.344 -18.385  0.00  0.00     0.275 HD
HETATM   23  H           1     -23.545  -7.589 -18.673  0.00  0.00     0.275 HD
HETATM   24  H           1     -24.753  -6.773 -17.787  0.00  0.00     0.275 HD
ENDBRANCH   1  21
TORSDOF 9
ENDMDL
MODEL 3
REMARK VINA RESULT:      -6.1     11.270     13.126
REMARK  9 active torsions:
REMARK  status: ('A' for Active; 'I' for Inactive)
REMARK       I    between atoms: N_2  and  C_3 
REMARK    1  A    between atoms: C_3  and  C_4 
REMARK    2  A    between atoms: C_4  and  C_5 
REMARK    3  A    between atoms: C_5  and  C_6 
REMARK    4  A    between atoms: C_6  and  C_7 
REMARK    5  A    between atoms: C_6  and  N_18 
REMARK       I    between atoms: C_7  and  N_24 
REMARK    6  A    between atoms: C_9  and  C_16 
REMARK    7  A    between atoms: C_9  and  C_22 
REMARK    8  A    between atoms: C_9  and  N_24 
REMARK    9  A    between atoms: O_10  and  C_16 
ROOT
HETATM    1  C           1     -29.686  -6.584 -17.850  0.00  0.00     0.275 C 
ENDROOT
BRANCH   1   2
HETATM    2  C           1     -30.087  -5.640 -16.725  0.00  0.00     0.052 C 
BRANCH   2   3
HETATM    3  C           1     -31.490  -5.106 -16.984  0.00  0.00     0.105 C 
BRANCH   3   4
HETATM    4  C           1     -31.403  -3.678 -17.463  0.00  0.00     0.215 C 
HETATM    5  O           1     -32.411  -3.050 -17.678  0.00  0.00    -0.274 OA
HETATM    6  N           1     -30.178  -3.094 -17.653  0.00  0.00    -0.370 N 
HETATM    7  H           1     -30.120  -2.135 -17.974  0.00  0.00     0.159 HD
HETATM    8  H           1     -29.334  -3.620 -17.473  0.00  0.00     0.159 HD
ENDBRANCH   3   4
ENDBRANCH   2   3
ENDBRANCH   1   2
BRANCH   1   9
HETATM    9  C           1     -28.431  -6.071 -18.514  0.00  0.00     0.249 C 
HETATM   10  N           1     -27.262  -6.775 -18.403  0.00  0.00    -0.343 N 
HETATM   11  H           1     -27.239  -7.639 -17.877  0.00  0.00     0.163 HD
HETATM   12  O           1     -28.458  -5.040 -19.142  0.00  0.00    -0.271 OA
BRANCH  10  13
HETATM   13  C           1     -26.056  -6.282 -19.041  0.00  0.00     0.214 C 
BRANCH  13  14
HETATM   14  C           1     -24.846  -6.652 -18.193  0.00  0.00     0.147 C 
HETATM   15  C           1     -25.300  -6.960 -16.772  0.00  0.00     0.042 C 
BRANCH  14  16
HETATM   16  O           1     -24.220  -7.782 -18.740  0.00  0.00    -0.393 OA
HETATM   17  H           1     -23.298  -7.692 -18.572  0.00  0.00     0.210 HD
ENDBRANCH  14  16
ENDBRANCH  13  14
BRANCH  13  18
HETATM   18  C           1     -25.922  -6.906 -20.409  0.00  0.00     0.199 C 
HETATM   19  O           1     -25.126  -6.422 -21.242  0.00  0.00    -0.646 OA
HETATM   20  O           1     -26.607  -7.908 -20.709  0.00  0.00    -0.646 OA
ENDBRANCH  13  18
ENDBRANCH  10  13
ENDBRANCH   1   9
BRANCH   1  21
HETATM   21  N           1     -29.431  -7.952 -17.289  0.00  0.00    -0.066 N 
HETATM   22  H           1     -29.345  -8.638 -18.071  0.00  0.00     0.275 HD
HETATM   23  H           1     -28.545  -7.942 -16.735  0.00  0.00     0.275 HD
HETATM   24  H           1     -30.226  -8.227 -16.668  0.00  0.00     0.275 HD
ENDBRANCH   1  21
TORSDOF 9
ENDMDL
MODEL 4
REMARK VINA RESULT:      -6.1     10.128     12.374
REMARK  9 active torsions:
REMARK  status: ('A' for Active; 'I' for Inactive)
REMARK       I    between atoms: N_2  and  C_3 
REMARK    1  A    between atoms: C_3  and  C_4 
REMARK    2  A    between atoms: C_4  and  C_5 
REMARK    3  A    between atoms: C_5  and  C_6 
REMARK    4  A    between atoms: C_6  and  C_7 
REMARK    5  A    between atoms: C_6  and  N_18 
REMARK       I    between atoms: C_7  and  N_24 
REMARK    6  A    between atoms: C_9  and  C_16 
REMARK    7  A    between atoms: C_9  and  C_22 
REMARK    8  A    between atoms: C_9  and  N_24 
REMARK    9  A    between atoms: O_10  and  C_16 
ROOT
HETATM    1  C           1     -24.953  -6.759 -17.088  0.00  0.00     0.275 C 
ENDROOT
BRANCH   1   2
HETATM    2  C           1     -25.079  -6.747 -18.605  0.00  0.00     0.052 C 
BRANCH   2   3
HETATM    3  C           1     -23.789  -7.264 -19.227  0.00  0.00     0.105 C 
BRANCH   3   4
HETATM    4  C           1     -24.106  -7.993 -20.509  0.00  0.00     0.215 C 
HETATM    5  O           1     -25.206  -7.905 -20.999  0.00  0.00    -0.274 OA
HETATM    6  N           1     -23.145  -8.756 -21.118  0.00  0.00    -0.370 N 
HETATM    7  H           1     -23.357  -9.245 -21.979  0.00  0.00     0.159 HD
HETATM    8  H           1     -22.223  -8.830 -20.708  0.00  0.00     0.159 HD
ENDBRANCH   3   4
ENDBRANCH   2   3
ENDBRANCH   1   2
BRANCH   1   9
HETATM    9  C           1     -26.323  -6.893 -16.469  0.00  0.00     0.249 C 
HETATM   10  N           1     -27.431  -6.494 -17.165  0.00  0.00    -0.343 N 
HETATM   11  H           1     -27.332  -6.109 -18.096  0.00  0.00     0.163 HD
HETATM   12  O           1     -26.440  -7.352 -15.358  0.00  0.00    -0.271 OA
BRANCH  10  13
HETATM   13  C           1     -28.748  -6.624 -16.571  0.00  0.00     0.214 C 
BRANCH  13  14
HETATM   14  C           1     -29.249  -5.251 -16.145  0.00  0.00     0.147 C 
HETATM   15  C           1     -29.361  -4.351 -17.368  0.00  0.00     0.042 C 
BRANCH  14  16
HETATM   16  O           1     -30.509  -5.380 -15.542  0.00  0.00    -0.393 OA
HETATM   17  H           1     -30.724  -6.297 -15.551  0.00  0.00     0.210 HD
ENDBRANCH  14  16
ENDBRANCH  13  14
BRANCH  13  18
HETATM   18  C           1     -29.699  -7.216 -17.582  0.00  0.00     0.199 C 
HETATM   19  O           1     -30.895  -7.408 -17.278  0.00  0.00    -0.646 OA
HETATM   20  O           1     -29.289  -7.514 -18.725  0.00  0.00    -0.646 OA
ENDBRANCH  13  18
ENDBRANCH  10  13
ENDBRANCH   1   9
BRANCH   1  21
HETATM   21  N           1     -24.099  -7.918 -16.666  0.00  0.00    -0.066 N 
HETATM   22  H           1     -24.710  -8.720 -16.396  0.00  0.00     0.275 HD
HETATM   23  H           1     -23.481  -8.203 -17.460  0.00  0.00     0.275 HD
HETATM   24  H           1     -23.509  -7.638 -15.850  0.00  0.00     0.275 HD
ENDBRANCH   1  21
TORSDOF 9
ENDMDL
MODEL 5
REMARK VINA RESULT:      -5.9     10.345     12.643
REMARK  9 active torsions:
REMARK  status: ('A' for Active; 'I' for Inactive)
REMARK       I    between atoms: N_2  and  C_3 
REMARK    1  A    between atoms: C_3  and  C_4 
REMARK    2  A    between atoms: C_4  and  C_5 
REMARK    3  A    between atoms: C_5  and  C_6 
REMARK    4  A    between atoms: C_6  and  C_7 
REMARK    5  A    between atoms: C_6  and  N_18 
REMARK       I    between atoms: C_7  and  N_24 
REMARK    6  A    between atoms: C_9  and  C_16 
REMARK    7  A    between atoms: C_9  and  C_22 
REMARK    8  A    between atoms: C_9  and  N_24 
REMARK    9  A    between atoms: O_10  and  C_16 
ROOT
HETATM    1  C           1     -29.481  -4.981 -18.177  0.00  0.00     0.275 C 
ENDROOT
BRANCH   1   2
HETATM    2  C           1     -30.356  -4.027 -17.377  0.00  0.00     0.052 C 
BRANCH   2   3
HETATM    3  C           1     -31.492  -4.804 -16.724  0.00  0.00     0.105 C 
BRANCH   3   4
HETATM    4  C           1     -32.769  -4.009 -16.827  0.00  0.00     0.215 C 
HETATM    5  O           1     -32.850  -3.093 -17.610  0.00  0.00    -0.274 OA
HETATM    6  N           1     -33.839  -4.326 -16.032  0.00  0.00    -0.370 N 
HETATM    7  H           1     -34.697  -3.793 -16.102  0.00  0.00     0.159 HD
HETATM    8  H           1     -33.772  -5.094 -15.377  0.00  0.00     0.159 HD
ENDBRANCH   3   4
ENDBRANCH   2   3
ENDBRANCH   1   2
BRANCH   1   9
HETATM    9  C           1     -28.088  -4.995 -17.596  0.00  0.00     0.249 C 
HETATM   10  N           1     -27.272  -6.075 -17.798  0.00  0.00    -0.343 N 
HETATM   11  H           1     -27.603  -6.865 -18.338  0.00  0.00     0.163 HD
HETATM   12  O           1     -27.694  -4.052 -16.952  0.00  0.00    -0.271 OA
BRANCH  10  13
HETATM   13  C           1     -25.933  -6.088 -17.240  0.00  0.00     0.214 C 
BRANCH  13  14
HETATM   14  C           1     -25.929  -6.898 -15.951  0.00  0.00     0.147 C 
HETATM   15  C           1     -27.351  -7.333 -15.622  0.00  0.00     0.042 C 
BRANCH  14  16
HETATM   16  O           1     -25.119  -8.031 -16.114  0.00  0.00    -0.393 OA
HETATM   17  H           1     -24.325  -7.870 -15.634  0.00  0.00     0.210 HD
ENDBRANCH  14  16
ENDBRANCH  13  14
BRANCH  13  18
HETATM   18  C           1     -24.983  -6.713 -18.231  0.00  0.00     0.199 C 
HETATM   19  O           1     -23.752  -6.694 -18.016  0.00  0.00    -0.646 OA
HETATM   20  O           1     -25.428  -7.253 -19.269  0.00  0.00    -0.646 OA
ENDBRANCH  13  18
ENDBRANCH  10  13
ENDBRANCH   1   9
BRANCH   1  21
HETATM   21  N           1     -30.062  -6.363 -18.114  0.00  0.00    -0.066 N 
HETATM   22  H           1     -30.547  -6.496 -17.199  0.00  0.00     0.275 HD
HETATM   23  H           1     -30.747  -6.490 -18.893  0.00  0.00     0.275 HD
HETATM   24  H           1     -29.295  -7.068 -18.209  0.00  0.00     0.275 HD
ENDBRANCH   1  21
TORSDOF 9
ENDMDL
MODEL 6
REMARK VINA RESULT:      -5.8      1.520      1.966
REMARK  9 active torsions:
REMARK  status: ('A' for Active; 'I' for Inactive)
REMARK       I    between atoms: N_2  and  C_3 
REMARK    1  A    between atoms: C_3  and  C_4 
REMARK    2  A    between atoms: C_4  and  C_5 
REMARK    3  A    between atoms: C_5  and  C_6 
REMARK    4  A    between atoms: C_6  and  C_7 
REMARK    5  A    between atoms: C_6  and  N_18 
REMARK       I    between atoms: C_7  and  N_24 
REMARK    6  A    between atoms: C_9  and  C_16 
REMARK    7  A    between atoms: C_9  and  C_22 
REMARK    8  A    between atoms: C_9  and  N_24 
REMARK    9  A    between atoms: O_10  and  C_16 
ROOT
HETATM    1  C           1     -21.515  -4.979  -6.518  0.00  0.00     0.275 C 
ENDROOT
BRANCH   1   2
HETATM    2  C           1     -20.794  -6.178  -7.120  0.00  0.00     0.052 C 
BRANCH   2   3
HETATM    3  C           1     -19.787  -6.722  -6.115  0.00  0.00     0.105 C 
BRANCH   3   4
HETATM    4  C           1     -20.466  -7.725  -5.216  0.00  0.00     0.215 C 
HETATM    5  O           1     -20.804  -7.408  -4.102  0.00  0.00    -0.274 OA
HETATM    6  N           1     -20.701  -8.998  -5.666  0.00  0.00    -0.370 N 
HETATM    7  H           1     -21.157  -9.671  -5.063  0.00  0.00     0.159 HD
HETATM    8  H           1     -20.418  -9.264  -6.600  0.00  0.00     0.159 HD
ENDBRANCH   3   4
ENDBRANCH   2   3
ENDBRANCH   1   2
BRANCH   1   9
HETATM    9  C           1     -21.925  -4.033  -7.621  0.00  0.00     0.249 C 
HETATM   10  N           1     -22.405  -4.526  -8.804  0.00  0.00    -0.343 N 
HETATM   11  H           1     -22.485  -5.526  -8.940  0.00  0.00     0.163 HD
HETATM   12  O           1     -21.828  -2.840  -7.458  0.00  0.00    -0.271 OA
BRANCH  10  13
HETATM   13  C           1     -22.798  -3.616  -9.863  0.00  0.00     0.214 C 
BRANCH  13  14
HETATM   14  C           1     -21.895  -3.822 -11.071  0.00  0.00     0.147 C 
HETATM   15  C           1     -20.630  -4.553 -10.638  0.00  0.00     0.042 C 
BRANCH  14  16
HETATM   16  O           1     -22.569  -4.586 -12.034  0.00  0.00    -0.393 OA
HETATM   17  H           1     -22.544  -4.096 -12.838  0.00  0.00     0.210 HD
ENDBRANCH  14  16
ENDBRANCH  13  14
BRANCH  13  18
HETATM   18  C           1     -24.230  -3.891 -10.252  0.00  0.00     0.199 C 
HETATM   19  O           1     -24.875  -3.041 -10.904  0.00  0.00    -0.646 OA
HETATM   20  O           1     -24.772  -4.969  -9.924  0.00  0.00    -0.646 OA
ENDBRANCH  13  18
ENDBRANCH  10  13
ENDBRANCH   1   9
BRANCH   1  21
HETATM   21  N           1     -22.737  -5.448  -5.783  0.00  0.00    -0.066 N 
HETATM   22  H           1     -23.434  -4.672  -5.738  0.00  0.00     0.275 HD
HETATM   23  H           1     -23.155  -6.263  -6.286  0.00  0.00     0.275 HD
HETATM   24  H           1     -22.471  -5.736  -4.814  0.00  0.00     0.275 HD
ENDBRANCH   1  21
TORSDOF 9
ENDMDL
MODEL 7
REMARK VINA RESULT:      -5.7      1.858      2.692
REMARK  9 active torsions:
REMARK  status: ('A' for Active; 'I' for Inactive)
REMARK       I    between atoms: N_2  and  C_3 
REMARK    1  A    between atoms: C_3  and  C_4 
REMARK    2  A    between atoms: C_4  and  C_5 
REMARK    3  A    between atoms: C_5  and  C_6 
REMARK    4  A    between atoms: C_6  and  C_7 
REMARK    5  A    between atoms: C_6  and  N_18 
REMARK       I    between atoms: C_7  and  N_24 
REMARK    6  A    between atoms: C_9  and  C_16 
REMARK    7  A    between atoms: C_9  and  C_22 
REMARK    8  A    between atoms: C_9  and  N_24 
REMARK    9  A    between atoms: O_10  and  C_16 
ROOT
HETATM    1  C           1     -21.633  -4.304  -6.695  0.00  0.00     0.275 C 
ENDROOT
BRANCH   1   2
HETATM    2  C           1     -20.485  -4.844  -5.853  0.00  0.00     0.052 C 
BRANCH   2   3
HETATM    3  C           1     -21.028  -5.827  -4.823  0.00  0.00     0.105 C 
BRANCH   3   4
HETATM    4  C           1     -20.717  -7.236  -5.261  0.00  0.00     0.215 C 
HETATM    5  O           1     -21.310  -8.167  -4.771  0.00  0.00    -0.274 OA
HETATM    6  N           1     -19.760  -7.461  -6.215  0.00  0.00    -0.370 N 
HETATM    7  H           1     -19.551  -8.407  -6.509  0.00  0.00     0.159 HD
HETATM    8  H           1     -19.263  -6.682  -6.626  0.00  0.00     0.159 HD
ENDBRANCH   3   4
ENDBRANCH   2   3
ENDBRANCH   1   2
BRANCH   1   9
HETATM    9  C           1     -21.445  -4.725  -8.132  0.00  0.00     0.249 C 
HETATM   10  N           1     -22.307  -4.274  -9.096  0.00  0.00    -0.343 N 
HETATM   11  H           1     -23.070  -3.658  -8.844  0.00  0.00     0.163 HD
HETATM   12  O           1     -20.535  -5.460  -8.432  0.00  0.00    -0.271 OA
BRANCH  10  13
HETATM   13  C           1     -22.127  -4.678 -10.477  0.00  0.00     0.214 C 
BRANCH  13  14
HETATM   14  C           1     -23.488  -4.854 -11.136  0.00  0.00     0.147 C 
HETATM   15  C           1     -24.481  -3.882 -10.513  0.00  0.00     0.042 C 
BRANCH  14  16
HETATM   16  O           1     -23.378  -4.595 -12.510  0.00  0.00    -0.393 OA
HETATM   17  H           1     -23.763  -3.749 -12.660  0.00  0.00     0.210 HD
ENDBRANCH  14  16
ENDBRANCH  13  14
BRANCH  13  18
HETATM   18  C           1     -21.344  -3.617 -11.212  0.00  0.00     0.199 C 
HETATM   19  O           1     -20.142  -3.809 -11.492  0.00  0.00    -0.646 OA
HETATM   20  O           1     -21.900  -2.547 -11.541  0.00  0.00    -0.646 OA
ENDBRANCH  13  18
ENDBRANCH  10  13
ENDBRANCH   1   9
BRANCH   1  21
HETATM   21  N           1     -22.931  -4.852  -6.180  0.00  0.00    -0.066 N 
HETATM   22  H           1     -22.761  -5.773  -5.717  0.00  0.00     0.275 HD
HETATM   23  H           1     -23.342  -4.185  -5.488  0.00  0.00     0.275 HD
HETATM   24  H           1     -23.596  -4.979  -6.976  0.00  0.00     0.275 HD
ENDBRANCH   1  21
TORSDOF 9
ENDMDL
MODEL 8
REMARK VINA RESULT:      -5.7      2.030      6.302
REMARK  9 active torsions:
REMARK  status: ('A' for Active; 'I' for Inactive)
REMARK       I    between atoms: N_2  and  C_3 
REMARK    1  A    between atoms: C_3  and  C_4 
REMARK    2  A    between atoms: C_4  and  C_5 
REMARK    3  A    between atoms: C_5  and  C_6 
REMARK    4  A    between atoms: C_6  and  C_7 
REMARK    5  A    between atoms: C_6  and  N_18 
REMARK       I    between atoms: C_7  and  N_24 
REMARK    6  A    between atoms: C_9  and  C_16 
REMARK    7  A    between atoms: C_9  and  C_22 
REMARK    8  A    between atoms: C_9  and  N_24 
REMARK    9  A    between atoms: O_10  and  C_16 
ROOT
HETATM    1  C           1     -20.858  -4.285  -8.355  0.00  0.00     0.275 C 
ENDROOT
BRANCH   1   2
HETATM    2  C           1     -22.328  -4.558  -8.641  0.00  0.00     0.052 C 
BRANCH   2   3
HETATM    3  C           1     -22.671  -4.076 -10.044  0.00  0.00     0.105 C 
BRANCH   3   4
HETATM    4  C           1     -24.106  -3.612 -10.079  0.00  0.00     0.215 C 
HETATM    5  O           1     -24.718  -3.613 -11.120  0.00  0.00    -0.274 OA
HETATM    6  N           1     -24.717  -3.189  -8.927  0.00  0.00    -0.370 N 
HETATM    7  H           1     -25.680  -2.879  -8.950  0.00  0.00     0.159 HD
HETATM    8  H           1     -24.205  -3.188  -8.055  0.00  0.00     0.159 HD
ENDBRANCH   3   4
ENDBRANCH   2   3
ENDBRANCH   1   2
BRANCH   1   9
HETATM    9  C           1     -20.452  -4.989  -7.083  0.00  0.00     0.249 C 
HETATM   10  N           1     -21.228  -6.000  -6.583  0.00  0.00    -0.343 N 
HETATM   11  H           1     -22.074  -6.275  -7.067  0.00  0.00     0.163 HD
HETATM   12  O           1     -19.444  -4.660  -6.506  0.00  0.00    -0.271 OA
BRANCH  10  13
HETATM   13  C           1     -20.838  -6.677  -5.361  0.00  0.00     0.214 C 
BRANCH  13  14
HETATM   14  C           1     -22.045  -6.796  -4.440  0.00  0.00     0.147 C 
HETATM   15  C           1     -21.692  -6.237  -3.068  0.00  0.00     0.042 C 
BRANCH  14  16
HETATM   16  O           1     -23.117  -6.071  -4.979  0.00  0.00    -0.393 OA
HETATM   17  H           1     -23.861  -6.227  -4.423  0.00  0.00     0.210 HD
ENDBRANCH  14  16
ENDBRANCH  13  14
BRANCH  13  18
HETATM   18  C           1     -20.321  -8.055  -5.694  0.00  0.00     0.199 C 
HETATM   19  O           1     -21.094  -9.036  -5.670  0.00  0.00    -0.646 OA
HETATM   20  O           1     -19.118  -8.214  -5.997  0.00  0.00    -0.646 OA
ENDBRANCH  13  18
ENDBRANCH  10  13
ENDBRANCH   1   9
BRANCH   1  21
HETATM   21  N           1     -20.024  -4.792  -9.494  0.00  0.00    -0.066 N 
HETATM   22  H           1     -20.600  -5.427 -10.091  0.00  0.00     0.275 HD
HETATM   23  H           1     -19.688  -3.985 -10.067  0.00  0.00     0.275 HD
HETATM   24  H           1     -19.202  -5.317  -9.118  0.00  0.00     0.275 HD
ENDBRANCH   1  21
TORSDOF 9
ENDMDL
MODEL 9
REMARK VINA RESULT:      -5.7      1.887      6.527
REMARK  9 active torsions:
REMARK  status: ('A' for Active; 'I' for Inactive)
REMARK       I    between atoms: N_2  and  C_3 
REMARK    1  A    between atoms: C_3  and  C_4 
REMARK    2  A    between atoms: C_4  and  C_5 
REMARK    3  A    between atoms: C_5  and  C_6 
REMARK    4  A    between atoms: C_6  and  C_7 
REMARK    5  A    between atoms: C_6  and  N_18 
REMARK       I    between atoms: C_7  and  N_24 
REMARK    6  A    between atoms: C_9  and  C_16 
REMARK    7  A    between atoms: C_9  and  C_22 
REMARK    8  A    between atoms: C_9  and  N_24 
REMARK    9  A    between atoms: O_10  and  C_16 
ROOT
HETATM    1  C           1     -20.581  -4.646  -6.696  0.00  0.00     0.275 C 
ENDROOT
BRANCH   1   2
HETATM    2  C           1     -21.509  -3.640  -7.362  0.00  0.00     0.052 C 
BRANCH   2   3
HETATM    3  C           1     -21.641  -3.972  -8.843  0.00  0.00     0.105 C 
BRANCH   3   4
HETATM    4  C           1     -23.083  -4.279  -9.162  0.00  0.00     0.215 C 
HETATM    5  O           1     -23.380  -4.733 -10.240  0.00  0.00    -0.274 OA
HETATM    6  N           1     -24.056  -4.043  -8.227  0.00  0.00    -0.370 N 
HETATM    7  H           1     -25.024  -4.251  -8.441  0.00  0.00     0.159 HD
HETATM    8  H           1     -23.808  -3.664  -7.323  0.00  0.00     0.159 HD
ENDBRANCH   3   4
ENDBRANCH   2   3
ENDBRANCH   1   2
BRANCH   1   9
HETATM    9  C           1     -21.389  -5.583  -5.833  0.00  0.00     0.249 C 
HETATM   10  N           1     -20.756  -6.511  -5.050  0.00  0.00    -0.343 N 
HETATM   11  H           1     -19.745  -6.568  -5.050  0.00  0.00     0.163 HD
HETATM   12  O           1     -22.595  -5.516  -5.834  0.00  0.00    -0.271 OA
BRANCH  10  13
HETATM   13  C           1     -21.533  -7.412  -4.220  0.00  0.00     0.214 C 
BRANCH  13  14
HETATM   14  C           1     -20.897  -8.795  -4.240  0.00  0.00     0.147 C 
HETATM   15  C           1     -21.954  -9.843  -3.919  0.00  0.00     0.042 C 
BRANCH  14  16
HETATM   16  O           1     -20.362  -9.045  -5.513  0.00  0.00    -0.393 OA
HETATM   17  H           1     -21.088  -9.240  -6.081  0.00  0.00     0.210 HD
ENDBRANCH  14  16
ENDBRANCH  13  14
BRANCH  13  18
HETATM   18  C           1     -21.561  -6.891  -2.805  0.00  0.00     0.199 C 
HETATM   19  O           1     -20.723  -7.297  -1.971  0.00  0.00    -0.646 OA
HETATM   20  O           1     -22.423  -6.051  -2.465  0.00  0.00    -0.646 OA
ENDBRANCH  13  18
ENDBRANCH  10  13
ENDBRANCH   1   9
BRANCH   1  21
HETATM   21  N           1     -19.860  -5.434  -7.750  0.00  0.00    -0.066 N 
HETATM   22  H           1     -20.468  -5.524  -8.594  0.00  0.00     0.275 HD
HETATM   23  H           1     -18.975  -4.942  -8.009  0.00  0.00     0.275 HD
HETATM   24  H           1     -19.633  -6.385  -7.379  0.00  0.00     0.275 HD
ENDBRANCH   1  21
TORSDOF 9
ENDMDL
