MODEL 1
REMARK VINA RESULT:      -5.5      0.000      0.000
REMARK  8 active torsions:
REMARK  status: ('A' for Active; 'I' for Inactive)
REMARK    1  A    between atoms: C_2  and  C_4 
REMARK    2  A    between atoms: C_4  and  C_5 
REMARK    3  A    between atoms: C_5  and  C_6 
REMARK    4  A    between atoms: C_5  and  N_9 
REMARK       I    between atoms: N_9  and  C_10 
REMARK    5  A    between atoms: C_10  and  C_11 
REMARK    6  A    between atoms: C_11  and  C_12 
REMARK    7  A    between atoms: C_11  and  N_14 
REMARK    8  A    between atoms: C_12  and  Se_13 
ROOT
HETATM    1  N           1     -22.262  -4.856  -8.811  0.00  0.00    -0.344 N 
HETATM    2  C           1     -21.660  -4.578  -7.612  0.00  0.00     0.249 C 
HETATM    3  O           1     -21.551  -3.433  -7.242  0.00  0.00    -0.271 OA
HETATM    4  H           1     -22.353  -5.815  -9.121  0.00  0.00     0.163 HD
ENDROOT
BRANCH   1   5
HETATM    5  C           1     -22.766  -3.776  -9.636  0.00  0.00     0.195 C 
BRANCH   5   6
HETATM    6  C           1     -22.217  -3.919 -11.050  0.00  0.00     0.149 C 
BRANCH   6   7
HETATM    7  C           1     -20.719  -3.751 -11.027  0.00  0.00     0.175 C 
HETATM    8  O           1     -19.985  -4.723 -10.744  0.00  0.00    -0.648 OA
HETATM    9  O           1     -20.210  -2.640 -11.292  0.00  0.00    -0.648 OA
ENDBRANCH   6   7
ENDBRANCH   5   6
BRANCH   5  10
HETATM   10  C           1     -24.274  -3.834  -9.672  0.00  0.00     0.197 C 
HETATM   11  O           1     -24.943  -2.791  -9.517  0.00  0.00    -0.646 OA
HETATM   12  O           1     -24.852  -4.926  -9.857  0.00  0.00    -0.646 OA
ENDBRANCH   5  10
ENDBRANCH   1   5
BRANCH   2  13
HETATM   13  C           1     -21.135  -5.702  -6.753  0.00  0.00     0.274 C 
BRANCH  13  14
HETATM   14  C           1     -20.745  -5.157  -5.385  0.00  0.00     0.045 C 
BRANCH  14  15
HETATM   15 Se           1     -21.434  -6.336  -3.994  0.00  0.00     0.000 Se
HETATM   16  H           1     -20.945  -5.503  -2.884  0.00  0.00     0.000 HD
ENDBRANCH  14  15
ENDBRANCH  13  14
BRANCH  13  17
HETATM   17  N           1     -19.932  -6.312  -7.409  0.00  0.00    -0.067 N 
HETATM   18  H           1     -19.595  -7.120  -6.838  0.00  0.00     0.275 HD
HETATM   19  H           1     -20.189  -6.645  -8.366  0.00  0.00     0.275 HD
HETATM   20  H           1     -19.174  -5.596  -7.481  0.00  0.00     0.275 HD
ENDBRANCH  13  17
ENDBRANCH   2  13
TORSDOF 8
ENDMDL
MODEL 2
REMARK VINA RESULT:      -5.4      1.478      3.152
REMARK  8 active torsions:
REMARK  status: ('A' for Active; 'I' for Inactive)
REMARK    1  A    between atoms: C_2  and  C_4 
REMARK    2  A    between atoms: C_4  and  C_5 
REMARK    3  A    between atoms: C_5  and  C_6 
REMARK    4  A    between atoms: C_5  and  N_9 
REMARK       I    between atoms: N_9  and  C_10 
REMARK    5  A    between atoms: C_10  and  C_11 
REMARK    6  A    between atoms: C_11  and  C_12 
REMARK    7  A    between atoms: C_11  and  N_14 
REMARK    8  A    between atoms: C_12  and  Se_13 
ROOT
HETATM    1  N           1     -22.317  -4.174  -9.266  0.00  0.00    -0.344 N 
HETATM    2  C           1     -21.559  -4.686  -8.246  0.00  0.00     0.249 C 
HETATM    3  O           1     -20.621  -5.406  -8.493  0.00  0.00    -0.271 OA
HETATM    4  H           1     -23.103  -3.572  -9.059  0.00  0.00     0.163 HD
ENDROOT
BRANCH   1   5
HETATM    5  C           1     -21.992  -4.497 -10.642  0.00  0.00     0.195 C 
BRANCH   5   6
HETATM    6  C           1     -23.278  -4.714 -11.428  0.00  0.00     0.149 C 
BRANCH   6   7
HETATM    7  C           1     -24.453  -4.235 -10.614  0.00  0.00     0.175 C 
HETATM    8  O           1     -24.955  -4.978  -9.743  0.00  0.00    -0.648 OA
HETATM    9  O           1     -24.926  -3.094 -10.809  0.00  0.00    -0.648 OA
ENDBRANCH   6   7
ENDBRANCH   5   6
BRANCH   5  10
HETATM   10  C           1     -21.213  -3.358 -11.253  0.00  0.00     0.197 C 
HETATM   11  O           1     -21.817  -2.392 -11.766  0.00  0.00    -0.646 OA
HETATM   12  O           1     -19.963  -3.381 -11.247  0.00  0.00    -0.646 OA
ENDBRANCH   5  10
ENDBRANCH   1   5
BRANCH   2  13
HETATM   13  C           1     -21.897  -4.351  -6.813  0.00  0.00     0.274 C 
BRANCH  13  14
HETATM   14  C           1     -21.038  -5.192  -5.879  0.00  0.00     0.045 C 
BRANCH  14  15
HETATM   15 Se           1     -22.143  -6.552  -5.026  0.00  0.00     0.000 Se
HETATM   16  H           1     -23.388  -6.116  -5.680  0.00  0.00     0.000 HD
ENDBRANCH  14  15
ENDBRANCH  13  14
BRANCH  13  17
HETATM   17  N           1     -23.346  -4.646  -6.560  0.00  0.00    -0.067 N 
HETATM   18  H           1     -23.475  -5.674  -6.426  0.00  0.00     0.275 HD
HETATM   19  H           1     -23.658  -4.142  -5.699  0.00  0.00     0.275 HD
HETATM   20  H           1     -23.914  -4.327  -7.376  0.00  0.00     0.275 HD
ENDBRANCH  13  17
ENDBRANCH   2  13
TORSDOF 8
ENDMDL
MODEL 3
REMARK VINA RESULT:      -4.7      3.025      5.668
REMARK  8 active torsions:
REMARK  status: ('A' for Active; 'I' for Inactive)
REMARK    1  A    between atoms: C_2  and  C_4 
REMARK    2  A    between atoms: C_4  and  C_5 
REMARK    3  A    between atoms: C_5  and  C_6 
REMARK    4  A    between atoms: C_5  and  N_9 
REMARK       I    between atoms: N_9  and  C_10 
REMARK    5  A    between atoms: C_10  and  C_11 
REMARK    6  A    between atoms: C_11  and  C_12 
REMARK    7  A    between atoms: C_11  and  N_14 
REMARK    8  A    between atoms: C_12  and  Se_13 
ROOT
HETATM    1  N           1     -21.896  -5.465  -7.654  0.00  0.00    -0.344 N 
HETATM    2  C           1     -22.285  -4.248  -8.149  0.00  0.00     0.249 C 
HETATM    3  O           1     -21.887  -3.231  -7.633  0.00  0.00    -0.271 OA
HETATM    4  H           1     -22.230  -6.317  -8.085  0.00  0.00     0.163 HD
ENDROOT
BRANCH   1   5
HETATM    5  C           1     -21.006  -5.530  -6.510  0.00  0.00     0.195 C 
BRANCH   5   6
HETATM    6  C           1     -21.398  -6.710  -5.630  0.00  0.00     0.149 C 
BRANCH   6   7
HETATM    7  C           1     -22.513  -6.297  -4.703  0.00  0.00     0.175 C 
HETATM    8  O           1     -23.641  -6.020  -5.166  0.00  0.00    -0.648 OA
HETATM    9  O           1     -22.310  -6.231  -3.471  0.00  0.00    -0.648 OA
ENDBRANCH   6   7
ENDBRANCH   5   6
BRANCH   5  10
HETATM   10  C           1     -19.586  -5.709  -6.990  0.00  0.00     0.197 C 
HETATM   11  O           1     -18.876  -4.709  -7.227  0.00  0.00    -0.646 OA
HETATM   12  O           1     -19.121  -6.858  -7.149  0.00  0.00    -0.646 OA
ENDBRANCH   5  10
ENDBRANCH   1   5
BRANCH   2  13
HETATM   13  C           1     -23.212  -4.179  -9.338  0.00  0.00     0.274 C 
BRANCH  13  14
HETATM   14  C           1     -22.535  -3.410 -10.465  0.00  0.00     0.045 C 
BRANCH  14  15
HETATM   15 Se           1     -20.814  -4.229 -10.870  0.00  0.00     0.000 Se
HETATM   16  H           1     -21.161  -4.545 -12.265  0.00  0.00     0.000 HD
ENDBRANCH  14  15
ENDBRANCH  13  14
BRANCH  13  17
HETATM   17  N           1     -24.478  -3.478  -8.945  0.00  0.00    -0.067 N 
HETATM   18  H           1     -24.254  -2.514  -8.609  0.00  0.00     0.275 HD
HETATM   19  H           1     -25.114  -3.418  -9.772  0.00  0.00     0.275 HD
HETATM   20  H           1     -24.949  -4.012  -8.181  0.00  0.00     0.275 HD
ENDBRANCH  13  17
ENDBRANCH   2  13
TORSDOF 8
ENDMDL
MODEL 4
REMARK VINA RESULT:      -4.7      4.259      6.558
REMARK  8 active torsions:
REMARK  status: ('A' for Active; 'I' for Inactive)
REMARK    1  A    between atoms: C_2  and  C_4 
REMARK    2  A    between atoms: C_4  and  C_5 
REMARK    3  A    between atoms: C_5  and  C_6 
REMARK    4  A    between atoms: C_5  and  N_9 
REMARK       I    between atoms: N_9  and  C_10 
REMARK    5  A    between atoms: C_10  and  C_11 
REMARK    6  A    between atoms: C_11  and  C_12 
REMARK    7  A    between atoms: C_11  and  N_14 
REMARK    8  A    between atoms: C_12  and  Se_13 
ROOT
HETATM    1  N           1     -20.838  -6.742  -4.729  0.00  0.00    -0.344 N 
HETATM    2  C           1     -21.376  -5.826  -5.594  0.00  0.00     0.249 C 
HETATM    3  O           1     -22.570  -5.651  -5.622  0.00  0.00    -0.271 OA
HETATM    4  H           1     -19.837  -6.890  -4.706  0.00  0.00     0.163 HD
ENDROOT
BRANCH   1   5
HETATM    5  C           1     -21.704  -7.500  -3.846  0.00  0.00     0.195 C 
BRANCH   5   6
HETATM    6  C           1     -21.237  -8.949  -3.801  0.00  0.00     0.149 C 
BRANCH   6   7
HETATM    7  C           1     -19.940  -9.085  -4.559  0.00  0.00     0.175 C 
HETATM    8  O           1     -18.851  -8.921  -3.967  0.00  0.00    -0.648 OA
HETATM    9  O           1     -19.954  -9.360  -5.778  0.00  0.00    -0.648 OA
ENDBRANCH   6   7
ENDBRANCH   5   6
BRANCH   5  10
HETATM   10  C           1     -21.648  -6.909  -2.459  0.00  0.00     0.197 C 
HETATM   11  O           1     -20.927  -7.434  -1.585  0.00  0.00    -0.646 OA
HETATM   12  O           1     -22.323  -5.893  -2.186  0.00  0.00    -0.646 OA
ENDBRANCH   5  10
ENDBRANCH   1   5
BRANCH   2  13
HETATM   13  C           1     -20.475  -5.038  -6.513  0.00  0.00     0.274 C 
BRANCH  13  14
HETATM   14  C           1     -21.257  -3.881  -7.122  0.00  0.00     0.045 C 
BRANCH  14  15
HETATM   15 Se           1     -21.763  -4.329  -8.950  0.00  0.00     0.000 Se
HETATM   16  H           1     -23.018  -3.560  -8.915  0.00  0.00     0.000 HD
ENDBRANCH  14  15
ENDBRANCH  13  14
BRANCH  13  17
HETATM   17  N           1     -19.972  -5.931  -7.608  0.00  0.00    -0.067 N 
HETATM   18  H           1     -19.398  -6.700  -7.195  0.00  0.00     0.275 HD
HETATM   19  H           1     -20.784  -6.342  -8.123  0.00  0.00     0.275 HD
HETATM   20  H           1     -19.385  -5.375  -8.269  0.00  0.00     0.275 HD
ENDBRANCH  13  17
ENDBRANCH   2  13
TORSDOF 8
ENDMDL
MODEL 5
REMARK VINA RESULT:      -4.5      4.115      6.664
REMARK  8 active torsions:
REMARK  status: ('A' for Active; 'I' for Inactive)
REMARK    1  A    between atoms: C_2  and  C_4 
REMARK    2  A    between atoms: C_4  and  C_5 
REMARK    3  A    between atoms: C_5  and  C_6 
REMARK    4  A    between atoms: C_5  and  N_9 
REMARK       I    between atoms: N_9  and  C_10 
REMARK    5  A    between atoms: C_10  and  C_11 
REMARK    6  A    between atoms: C_11  and  C_12 
REMARK    7  A    between atoms: C_11  and  N_14 
REMARK    8  A    between atoms: C_12  and  Se_13 
ROOT
HETATM    1  N           1     -20.945  -6.835  -6.317  0.00  0.00    -0.344 N 
HETATM    2  C           1     -20.903  -5.488  -6.564  0.00  0.00     0.249 C 
HETATM    3  O           1     -20.518  -4.729  -5.707  0.00  0.00    -0.271 OA
HETATM    4  H           1     -21.268  -7.471  -7.035  0.00  0.00     0.163 HD
ENDROOT
BRANCH   1   5
HETATM    5  C           1     -20.527  -7.348  -5.027  0.00  0.00     0.195 C 
BRANCH   5   6
HETATM    6  C           1     -21.756  -7.626  -4.171  0.00  0.00     0.149 C 
BRANCH   6   7
HETATM    7  C           1     -21.630  -6.895  -2.858  0.00  0.00     0.175 C 
HETATM    8  O           1     -20.748  -7.230  -2.038  0.00  0.00    -0.648 OA
HETATM    9  O           1     -22.408  -5.953  -2.589  0.00  0.00    -0.648 OA
ENDBRANCH   6   7
ENDBRANCH   5   6
BRANCH   5  10
HETATM   10  C           1     -19.750  -8.627  -5.223  0.00  0.00     0.197 C 
HETATM   11  O           1     -18.824  -8.673  -6.060  0.00  0.00    -0.646 OA
HETATM   12  O           1     -20.034  -9.640  -4.548  0.00  0.00    -0.646 OA
ENDBRANCH   5  10
ENDBRANCH   1   5
BRANCH   2  13
HETATM   13  C           1     -21.338  -4.953  -7.906  0.00  0.00     0.274 C 
BRANCH  13  14
HETATM   14  C           1     -20.115  -4.491  -8.689  0.00  0.00     0.045 C 
BRANCH  14  15
HETATM   15 Se           1     -20.602  -4.224 -10.557  0.00  0.00     0.000 Se
HETATM   16  H           1     -21.894  -3.589 -10.251  0.00  0.00     0.000 HD
ENDBRANCH  14  15
ENDBRANCH  13  14
BRANCH  13  17
HETATM   17  N           1     -22.268  -3.794  -7.705  0.00  0.00    -0.067 N 
HETATM   18  H           1     -22.583  -3.433  -8.634  0.00  0.00     0.275 HD
HETATM   19  H           1     -23.100  -4.107  -7.154  0.00  0.00     0.275 HD
HETATM   20  H           1     -21.772  -3.035  -7.186  0.00  0.00     0.275 HD
ENDBRANCH  13  17
ENDBRANCH   2  13
TORSDOF 8
ENDMDL
MODEL 6
REMARK VINA RESULT:      -4.5      6.095      8.736
REMARK  8 active torsions:
REMARK  status: ('A' for Active; 'I' for Inactive)
REMARK    1  A    between atoms: C_2  and  C_4 
REMARK    2  A    between atoms: C_4  and  C_5 
REMARK    3  A    between atoms: C_5  and  C_6 
REMARK    4  A    between atoms: C_5  and  N_9 
REMARK       I    between atoms: N_9  and  C_10 
REMARK    5  A    between atoms: C_10  and  C_11 
REMARK    6  A    between atoms: C_11  and  C_12 
REMARK    7  A    between atoms: C_11  and  N_14 
REMARK    8  A    between atoms: C_12  and  Se_13 
ROOT
HETATM    1  N           1     -21.716  -8.446  -2.751  0.00  0.00    -0.344 N 
HETATM    2  C           1     -20.907  -8.102  -3.801  0.00  0.00     0.249 C 
HETATM    3  O           1     -19.724  -8.342  -3.757  0.00  0.00    -0.271 OA
HETATM    4  H           1     -22.707  -8.244  -2.787  0.00  0.00     0.163 HD
ENDROOT
BRANCH   1   5
HETATM    5  C           1     -21.151  -9.098  -1.585  0.00  0.00     0.195 C 
BRANCH   5   6
HETATM    6  C           1     -21.188  -8.141  -0.401  0.00  0.00     0.149 C 
BRANCH   6   7
HETATM    7  C           1     -22.411  -7.264  -0.502  0.00  0.00     0.175 C 
HETATM    8  O           1     -22.377  -6.221  -1.191  0.00  0.00    -0.648 OA
HETATM    9  O           1     -23.458  -7.578   0.104  0.00  0.00    -0.648 OA
ENDBRANCH   6   7
ENDBRANCH   5   6
BRANCH   5  10
HETATM   10  C           1     -21.956 -10.333  -1.262  0.00  0.00     0.197 C 
HETATM   11  O           1     -21.866 -10.860  -0.133  0.00  0.00    -0.646 OA
HETATM   12  O           1     -22.714 -10.827  -2.124  0.00  0.00    -0.646 OA
ENDBRANCH   5  10
ENDBRANCH   1   5
BRANCH   2  13
HETATM   13  C           1     -21.494  -7.423  -5.014  0.00  0.00     0.274 C 
BRANCH  13  14
HETATM   14  C           1     -20.371  -6.851  -5.870  0.00  0.00     0.045 C 
BRANCH  14  15
HETATM   15 Se           1     -20.363  -4.908  -5.718  0.00  0.00     0.000 Se
HETATM   16  H           1     -20.262  -4.678  -7.168  0.00  0.00     0.000 HD
ENDBRANCH  14  15
ENDBRANCH  13  14
BRANCH  13  17
HETATM   17  N           1     -22.402  -6.312  -4.575  0.00  0.00    -0.067 N 
HETATM   18  H           1     -21.861  -5.625  -4.003  0.00  0.00     0.275 HD
HETATM   19  H           1     -22.796  -5.831  -5.415  0.00  0.00     0.275 HD
HETATM   20  H           1     -23.181  -6.706  -4.001  0.00  0.00     0.275 HD
ENDBRANCH  13  17
ENDBRANCH   2  13
TORSDOF 8
ENDMDL
MODEL 7
REMARK VINA RESULT:      -4.4      5.398      8.001
REMARK  8 active torsions:
REMARK  status: ('A' for Active; 'I' for Inactive)
REMARK    1  A    between atoms: C_2  and  C_4 
REMARK    2  A    between atoms: C_4  and  C_5 
REMARK    3  A    between atoms: C_5  and  C_6 
REMARK    4  A    between atoms: C_5  and  N_9 
REMARK       I    between atoms: N_9  and  C_10 
REMARK    5  A    between atoms: C_10  and  C_11 
REMARK    6  A    between atoms: C_11  and  C_12 
REMARK    7  A    between atoms: C_11  and  N_14 
REMARK    8  A    between atoms: C_12  and  Se_13 
ROOT
HETATM    1  N           1     -21.515  -7.912  -3.601  0.00  0.00    -0.344 N 
HETATM    2  C           1     -20.799  -7.667  -4.743  0.00  0.00     0.249 C 
HETATM    3  O           1     -19.656  -8.050  -4.832  0.00  0.00    -0.271 OA
HETATM    4  H           1     -22.472  -7.590  -3.525  0.00  0.00     0.163 HD
ENDROOT
BRANCH   1   5
HETATM    5  C           1     -20.902  -8.630  -2.500  0.00  0.00     0.195 C 
BRANCH   5   6
HETATM    6  C           1     -20.893  -7.746  -1.261  0.00  0.00     0.149 C 
BRANCH   6   7
HETATM    7  C           1     -22.140  -6.897  -1.239  0.00  0.00     0.175 C 
HETATM    8  O           1     -23.076  -7.181  -0.461  0.00  0.00    -0.648 OA
HETATM    9  O           1     -22.237  -5.909  -1.999  0.00  0.00    -0.648 OA
ENDBRANCH   6   7
ENDBRANCH   5   6
BRANCH   5  10
HETATM   10  C           1     -21.691  -9.886  -2.219  0.00  0.00     0.197 C 
HETATM   11  O           1     -21.603 -10.443  -1.105  0.00  0.00    -0.646 OA
HETATM   12  O           1     -22.433 -10.367  -3.102  0.00  0.00    -0.646 OA
ENDBRANCH   5  10
ENDBRANCH   1   5
BRANCH   2  13
HETATM   13  C           1     -21.436  -6.920  -5.888  0.00  0.00     0.274 C 
BRANCH  13  14
HETATM   14  C           1     -20.369  -6.134  -6.638  0.00  0.00     0.045 C 
BRANCH  14  15
HETATM   15 Se           1     -21.223  -4.930  -7.912  0.00  0.00     0.000 Se
HETATM   16  H           1     -22.202  -5.927  -8.374  0.00  0.00     0.000 HD
ENDBRANCH  14  15
ENDBRANCH  13  14
BRANCH  13  17
HETATM   17  N           1     -22.470  -5.974  -5.353  0.00  0.00    -0.067 N 
HETATM   18  H           1     -22.093  -5.485  -4.510  0.00  0.00     0.275 HD
HETATM   19  H           1     -22.708  -5.267  -6.086  0.00  0.00     0.275 HD
HETATM   20  H           1     -23.329  -6.508  -5.091  0.00  0.00     0.275 HD
ENDBRANCH  13  17
ENDBRANCH   2  13
TORSDOF 8
ENDMDL
MODEL 8
REMARK VINA RESULT:      -4.2      8.100      9.601
REMARK  8 active torsions:
REMARK  status: ('A' for Active; 'I' for Inactive)
REMARK    1  A    between atoms: C_2  and  C_4 
REMARK    2  A    between atoms: C_4  and  C_5 
REMARK    3  A    between atoms: C_5  and  C_6 
REMARK    4  A    between atoms: C_5  and  N_9 
REMARK       I    between atoms: N_9  and  C_10 
REMARK    5  A    between atoms: C_10  and  C_11 
REMARK    6  A    between atoms: C_11  and  C_12 
REMARK    7  A    between atoms: C_11  and  N_14 
REMARK    8  A    between atoms: C_12  and  Se_13 
ROOT
HETATM    1  N           1     -21.671  -9.541  -0.739  0.00  0.00    -0.344 N 
HETATM    2  C           1     -21.389 -10.348   0.332  0.00  0.00     0.249 C 
HETATM    3  O           1     -20.773  -9.909   1.273  0.00  0.00    -0.271 OA
HETATM    4  H           1     -22.186  -9.909  -1.528  0.00  0.00     0.163 HD
ENDROOT
BRANCH   1   5
HETATM    5  C           1     -21.229  -8.160  -0.741  0.00  0.00     0.195 C 
BRANCH   5   6
HETATM    6  C           1     -20.441  -7.882  -2.015  0.00  0.00     0.149 C 
BRANCH   6   7
HETATM    7  C           1     -20.706  -8.975  -3.019  0.00  0.00     0.175 C 
HETATM    8  O           1     -19.911  -9.934  -3.124  0.00  0.00    -0.648 OA
HETATM    9  O           1     -21.721  -8.922  -3.748  0.00  0.00    -0.648 OA
ENDBRANCH   6   7
ENDBRANCH   5   6
BRANCH   5  10
HETATM   10  C           1     -22.431  -7.249  -0.683  0.00  0.00     0.197 C 
HETATM   11  O           1     -22.493  -6.248  -1.429  0.00  0.00    -0.646 OA
HETATM   12  O           1     -23.364  -7.496   0.111  0.00  0.00    -0.646 OA
ENDBRANCH   5  10
ENDBRANCH   1   5
BRANCH   2  13
HETATM   13  C           1     -21.848 -11.785   0.334  0.00  0.00     0.274 C 
BRANCH  13  14
HETATM   14  C           1     -21.247 -12.513  -0.861  0.00  0.00     0.045 C 
BRANCH  14  15
HETATM   15 Se           1     -19.324 -12.703  -0.607  0.00  0.00     0.000 Se
HETATM   16  H           1     -19.139 -11.335  -0.097  0.00  0.00     0.000 HD
ENDBRANCH  14  15
ENDBRANCH  13  14
BRANCH  13  17
HETATM   17  N           1     -23.345 -11.831   0.246  0.00  0.00    -0.067 N 
HETATM   18  H           1     -23.634 -12.609  -0.390  0.00  0.00     0.275 HD
HETATM   19  H           1     -23.745 -11.995   1.198  0.00  0.00     0.275 HD
HETATM   20  H           1     -23.700 -10.924  -0.130  0.00  0.00     0.275 HD
ENDBRANCH  13  17
ENDBRANCH   2  13
TORSDOF 8
ENDMDL
MODEL 9
REMARK VINA RESULT:      -4.2      5.551      7.547
REMARK  8 active torsions:
REMARK  status: ('A' for Active; 'I' for Inactive)
REMARK    1  A    between atoms: C_2  and  C_4 
REMARK    2  A    between atoms: C_4  and  C_5 
REMARK    3  A    between atoms: C_5  and  C_6 
REMARK    4  A    between atoms: C_5  and  N_9 
REMARK       I    between atoms: N_9  and  C_10 
REMARK    5  A    between atoms: C_10  and  C_11 
REMARK    6  A    between atoms: C_11  and  C_12 
REMARK    7  A    between atoms: C_11  and  N_14 
REMARK    8  A    between atoms: C_12  and  Se_13 
ROOT
HETATM    1  N           1     -21.005  -8.450  -3.211  0.00  0.00    -0.344 N 
HETATM    2  C           1     -19.910  -9.262  -3.343  0.00  0.00     0.249 C 
HETATM    3  O           1     -18.956  -9.111  -2.617  0.00  0.00    -0.271 OA
HETATM    4  H           1     -21.804  -8.576  -3.820  0.00  0.00     0.163 HD
ENDROOT
BRANCH   1   5
HETATM    5  C           1     -21.019  -7.409  -2.201  0.00  0.00     0.195 C 
BRANCH   5   6
HETATM    6  C           1     -21.333  -6.071  -2.857  0.00  0.00     0.149 C 
BRANCH   6   7
HETATM    7  C           1     -21.572  -6.277  -4.331  0.00  0.00     0.175 C 
HETATM    8  O           1     -22.740  -6.301  -4.777  0.00  0.00    -0.648 OA
HETATM    9  O           1     -20.604  -6.424  -5.108  0.00  0.00    -0.648 OA
ENDBRANCH   6   7
ENDBRANCH   5   6
BRANCH   5  10
HETATM   10  C           1     -22.075  -7.726  -1.170  0.00  0.00     0.197 C 
HETATM   11  O           1     -22.791  -6.812  -0.708  0.00  0.00    -0.646 OA
HETATM   12  O           1     -22.232  -8.902  -0.778  0.00  0.00    -0.646 OA
ENDBRANCH   5  10
ENDBRANCH   1   5
BRANCH   2  13
HETATM   13  C           1     -19.895 -10.344  -4.394  0.00  0.00     0.274 C 
BRANCH  13  14
HETATM   14  C           1     -18.487 -10.912  -4.519  0.00  0.00     0.045 C 
BRANCH  14  15
HETATM   15 Se           1     -17.517  -9.946  -5.906  0.00  0.00     0.000 Se
HETATM   16  H           1     -18.378 -10.420  -7.001  0.00  0.00     0.000 HD
ENDBRANCH  14  15
ENDBRANCH  13  14
BRANCH  13  17
HETATM   17  N           1     -20.319  -9.767  -5.712  0.00  0.00    -0.067 N 
HETATM   18  H           1     -20.940  -8.943  -5.549  0.00  0.00     0.275 HD
HETATM   19  H           1     -19.473  -9.463  -6.247  0.00  0.00     0.275 HD
HETATM   20  H           1     -20.836 -10.491  -6.259  0.00  0.00     0.275 HD
ENDBRANCH  13  17
ENDBRANCH   2  13
TORSDOF 8
ENDMDL
