MODEL 1
REMARK VINA RESULT:      -6.1      0.000      0.000
REMARK  5 active torsions:
REMARK  status: ('A' for Active; 'I' for Inactive)
REMARK    1  A    between atoms: N_6  and  C_13 
REMARK       I    between atoms: N_6  and  C_17 
REMARK    2  A    between atoms: C_13  and  C_19 
REMARK    3  A    between atoms: C_13  and  C_14 
REMARK    4  A    between atoms: C_14  and  C_15 
REMARK    5  A    between atoms: C_16  and  C_17 
ROOT
HETATM    1  C           1     -26.664  -6.304 -16.929  0.00  0.00     0.191 C 
ENDROOT
BRANCH   1   2
HETATM    2  N           1     -26.895  -4.915 -16.581  0.00  0.00    -0.344 N 
HETATM    3  H           1     -26.202  -4.406 -16.046  0.00  0.00     0.163 HD
HETATM    4  C           1     -28.049  -4.293 -16.974  0.00  0.00     0.252 C 
HETATM    5  O           1     -28.241  -3.137 -16.683  0.00  0.00    -0.271 OA
BRANCH   4   6
HETATM    6  C           1     -29.081  -5.053 -17.771  0.00  0.00     0.372 C 
HETATM    7  C           1     -30.240  -4.149 -18.155  0.00  0.00     0.048 C 
HETATM    8  C           1     -31.288  -4.366 -17.070  0.00  0.00     0.033 C 
HETATM    9  C           1     -30.677  -5.388 -16.126  0.00  0.00     0.271 C 
HETATM   10  N           1     -29.705  -6.093 -16.957  0.00  0.00     0.097 N 
HETATM   11  H           1     -30.189  -6.771 -17.545  0.00  0.00     0.317 HD
ENDBRANCH   4   6
ENDBRANCH   1   2
BRANCH   1  12
HETATM   12  C           1     -26.659  -7.143 -15.675  0.00  0.00     0.197 C 
HETATM   13  O           1     -25.576  -7.457 -15.137  0.00  0.00    -0.646 OA
HETATM   14  O           1     -27.739  -7.524 -15.175  0.00  0.00    -0.646 OA
ENDBRANCH   1  12
BRANCH   1  15
HETATM   15  C           1     -25.318  -6.433 -17.631  0.00  0.00     0.090 C 
BRANCH  15  16
HETATM   16  C           1     -25.530  -6.924 -19.031  0.00  0.00     0.008 A 
HETATM   17  N           1     -26.747  -6.989 -19.657  0.00  0.00    -0.358 N 
HETATM   18  C           1     -26.496  -7.469 -20.853  0.00  0.00     0.176 A 
ATOM     19  HN          1     -27.654  -6.721 -19.276  1.00  0.00     0.166 HD
HETATM   20  N           1     -25.163  -7.717 -21.023  0.00  0.00    -0.380 N 
HETATM   21  H           1     -24.708  -8.102 -21.887  0.00  0.00     0.160 HD
HETATM   22  C           1     -24.530  -7.372 -19.860  0.00  0.00     0.109 A 
ENDBRANCH  15  16
ENDBRANCH   1  15
TORSDOF 5
ENDMDL
MODEL 2
REMARK VINA RESULT:      -5.8      1.919      5.141
REMARK  5 active torsions:
REMARK  status: ('A' for Active; 'I' for Inactive)
REMARK    1  A    between atoms: N_6  and  C_13 
REMARK       I    between atoms: N_6  and  C_17 
REMARK    2  A    between atoms: C_13  and  C_19 
REMARK    3  A    between atoms: C_13  and  C_14 
REMARK    4  A    between atoms: C_14  and  C_15 
REMARK    5  A    between atoms: C_16  and  C_17 
ROOT
HETATM    1  C           1     -27.026  -5.841 -17.001  0.00  0.00     0.191 C 
ENDROOT
BRANCH   1   2
HETATM    2  N           1     -27.688  -6.661 -17.996  0.00  0.00    -0.344 N 
HETATM    3  H           1     -28.579  -7.093 -17.783  0.00  0.00     0.163 HD
HETATM    4  C           1     -27.110  -6.852 -19.221  0.00  0.00     0.252 C 
HETATM    5  O           1     -27.662  -7.535 -20.050  0.00  0.00    -0.271 OA
BRANCH   4   6
HETATM    6  C           1     -25.783  -6.207 -19.537  0.00  0.00     0.372 C 
HETATM    7  C           1     -25.661  -5.921 -21.025  0.00  0.00     0.048 C 
HETATM    8  C           1     -24.926  -7.125 -21.602  0.00  0.00     0.033 C 
HETATM    9  C           1     -24.659  -8.034 -20.414  0.00  0.00     0.271 C 
HETATM   10  N           1     -24.681  -7.127 -19.269  0.00  0.00     0.097 N 
HETATM   11  H           1     -23.794  -6.625 -19.216  0.00  0.00     0.317 HD
ENDBRANCH   4   6
ENDBRANCH   1   2
BRANCH   1  12
HETATM   12  C           1     -25.995  -6.668 -16.272  0.00  0.00     0.197 C 
HETATM   13  O           1     -26.357  -7.536 -15.449  0.00  0.00    -0.646 OA
HETATM   14  O           1     -24.778  -6.485 -16.492  0.00  0.00    -0.646 OA
ENDBRANCH   1  12
BRANCH   1  15
HETATM   15  C           1     -28.055  -5.321 -16.006  0.00  0.00     0.090 C 
BRANCH  15  16
HETATM   16  C           1     -29.055  -4.466 -16.722  0.00  0.00     0.008 A 
HETATM   17  N           1     -30.353  -4.827 -16.970  0.00  0.00    -0.358 N 
HETATM   18  C           1     -30.880  -3.810 -17.611  0.00  0.00     0.176 A 
ATOM     19  HN          1     -30.812  -5.701 -16.712  1.00  0.00     0.166 HD
HETATM   20  N           1     -29.971  -2.805 -17.787  0.00  0.00    -0.380 N 
HETATM   21  H           1     -30.145  -1.888 -18.268  0.00  0.00     0.160 HD
HETATM   22  C           1     -28.794  -3.212 -17.221  0.00  0.00     0.109 A 
ENDBRANCH  15  16
ENDBRANCH   1  15
TORSDOF 5
ENDMDL
MODEL 3
REMARK VINA RESULT:      -5.6      1.624      2.109
REMARK  5 active torsions:
REMARK  status: ('A' for Active; 'I' for Inactive)
REMARK    1  A    between atoms: N_6  and  C_13 
REMARK       I    between atoms: N_6  and  C_17 
REMARK    2  A    between atoms: C_13  and  C_19 
REMARK    3  A    between atoms: C_13  and  C_14 
REMARK    4  A    between atoms: C_14  and  C_15 
REMARK    5  A    between atoms: C_16  and  C_17 
ROOT
HETATM    1  C           1     -25.822  -6.839 -17.734  0.00  0.00     0.191 C 
ENDROOT
BRANCH   1   2
HETATM    2  N           1     -26.640  -5.786 -18.305  0.00  0.00    -0.344 N 
HETATM    3  H           1     -26.200  -4.981 -18.735  0.00  0.00     0.163 HD
HETATM    4  C           1     -28.005  -5.879 -18.262  0.00  0.00     0.252 C 
HETATM    5  O           1     -28.685  -5.002 -18.738  0.00  0.00    -0.271 OA
BRANCH   4   6
HETATM    6  C           1     -28.659  -7.079 -17.622  0.00  0.00     0.372 C 
HETATM    7  C           1     -29.971  -7.412 -18.312  0.00  0.00     0.048 C 
HETATM    8  C           1     -31.042  -6.706 -17.489  0.00  0.00     0.033 C 
HETATM    9  C           1     -30.288  -6.013 -16.367  0.00  0.00     0.271 C 
HETATM   10  N           1     -29.054  -6.784 -16.247  0.00  0.00     0.097 N 
HETATM   11  H           1     -29.239  -7.644 -15.731  0.00  0.00     0.317 HD
ENDBRANCH   4   6
ENDBRANCH   1   2
BRANCH   1  12
HETATM   12  C           1     -25.722  -6.644 -16.241  0.00  0.00     0.197 C 
HETATM   13  O           1     -26.263  -7.461 -15.466  0.00  0.00    -0.646 OA
HETATM   14  O           1     -25.098  -5.664 -15.780  0.00  0.00    -0.646 OA
ENDBRANCH   1  12
BRANCH   1  15
HETATM   15  C           1     -24.429  -6.788 -18.347  0.00  0.00     0.090 C 
BRANCH  15  16
HETATM   16  C           1     -24.450  -7.449 -19.691  0.00  0.00     0.008 A 
HETATM   17  N           1     -23.374  -8.066 -20.273  0.00  0.00    -0.358 N 
HETATM   18  C           1     -23.810  -8.508 -21.430  0.00  0.00     0.176 A 
ATOM     19  HN          1     -22.433  -8.162 -19.888  1.00  0.00     0.166 HD
HETATM   20  N           1     -25.128  -8.199 -21.618  0.00  0.00    -0.380 N 
HETATM   21  H           1     -25.708  -8.440 -22.459  0.00  0.00     0.160 HD
HETATM   22  C           1     -25.553  -7.519 -20.509  0.00  0.00     0.109 A 
ENDBRANCH  15  16
ENDBRANCH   1  15
TORSDOF 5
ENDMDL
MODEL 4
REMARK VINA RESULT:      -5.5     13.730     16.120
REMARK  5 active torsions:
REMARK  status: ('A' for Active; 'I' for Inactive)
REMARK    1  A    between atoms: N_6  and  C_13 
REMARK       I    between atoms: N_6  and  C_17 
REMARK    2  A    between atoms: C_13  and  C_19 
REMARK    3  A    between atoms: C_13  and  C_14 
REMARK    4  A    between atoms: C_14  and  C_15 
REMARK    5  A    between atoms: C_16  and  C_17 
ROOT
HETATM    1  C           1     -20.726  -8.214  -3.334  0.00  0.00     0.191 C 
ENDROOT
BRANCH   1   2
HETATM    2  N           1     -21.912  -7.507  -3.777  0.00  0.00    -0.344 N 
HETATM    3  H           1     -22.809  -7.708  -3.353  0.00  0.00     0.163 HD
HETATM    4  C           1     -21.818  -6.568  -4.769  0.00  0.00     0.252 C 
HETATM    5  O           1     -22.806  -5.979  -5.138  0.00  0.00    -0.271 OA
BRANCH   4   6
HETATM    6  C           1     -20.481  -6.268  -5.400  0.00  0.00     0.372 C 
HETATM    7  C           1     -20.228  -4.771  -5.445  0.00  0.00     0.048 C 
HETATM    8  C           1     -20.694  -4.332  -6.829  0.00  0.00     0.033 C 
HETATM    9  C           1     -21.182  -5.602  -7.505  0.00  0.00     0.271 C 
HETATM   10  N           1     -20.467  -6.666  -6.805  0.00  0.00     0.097 N 
HETATM   11  H           1     -19.512  -6.722  -7.156  0.00  0.00     0.317 HD
ENDBRANCH   4   6
ENDBRANCH   1   2
BRANCH   1  12
HETATM   12  C           1     -20.956  -9.701  -3.447  0.00  0.00     0.197 C 
HETATM   13  O           1     -22.038 -10.135  -3.898  0.00  0.00    -0.646 OA
HETATM   14  O           1     -20.064 -10.500  -3.089  0.00  0.00    -0.646 OA
ENDBRANCH   1  12
BRANCH   1  15
HETATM   15  C           1     -20.435  -7.855  -1.882  0.00  0.00     0.090 C 
BRANCH  15  16
HETATM   16  C           1     -21.631  -8.174  -1.039  0.00  0.00     0.008 A 
HETATM   17  N           1     -22.077  -9.441  -0.769  0.00  0.00    -0.358 N 
HETATM   18  C           1     -23.134  -9.282  -0.007  0.00  0.00     0.176 A 
ATOM     19  HN          1     -21.673 -10.321  -1.091  1.00  0.00     0.166 HD
HETATM   20  N           1     -23.389  -7.959   0.225  0.00  0.00    -0.380 N 
HETATM   21  H           1     -24.175  -7.570   0.802  0.00  0.00     0.160 HD
HETATM   22  C           1     -22.431  -7.236  -0.432  0.00  0.00     0.109 A 
ENDBRANCH  15  16
ENDBRANCH   1  15
TORSDOF 5
ENDMDL
MODEL 5
REMARK VINA RESULT:      -5.2     14.899     17.018
REMARK  5 active torsions:
REMARK  status: ('A' for Active; 'I' for Inactive)
REMARK    1  A    between atoms: N_6  and  C_13 
REMARK       I    between atoms: N_6  and  C_17 
REMARK    2  A    between atoms: C_13  and  C_19 
REMARK    3  A    between atoms: C_13  and  C_14 
REMARK    4  A    between atoms: C_14  and  C_15 
REMARK    5  A    between atoms: C_16  and  C_17 
ROOT
HETATM    1  C           1     -20.365  -8.777  -4.027  0.00  0.00     0.191 C 
ENDROOT
BRANCH   1   2
HETATM    2  N           1     -21.443  -9.600  -3.513  0.00  0.00    -0.344 N 
HETATM    3  H           1     -21.992 -10.168  -4.147  0.00  0.00     0.163 HD
HETATM    4  C           1     -21.719  -9.608  -2.173  0.00  0.00     0.252 C 
HETATM    5  O           1     -22.617 -10.294  -1.746  0.00  0.00    -0.271 OA
BRANCH   4   6
HETATM    6  C           1     -20.901  -8.761  -1.229  0.00  0.00     0.372 C 
HETATM    7  C           1     -21.254  -9.067   0.216  0.00  0.00     0.048 C 
HETATM    8  C           1     -22.303  -8.028   0.597  0.00  0.00     0.033 C 
HETATM    9  C           1     -22.488  -7.177  -0.648  0.00  0.00     0.271 C 
HETATM   10  N           1     -21.235  -7.347  -1.377  0.00  0.00     0.097 N 
HETATM   11  H           1     -20.515  -6.759  -0.957  0.00  0.00     0.317 HD
ENDBRANCH   4   6
ENDBRANCH   1   2
BRANCH   1  12
HETATM   12  C           1     -20.941  -7.655  -4.857  0.00  0.00     0.197 C 
HETATM   13  O           1     -21.214  -6.559  -4.323  0.00  0.00    -0.646 OA
HETATM   14  O           1     -21.145  -7.823  -6.078  0.00  0.00    -0.646 OA
ENDBRANCH   1  12
BRANCH   1  15
HETATM   15  C           1     -19.446  -9.629  -4.893  0.00  0.00     0.090 C 
BRANCH  15  16
HETATM   16  C           1     -18.074  -9.653  -4.291  0.00  0.00     0.008 A 
HETATM   17  N           1     -17.795  -9.377  -2.978  0.00  0.00    -0.358 N 
HETATM   18  C           1     -16.493  -9.507  -2.865  0.00  0.00     0.176 A 
ATOM     19  HN          1     -18.458  -9.125  -2.244  1.00  0.00     0.166 HD
HETATM   20  N           1     -15.921  -9.856  -4.057  0.00  0.00    -0.380 N 
HETATM   21  H           1     -14.899 -10.020  -4.229  0.00  0.00     0.160 HD
HETATM   22  C           1     -16.924  -9.953  -4.981  0.00  0.00     0.109 A 
ENDBRANCH  15  16
ENDBRANCH   1  15
TORSDOF 5
ENDMDL
MODEL 6
REMARK VINA RESULT:      -5.1     12.993     15.323
REMARK  5 active torsions:
REMARK  status: ('A' for Active; 'I' for Inactive)
REMARK    1  A    between atoms: N_6  and  C_13 
REMARK       I    between atoms: N_6  and  C_17 
REMARK    2  A    between atoms: C_13  and  C_19 
REMARK    3  A    between atoms: C_13  and  C_14 
REMARK    4  A    between atoms: C_14  and  C_15 
REMARK    5  A    between atoms: C_16  and  C_17 
ROOT
HETATM    1  C           1     -21.284  -7.102  -4.362  0.00  0.00     0.191 C 
ENDROOT
BRANCH   1   2
HETATM    2  N           1     -21.614  -8.489  -4.625  0.00  0.00    -0.344 N 
HETATM    3  H           1     -22.582  -8.785  -4.640  0.00  0.00     0.163 HD
HETATM    4  C           1     -20.617  -9.398  -4.855  0.00  0.00     0.252 C 
HETATM    5  O           1     -20.892 -10.553  -5.075  0.00  0.00    -0.271 OA
BRANCH   4   6
HETATM    6  C           1     -19.174  -8.956  -4.835  0.00  0.00     0.372 C 
HETATM    7  C           1     -18.305  -9.909  -5.638  0.00  0.00     0.048 C 
HETATM    8  C           1     -17.752 -10.898  -4.618  0.00  0.00     0.033 C 
HETATM    9  C           1     -18.327 -10.454  -3.284  0.00  0.00     0.271 C 
HETATM   10  N           1     -18.624  -9.039  -3.485  0.00  0.00     0.097 N 
HETATM   11  H           1     -17.762  -8.497  -3.411  0.00  0.00     0.317 HD
ENDBRANCH   4   6
ENDBRANCH   1   2
BRANCH   1  12
HETATM   12  C           1     -21.519  -6.798  -2.902  0.00  0.00     0.197 C 
HETATM   13  O           1     -20.827  -7.360  -2.027  0.00  0.00    -0.646 OA
HETATM   14  O           1     -22.408  -5.985  -2.569  0.00  0.00    -0.646 OA
ENDBRANCH   1  12
BRANCH   1  15
HETATM   15  C           1     -22.165  -6.200  -5.216  0.00  0.00     0.090 C 
BRANCH  15  16
HETATM   16  C           1     -21.349  -5.609  -6.324  0.00  0.00     0.008 A 
HETATM   17  N           1     -20.455  -6.309  -7.092  0.00  0.00    -0.358 N 
HETATM   18  C           1     -19.960  -5.432  -7.934  0.00  0.00     0.176 A 
ATOM     19  HN          1     -20.223  -7.300  -7.023  1.00  0.00     0.166 HD
HETATM   20  N           1     -20.500  -4.192  -7.740  0.00  0.00    -0.380 N 
HETATM   21  H           1     -20.271  -3.323  -8.283  0.00  0.00     0.160 HD
HETATM   22  C           1     -21.394  -4.290  -6.709  0.00  0.00     0.109 A 
ENDBRANCH  15  16
ENDBRANCH   1  15
TORSDOF 5
ENDMDL
MODEL 7
REMARK VINA RESULT:      -5.0     15.915     18.072
REMARK  5 active torsions:
REMARK  status: ('A' for Active; 'I' for Inactive)
REMARK    1  A    between atoms: N_6  and  C_13 
REMARK       I    between atoms: N_6  and  C_17 
REMARK    2  A    between atoms: C_13  and  C_19 
REMARK    3  A    between atoms: C_13  and  C_14 
REMARK    4  A    between atoms: C_14  and  C_15 
REMARK    5  A    between atoms: C_16  and  C_17 
ROOT
HETATM    1  C           1     -21.694  -9.304  -0.268  0.00  0.00     0.191 C 
ENDROOT
BRANCH   1   2
HETATM    2  N           1     -22.994  -9.946  -0.302  0.00  0.00    -0.344 N 
HETATM    3  H           1     -23.726  -9.640   0.328  0.00  0.00     0.163 HD
HETATM    4  C           1     -23.232 -10.964  -1.184  0.00  0.00     0.252 C 
HETATM    5  O           1     -24.315 -11.498  -1.213  0.00  0.00    -0.271 OA
BRANCH   4   6
HETATM    6  C           1     -22.141 -11.419  -2.123  0.00  0.00     0.372 C 
HETATM    7  C           1     -22.722 -12.208  -3.285  0.00  0.00     0.048 C 
HETATM    8  C           1     -22.618 -13.669  -2.863  0.00  0.00     0.033 C 
HETATM    9  C           1     -21.977 -13.640  -1.486  0.00  0.00     0.271 C 
HETATM   10  N           1     -21.253 -12.372  -1.465  0.00  0.00     0.097 N 
HETATM   11  H           1     -20.380 -12.471  -1.983  0.00  0.00     0.317 HD
ENDBRANCH   4   6
ENDBRANCH   1   2
BRANCH   1  12
HETATM   12  C           1     -20.971  -9.699   0.997  0.00  0.00     0.197 C 
HETATM   13  O           1     -20.580 -10.876   1.152  0.00  0.00    -0.646 OA
HETATM   14  O           1     -20.765  -8.850   1.890  0.00  0.00    -0.646 OA
ENDBRANCH   1  12
BRANCH   1  15
HETATM   15  C           1     -21.875  -7.792  -0.298  0.00  0.00     0.090 C 
BRANCH  15  16
HETATM   16  C           1     -21.726  -7.299  -1.704  0.00  0.00     0.008 A 
HETATM   17  N           1     -21.120  -7.999  -2.715  0.00  0.00    -0.358 N 
HETATM   18  C           1     -21.199  -7.222  -3.771  0.00  0.00     0.176 A 
ATOM     19  HN          1     -20.696  -8.925  -2.658  1.00  0.00     0.166 HD
HETATM   20  N           1     -21.834  -6.047  -3.481  0.00  0.00    -0.380 N 
HETATM   21  H           1     -22.023  -5.262  -4.151  0.00  0.00     0.160 HD
HETATM   22  C           1     -22.178  -6.082  -2.157  0.00  0.00     0.109 A 
ENDBRANCH  15  16
ENDBRANCH   1  15
TORSDOF 5
ENDMDL
MODEL 8
REMARK VINA RESULT:      -4.9     14.778     16.699
REMARK  5 active torsions:
REMARK  status: ('A' for Active; 'I' for Inactive)
REMARK    1  A    between atoms: N_6  and  C_13 
REMARK       I    between atoms: N_6  and  C_17 
REMARK    2  A    between atoms: C_13  and  C_19 
REMARK    3  A    between atoms: C_13  and  C_14 
REMARK    4  A    between atoms: C_14  and  C_15 
REMARK    5  A    between atoms: C_16  and  C_17 
ROOT
HETATM    1  C           1     -20.871  -7.733  -3.808  0.00  0.00     0.191 C 
ENDROOT
BRANCH   1   2
HETATM    2  N           1     -21.730  -8.890  -3.644  0.00  0.00    -0.344 N 
HETATM    3  H           1     -22.399  -9.130  -4.365  0.00  0.00     0.163 HD
HETATM    4  C           1     -21.637  -9.657  -2.514  0.00  0.00     0.252 C 
HETATM    5  O           1     -22.353 -10.621  -2.379  0.00  0.00    -0.271 OA
BRANCH   4   6
HETATM    6  C           1     -20.640  -9.300  -1.440  0.00  0.00     0.372 C 
HETATM    7  C           1     -20.500 -10.430  -0.434  0.00  0.00     0.048 C 
HETATM    8  C           1     -21.461 -10.078   0.695  0.00  0.00     0.033 C 
HETATM    9  C           1     -22.094  -8.760   0.280  0.00  0.00     0.271 C 
HETATM   10  N           1     -21.119  -8.178  -0.637  0.00  0.00     0.097 N 
HETATM   11  H           1     -20.356  -7.762  -0.104  0.00  0.00     0.317 HD
ENDBRANCH   4   6
ENDBRANCH   1   2
BRANCH   1  12
HETATM   12  C           1     -21.710  -6.479  -3.807  0.00  0.00     0.197 C 
HETATM   13  O           1     -21.946  -5.884  -4.880  0.00  0.00    -0.646 OA
HETATM   14  O           1     -22.170  -6.036  -2.733  0.00  0.00    -0.646 OA
ENDBRANCH   1  12
BRANCH   1  15
HETATM   15  C           1     -20.121  -7.842  -5.129  0.00  0.00     0.090 C 
BRANCH  15  16
HETATM   16  C           1     -19.253  -9.062  -5.112  0.00  0.00     0.008 A 
HETATM   17  N           1     -19.367 -10.112  -5.986  0.00  0.00    -0.358 N 
HETATM   18  C           1     -18.431 -10.962  -5.632  0.00  0.00     0.176 A 
ATOM     19  HN          1     -20.036 -10.211  -6.750  1.00  0.00     0.166 HD
HETATM   20  N           1     -17.717 -10.502  -4.561  0.00  0.00    -0.380 N 
HETATM   21  H           1     -16.918 -10.994  -4.090  0.00  0.00     0.160 HD
HETATM   22  C           1     -18.234  -9.283  -4.216  0.00  0.00     0.109 A 
ENDBRANCH  15  16
ENDBRANCH   1  15
TORSDOF 5
ENDMDL
MODEL 9
REMARK VINA RESULT:      -4.9     14.769     17.128
REMARK  5 active torsions:
REMARK  status: ('A' for Active; 'I' for Inactive)
REMARK    1  A    between atoms: N_6  and  C_13 
REMARK       I    between atoms: N_6  and  C_17 
REMARK    2  A    between atoms: C_13  and  C_19 
REMARK    3  A    between atoms: C_13  and  C_14 
REMARK    4  A    between atoms: C_14  and  C_15 
REMARK    5  A    between atoms: C_16  and  C_17 
ROOT
HETATM    1  C           1     -20.166  -9.383  -4.765  0.00  0.00     0.191 C 
ENDROOT
BRANCH   1   2
HETATM    2  N           1     -18.946  -9.503  -5.539  0.00  0.00    -0.344 N 
HETATM    3  H           1     -18.985  -9.486  -6.551  0.00  0.00     0.163 HD
HETATM    4  C           1     -17.742  -9.641  -4.902  0.00  0.00     0.252 C 
HETATM    5  O           1     -16.726  -9.741  -5.547  0.00  0.00    -0.271 OA
BRANCH   4   6
HETATM    6  C           1     -17.685  -9.665  -3.395  0.00  0.00     0.372 C 
HETATM    7  C           1     -16.263  -9.449  -2.904  0.00  0.00     0.048 C 
HETATM    8  C           1     -15.698 -10.849  -2.696  0.00  0.00     0.033 C 
HETATM    9  C           1     -16.828 -11.793  -3.071  0.00  0.00     0.271 C 
HETATM   10  N           1     -18.032 -10.988  -2.883  0.00  0.00     0.097 N 
HETATM   11  H           1     -18.260 -10.944  -1.890  0.00  0.00     0.317 HD
ENDBRANCH   4   6
ENDBRANCH   1   2
BRANCH   1  12
HETATM   12  C           1     -21.163 -10.416  -5.232  0.00  0.00     0.197 C 
HETATM   13  O           1     -21.985 -10.901  -4.427  0.00  0.00    -0.646 OA
HETATM   14  O           1     -21.164 -10.786  -6.426  0.00  0.00    -0.646 OA
ENDBRANCH   1  12
BRANCH   1  15
HETATM   15  C           1     -20.752  -7.990  -4.956  0.00  0.00     0.090 C 
BRANCH  15  16
HETATM   16  C           1     -21.211  -7.456  -3.634  0.00  0.00     0.008 A 
HETATM   17  N           1     -21.919  -6.294  -3.467  0.00  0.00    -0.358 N 
HETATM   18  C           1     -22.118  -6.192  -2.173  0.00  0.00     0.176 A 
ATOM     19  HN          1     -22.226  -5.647  -4.193  1.00  0.00     0.166 HD
HETATM   20  N           1     -21.565  -7.244  -1.498  0.00  0.00    -0.380 N 
HETATM   21  H           1     -21.586  -7.395  -0.459  0.00  0.00     0.160 HD
HETATM   22  C           1     -20.979  -8.063  -2.423  0.00  0.00     0.109 A 
ENDBRANCH  15  16
ENDBRANCH   1  15
TORSDOF 5
ENDMDL
