MODEL 1
REMARK VINA RESULT:      -5.6      0.000      0.000
REMARK  7 active torsions:
REMARK  status: ('A' for Active; 'I' for Inactive)
REMARK    1  A    between atoms: N_1  and  C_8 
REMARK    2  A    between atoms: C_3  and  C_4 
REMARK    3  A    between atoms: C_4  and  C_5 
REMARK    4  A    between atoms: C_4  and  N_9 
REMARK    5  A    between atoms: C_5  and  Se_6 
REMARK       I    between atoms: C_7  and  N_9 
REMARK    6  A    between atoms: C_7  and  C_8 
REMARK    7  A    between atoms: C_8  and  C_15 
ROOT
HETATM    1  C           1     -21.865  -4.660  -7.829  0.00  0.00     0.249 C 
HETATM    2  N           1     -22.375  -4.781  -9.094  0.00  0.00    -0.345 N 
HETATM    3  H           1     -22.384  -5.684  -9.551  0.00  0.00     0.163 HD
HETATM    4  O           1     -21.855  -3.583  -7.283  0.00  0.00    -0.271 OA
ENDROOT
BRANCH   1   5
HETATM    5  C           1     -21.315  -5.872  -7.118  0.00  0.00     0.278 C 
BRANCH   5   6
HETATM    6  N           1     -19.835  -5.957  -7.348  0.00  0.00    -0.066 N 
HETATM    7  H           1     -19.334  -5.854  -6.436  0.00  0.00     0.275 HD
HETATM    8  H           1     -19.602  -6.884  -7.769  0.00  0.00     0.275 HD
HETATM    9  H           1     -19.539  -5.194  -7.997  0.00  0.00     0.275 HD
ENDBRANCH   5   6
BRANCH   5  10
HETATM   10  C           1     -21.590  -5.753  -5.625  0.00  0.00     0.017 C 
HETATM   11  C           1     -21.978  -7.116  -5.069  0.00  0.00     0.012 C 
HETATM   12  C           1     -20.338  -5.253  -4.916  0.00  0.00     0.012 C 
ENDBRANCH   5  10
ENDBRANCH   1   5
BRANCH   2  13
HETATM   13  C           1     -22.904  -3.617  -9.778  0.00  0.00     0.185 C 
BRANCH  13  14
HETATM   14  C           1     -24.333  -3.878 -10.182  0.00  0.00     0.196 C 
HETATM   15  O           1     -24.928  -4.894  -9.759  0.00  0.00    -0.646 OA
HETATM   16  O           1     -24.924  -3.080 -10.942  0.00  0.00    -0.646 OA
ENDBRANCH  13  14
BRANCH  13  17
HETATM   17  C           1     -22.068  -3.334 -11.018  0.00  0.00     0.039 C 
BRANCH  17  18
HETATM   18 Se           1     -20.375  -4.292 -10.894  0.00  0.00     0.000 Se
HETATM   19  H           1     -20.569  -5.033 -12.152  0.00  0.00     0.000 HD
ENDBRANCH  17  18
ENDBRANCH  13  17
ENDBRANCH   2  13
TORSDOF 7
ENDMDL
MODEL 2
REMARK VINA RESULT:      -5.3      9.718     12.082
REMARK  7 active torsions:
REMARK  status: ('A' for Active; 'I' for Inactive)
REMARK    1  A    between atoms: N_1  and  C_8 
REMARK    2  A    between atoms: C_3  and  C_4 
REMARK    3  A    between atoms: C_4  and  C_5 
REMARK    4  A    between atoms: C_4  and  N_9 
REMARK    5  A    between atoms: C_5  and  Se_6 
REMARK       I    between atoms: C_7  and  N_9 
REMARK    6  A    between atoms: C_7  and  C_8 
REMARK    7  A    between atoms: C_8  and  C_15 
ROOT
HETATM    1  C           1     -25.122  -6.957 -18.860  0.00  0.00     0.249 C 
HETATM    2  N           1     -26.304  -6.711 -18.214  0.00  0.00    -0.345 N 
HETATM    3  H           1     -27.175  -7.035 -18.613  0.00  0.00     0.163 HD
HETATM    4  O           1     -24.082  -6.569 -18.384  0.00  0.00    -0.271 OA
ENDROOT
BRANCH   1   5
HETATM    5  C           1     -25.119  -7.710 -20.168  0.00  0.00     0.278 C 
BRANCH   5   6
HETATM    6  N           1     -26.533  -7.965 -20.601  0.00  0.00    -0.066 N 
HETATM    7  H           1     -26.640  -7.708 -21.608  0.00  0.00     0.275 HD
HETATM    8  H           1     -26.757  -8.977 -20.474  0.00  0.00     0.275 HD
HETATM    9  H           1     -27.184  -7.388 -20.022  0.00  0.00     0.275 HD
ENDBRANCH   5   6
BRANCH   5  10
HETATM   10  C           1     -24.405  -6.883 -21.228  0.00  0.00     0.017 C 
HETATM   11  C           1     -24.091  -7.760 -22.432  0.00  0.00     0.012 C 
HETATM   12  C           1     -25.302  -5.730 -21.661  0.00  0.00     0.012 C 
ENDBRANCH   5  10
ENDBRANCH   1   5
BRANCH   2  13
HETATM   13  C           1     -26.307  -5.987 -16.958  0.00  0.00     0.185 C 
BRANCH  13  14
HETATM   14  C           1     -26.303  -6.968 -15.813  0.00  0.00     0.196 C 
HETATM   15  O           1     -27.384  -7.406 -15.360  0.00  0.00    -0.646 OA
HETATM   16  O           1     -25.220  -7.345 -15.314  0.00  0.00    -0.646 OA
ENDBRANCH  13  14
BRANCH  13  17
HETATM   17  C           1     -27.553  -5.116 -16.877  0.00  0.00     0.039 C 
BRANCH  17  18
HETATM   18 Se           1     -28.696  -5.473 -18.415  0.00  0.00     0.000 Se
HETATM   19  H           1     -29.443  -4.209 -18.300  0.00  0.00     0.000 HD
ENDBRANCH  17  18
ENDBRANCH  13  17
ENDBRANCH   2  13
TORSDOF 7
ENDMDL
MODEL 3
REMARK VINA RESULT:      -5.0     10.588     12.324
REMARK  7 active torsions:
REMARK  status: ('A' for Active; 'I' for Inactive)
REMARK    1  A    between atoms: N_1  and  C_8 
REMARK    2  A    between atoms: C_3  and  C_4 
REMARK    3  A    between atoms: C_4  and  C_5 
REMARK    4  A    between atoms: C_4  and  N_9 
REMARK    5  A    between atoms: C_5  and  Se_6 
REMARK       I    between atoms: C_7  and  N_9 
REMARK    6  A    between atoms: C_7  and  C_8 
REMARK    7  A    between atoms: C_8  and  C_15 
ROOT
HETATM    1  C           1     -26.303  -6.392 -18.896  0.00  0.00     0.249 C 
HETATM    2  N           1     -27.478  -6.171 -18.228  0.00  0.00    -0.345 N 
HETATM    3  H           1     -28.349  -6.118 -18.741  0.00  0.00     0.163 HD
HETATM    4  O           1     -25.264  -6.455 -18.284  0.00  0.00    -0.271 OA
ENDROOT
BRANCH   1   5
HETATM    5  C           1     -26.308  -6.554 -20.396  0.00  0.00     0.278 C 
BRANCH   5   6
HETATM    6  N           1     -25.303  -5.620 -21.003  0.00  0.00    -0.066 N 
HETATM    7  H           1     -25.181  -4.788 -20.383  0.00  0.00     0.275 HD
HETATM    8  H           1     -24.388  -6.114 -21.106  0.00  0.00     0.275 HD
HETATM    9  H           1     -25.639  -5.309 -21.942  0.00  0.00     0.275 HD
ENDBRANCH   5   6
BRANCH   5  10
HETATM   10  C           1     -25.945  -7.990 -20.752  0.00  0.00     0.017 C 
HETATM   11  C           1     -27.161  -8.690 -21.342  0.00  0.00     0.012 C 
HETATM   12  C           1     -24.815  -7.990 -21.773  0.00  0.00     0.012 C 
ENDBRANCH   5  10
ENDBRANCH   1   5
BRANCH   2  13
HETATM   13  C           1     -27.475  -6.014 -16.787  0.00  0.00     0.185 C 
BRANCH  13  14
HETATM   14  C           1     -28.216  -7.166 -16.155  0.00  0.00     0.196 C 
HETATM   15  O           1     -27.886  -7.575 -15.020  0.00  0.00    -0.646 OA
HETATM   16  O           1     -29.160  -7.713 -16.765  0.00  0.00    -0.646 OA
ENDBRANCH  13  14
BRANCH  13  17
HETATM   17  C           1     -28.159  -4.706 -16.417  0.00  0.00     0.039 C 
BRANCH  17  18
HETATM   18 Se           1     -29.411  -4.206 -17.825  0.00  0.00     0.000 Se
HETATM   19  H           1     -28.488  -3.258 -18.471  0.00  0.00     0.000 HD
ENDBRANCH  17  18
ENDBRANCH  13  17
ENDBRANCH   2  13
TORSDOF 7
ENDMDL
MODEL 4
REMARK VINA RESULT:      -4.9     17.805     19.676
REMARK  7 active torsions:
REMARK  status: ('A' for Active; 'I' for Inactive)
REMARK    1  A    between atoms: N_1  and  C_8 
REMARK    2  A    between atoms: C_3  and  C_4 
REMARK    3  A    between atoms: C_4  and  C_5 
REMARK    4  A    between atoms: C_4  and  N_9 
REMARK    5  A    between atoms: C_5  and  Se_6 
REMARK       I    between atoms: C_7  and  N_9 
REMARK    6  A    between atoms: C_7  and  C_8 
REMARK    7  A    between atoms: C_8  and  C_15 
ROOT
HETATM    1  C           1     -11.413   6.325 -21.010  0.00  0.00     0.249 C 
HETATM    2  N           1     -12.148   5.279 -20.520  0.00  0.00    -0.345 N 
HETATM    3  H           1     -11.977   4.935 -19.584  0.00  0.00     0.163 HD
HETATM    4  O           1     -11.617   6.736 -22.126  0.00  0.00    -0.271 OA
ENDROOT
BRANCH   1   5
HETATM    5  C           1     -10.345   6.962 -20.154  0.00  0.00     0.278 C 
BRANCH   5   6
HETATM    6  N           1      -8.998   6.453 -20.574  0.00  0.00    -0.066 N 
HETATM    7  H           1      -8.507   6.045 -19.747  0.00  0.00     0.275 HD
HETATM    8  H           1      -9.118   5.716 -21.305  0.00  0.00     0.275 HD
HETATM    9  H           1      -8.433   7.242 -20.962  0.00  0.00     0.275 HD
ENDBRANCH   5   6
BRANCH   5  10
HETATM   10  C           1     -10.392   8.474 -20.327  0.00  0.00     0.017 C 
HETATM   11  C           1     -10.492   9.140 -18.962  0.00  0.00     0.012 C 
HETATM   12  C           1      -9.125   8.945 -21.029  0.00  0.00     0.012 C 
ENDBRANCH   5  10
ENDBRANCH   1   5
BRANCH   2  13
HETATM   13  C           1     -13.174   4.667 -21.341  0.00  0.00     0.185 C 
BRANCH  13  14
HETATM   14  C           1     -14.534   5.098 -20.852  0.00  0.00     0.196 C 
HETATM   15  O           1     -15.445   5.345 -21.672  0.00  0.00    -0.646 OA
HETATM   16  O           1     -14.751   5.208 -19.625  0.00  0.00    -0.646 OA
ENDBRANCH  13  14
BRANCH  13  17
HETATM   17  C           1     -13.058   3.152 -21.251  0.00  0.00     0.039 C 
BRANCH  17  18
HETATM   18 Se           1     -11.261   2.670 -20.668  0.00  0.00     0.000 Se
HETATM   19  H           1     -11.662   2.388 -19.280  0.00  0.00     0.000 HD
ENDBRANCH  17  18
ENDBRANCH  13  17
ENDBRANCH   2  13
TORSDOF 7
ENDMDL
MODEL 5
REMARK VINA RESULT:      -4.8      3.819      6.331
REMARK  7 active torsions:
REMARK  status: ('A' for Active; 'I' for Inactive)
REMARK    1  A    between atoms: N_1  and  C_8 
REMARK    2  A    between atoms: C_3  and  C_4 
REMARK    3  A    between atoms: C_4  and  C_5 
REMARK    4  A    between atoms: C_4  and  N_9 
REMARK    5  A    between atoms: C_5  and  Se_6 
REMARK       I    between atoms: C_7  and  N_9 
REMARK    6  A    between atoms: C_7  and  C_8 
REMARK    7  A    between atoms: C_8  and  C_15 
ROOT
HETATM    1  C           1     -21.665  -5.631  -5.680  0.00  0.00     0.249 C 
HETATM    2  N           1     -20.894  -6.417  -4.867  0.00  0.00    -0.345 N 
HETATM    3  H           1     -19.888  -6.311  -4.867  0.00  0.00     0.163 HD
HETATM    4  O           1     -22.866  -5.757  -5.680  0.00  0.00    -0.271 OA
ENDROOT
BRANCH   1   5
HETATM    5  C           1     -21.014  -4.607  -6.578  0.00  0.00     0.278 C 
BRANCH   5   6
HETATM    6  N           1     -19.524  -4.688  -6.430  0.00  0.00    -0.066 N 
HETATM    7  H           1     -19.168  -5.526  -6.942  0.00  0.00     0.275 HD
HETATM    8  H           1     -19.088  -3.826  -6.829  0.00  0.00     0.275 HD
HETATM    9  H           1     -19.278  -4.767  -5.417  0.00  0.00     0.275 HD
ENDBRANCH   5   6
BRANCH   5  10
HETATM   10  C           1     -21.396  -4.887  -8.026  0.00  0.00     0.017 C 
HETATM   11  C           1     -22.388  -3.835  -8.503  0.00  0.00     0.012 C 
HETATM   12  C           1     -20.148  -4.839  -8.898  0.00  0.00     0.012 C 
ENDBRANCH   5  10
ENDBRANCH   1   5
BRANCH   2  13
HETATM   13  C           1     -21.519  -7.401  -4.004  0.00  0.00     0.185 C 
BRANCH  13  14
HETATM   14  C           1     -21.577  -6.868  -2.595  0.00  0.00     0.196 C 
HETATM   15  O           1     -22.364  -5.938  -2.309  0.00  0.00    -0.646 OA
HETATM   16  O           1     -20.839  -7.354  -1.711  0.00  0.00    -0.646 OA
ENDBRANCH  13  14
BRANCH  13  17
HETATM   17  C           1     -20.705  -8.687  -4.028  0.00  0.00     0.039 C 
BRANCH  17  18
HETATM   18 Se           1     -21.889 -10.212  -3.761  0.00  0.00     0.000 Se
HETATM   19  H           1     -21.733 -10.224  -2.297  0.00  0.00     0.000 HD
ENDBRANCH  17  18
ENDBRANCH  13  17
ENDBRANCH   2  13
TORSDOF 7
ENDMDL
MODEL 6
REMARK VINA RESULT:      -4.8      3.220      4.400
REMARK  7 active torsions:
REMARK  status: ('A' for Active; 'I' for Inactive)
REMARK    1  A    between atoms: N_1  and  C_8 
REMARK    2  A    between atoms: C_3  and  C_4 
REMARK    3  A    between atoms: C_4  and  C_5 
REMARK    4  A    between atoms: C_4  and  N_9 
REMARK    5  A    between atoms: C_5  and  Se_6 
REMARK       I    between atoms: C_7  and  N_9 
REMARK    6  A    between atoms: C_7  and  C_8 
REMARK    7  A    between atoms: C_8  and  C_15 
ROOT
HETATM    1  C           1     -21.640  -7.155  -5.284  0.00  0.00     0.249 C 
HETATM    2  N           1     -21.908  -5.845  -5.577  0.00  0.00    -0.345 N 
HETATM    3  H           1     -22.353  -5.253  -4.887  0.00  0.00     0.163 HD
HETATM    4  O           1     -21.109  -7.861  -6.107  0.00  0.00    -0.271 OA
ENDROOT
BRANCH   1   5
HETATM    5  C           1     -22.011  -7.718  -3.934  0.00  0.00     0.278 C 
BRANCH   5   6
HETATM    6  N           1     -21.671  -9.178  -3.889  0.00  0.00    -0.066 N 
HETATM    7  H           1     -21.919  -9.621  -4.803  0.00  0.00     0.275 HD
HETATM    8  H           1     -20.647  -9.291  -3.715  0.00  0.00     0.275 HD
HETATM    9  H           1     -22.209  -9.637  -3.121  0.00  0.00     0.275 HD
ENDBRANCH   5   6
BRANCH   5  10
HETATM   10  C           1     -21.236  -6.983  -2.849  0.00  0.00     0.017 C 
HETATM   11  C           1     -22.207  -6.220  -1.958  0.00  0.00     0.012 C 
HETATM   12  C           1     -20.461  -7.990  -2.008  0.00  0.00     0.012 C 
ENDBRANCH   5  10
ENDBRANCH   1   5
BRANCH   2  13
HETATM   13  C           1     -21.552  -5.304  -6.875  0.00  0.00     0.185 C 
BRANCH  13  14
HETATM   14  C           1     -20.227  -4.591  -6.775  0.00  0.00     0.196 C 
HETATM   15  O           1     -19.654  -4.487  -5.669  0.00  0.00    -0.646 OA
HETATM   16  O           1     -19.701  -4.102  -7.799  0.00  0.00    -0.646 OA
ENDBRANCH  13  14
BRANCH  13  17
HETATM   17  C           1     -22.625  -4.323  -7.327  0.00  0.00     0.039 C 
BRANCH  17  18
HETATM   18 Se           1     -22.848  -4.449  -9.259  0.00  0.00     0.000 Se
HETATM   19  H           1     -23.952  -3.475  -9.312  0.00  0.00     0.000 HD
ENDBRANCH  17  18
ENDBRANCH  13  17
ENDBRANCH   2  13
TORSDOF 7
ENDMDL
MODEL 7
REMARK VINA RESULT:      -4.8      3.440      5.915
REMARK  7 active torsions:
REMARK  status: ('A' for Active; 'I' for Inactive)
REMARK    1  A    between atoms: N_1  and  C_8 
REMARK    2  A    between atoms: C_3  and  C_4 
REMARK    3  A    between atoms: C_4  and  C_5 
REMARK    4  A    between atoms: C_4  and  N_9 
REMARK    5  A    between atoms: C_5  and  Se_6 
REMARK       I    between atoms: C_7  and  N_9 
REMARK    6  A    between atoms: C_7  and  C_8 
REMARK    7  A    between atoms: C_8  and  C_15 
ROOT
HETATM    1  C           1     -21.638  -5.066  -6.868  0.00  0.00     0.249 C 
HETATM    2  N           1     -21.588  -6.346  -6.385  0.00  0.00    -0.345 N 
HETATM    3  H           1     -21.993  -7.105  -6.919  0.00  0.00     0.163 HD
HETATM    4  O           1     -21.154  -4.162  -6.231  0.00  0.00    -0.271 OA
ENDROOT
BRANCH   1   5
HETATM    5  C           1     -22.299  -4.786  -8.196  0.00  0.00     0.278 C 
BRANCH   5   6
HETATM    6  N           1     -23.581  -4.041  -7.968  0.00  0.00    -0.066 N 
HETATM    7  H           1     -24.157  -4.065  -8.839  0.00  0.00     0.275 HD
HETATM    8  H           1     -24.111  -4.491  -7.188  0.00  0.00     0.275 HD
HETATM    9  H           1     -23.367  -3.049  -7.718  0.00  0.00     0.275 HD
ENDBRANCH   5   6
BRANCH   5  10
HETATM   10  C           1     -21.369  -3.944  -9.058  0.00  0.00     0.017 C 
HETATM   11  C           1     -20.132  -4.757  -9.416  0.00  0.00     0.012 C 
HETATM   12  C           1     -22.092  -3.533 -10.334  0.00  0.00     0.012 C 
ENDBRANCH   5  10
ENDBRANCH   1   5
BRANCH   2  13
HETATM   13  C           1     -20.953  -6.617  -5.110  0.00  0.00     0.185 C 
BRANCH  13  14
HETATM   14  C           1     -19.896  -7.677  -5.290  0.00  0.00     0.196 C 
HETATM   15  O           1     -19.693  -8.518  -4.387  0.00  0.00    -0.646 OA
HETATM   16  O           1     -19.221  -7.716  -6.342  0.00  0.00    -0.646 OA
ENDBRANCH  13  14
BRANCH  13  17
HETATM   17  C           1     -21.998  -7.104  -4.116  0.00  0.00     0.039 C 
BRANCH  17  18
HETATM   18 Se           1     -21.734  -6.210  -2.404  0.00  0.00     0.000 Se
HETATM   19  H           1     -21.985  -7.420  -1.602  0.00  0.00     0.000 HD
ENDBRANCH  17  18
ENDBRANCH  13  17
ENDBRANCH   2  13
TORSDOF 7
ENDMDL
MODEL 8
REMARK VINA RESULT:      -4.7      5.659      7.558
REMARK  7 active torsions:
REMARK  status: ('A' for Active; 'I' for Inactive)
REMARK    1  A    between atoms: N_1  and  C_8 
REMARK    2  A    between atoms: C_3  and  C_4 
REMARK    3  A    between atoms: C_4  and  C_5 
REMARK    4  A    between atoms: C_4  and  N_9 
REMARK    5  A    between atoms: C_5  and  Se_6 
REMARK       I    between atoms: C_7  and  N_9 
REMARK    6  A    between atoms: C_7  and  C_8 
REMARK    7  A    between atoms: C_8  and  C_15 
ROOT
HETATM    1  C           1     -21.060  -9.042  -1.627  0.00  0.00     0.249 C 
HETATM    2  N           1     -21.580  -8.723  -2.853  0.00  0.00    -0.345 N 
HETATM    3  H           1     -22.379  -9.231  -3.211  0.00  0.00     0.163 HD
HETATM    4  O           1     -20.107  -8.435  -1.201  0.00  0.00    -0.271 OA
ENDROOT
BRANCH   1   5
HETATM    5  C           1     -21.675 -10.152  -0.811  0.00  0.00     0.278 C 
BRANCH   5   6
HETATM    6  N           1     -20.967 -10.256   0.507  0.00  0.00    -0.066 N 
HETATM    7  H           1     -20.548 -11.208   0.603  0.00  0.00     0.275 HD
HETATM    8  H           1     -20.209  -9.537   0.551  0.00  0.00     0.275 HD
HETATM    9  H           1     -21.648 -10.095   1.282  0.00  0.00     0.275 HD
ENDBRANCH   5   6
BRANCH   5  10
HETATM   10  C           1     -23.148  -9.848  -0.572  0.00  0.00     0.017 C 
HETATM   11  C           1     -23.836 -11.081  -0.002  0.00  0.00     0.012 C 
HETATM   12  C           1     -23.276  -8.694   0.414  0.00  0.00     0.012 C 
ENDBRANCH   5  10
ENDBRANCH   1   5
BRANCH   2  13
HETATM   13  C           1     -20.989  -7.657  -3.638  0.00  0.00     0.185 C 
BRANCH  13  14
HETATM   14  C           1     -21.948  -6.495  -3.709  0.00  0.00     0.196 C 
HETATM   15  O           1     -22.368  -5.965  -2.658  0.00  0.00    -0.646 OA
HETATM   16  O           1     -22.323  -6.062  -4.820  0.00  0.00    -0.646 OA
ENDBRANCH  13  14
BRANCH  13  17
HETATM   17  C           1     -20.697  -8.163  -5.043  0.00  0.00     0.039 C 
BRANCH  17  18
HETATM   18 Se           1     -19.054  -9.212  -5.029  0.00  0.00     0.000 Se
HETATM   19  H           1     -19.270  -9.783  -6.369  0.00  0.00     0.000 HD
ENDBRANCH  17  18
ENDBRANCH  13  17
ENDBRANCH   2  13
TORSDOF 7
ENDMDL
MODEL 9
REMARK VINA RESULT:      -4.7      5.859      7.581
REMARK  7 active torsions:
REMARK  status: ('A' for Active; 'I' for Inactive)
REMARK    1  A    between atoms: N_1  and  C_8 
REMARK    2  A    between atoms: C_3  and  C_4 
REMARK    3  A    between atoms: C_4  and  C_5 
REMARK    4  A    between atoms: C_4  and  N_9 
REMARK    5  A    between atoms: C_5  and  Se_6 
REMARK       I    between atoms: C_7  and  N_9 
REMARK    6  A    between atoms: C_7  and  C_8 
REMARK    7  A    between atoms: C_8  and  C_15 
ROOT
HETATM    1  C           1     -21.371  -8.526  -2.196  0.00  0.00     0.249 C 
HETATM    2  N           1     -20.667  -8.002  -3.247  0.00  0.00    -0.345 N 
HETATM    3  H           1     -20.195  -7.112  -3.147  0.00  0.00     0.163 HD
HETATM    4  O           1     -21.933  -9.588  -2.316  0.00  0.00    -0.271 OA
ENDROOT
BRANCH   1   5
HETATM    5  C           1     -21.445  -7.776  -0.889  0.00  0.00     0.278 C 
BRANCH   5   6
HETATM    6  N           1     -22.335  -6.579  -1.049  0.00  0.00    -0.066 N 
HETATM    7  H           1     -22.319  -6.013  -0.171  0.00  0.00     0.275 HD
HETATM    8  H           1     -21.993  -5.996  -1.845  0.00  0.00     0.275 HD
HETATM    9  H           1     -23.312  -6.895  -1.243  0.00  0.00     0.275 HD
ENDBRANCH   5   6
BRANCH   5  10
HETATM   10  C           1     -22.012  -8.689   0.189  0.00  0.00     0.017 C 
HETATM   11  C           1     -21.050  -8.745   1.367  0.00  0.00     0.012 C 
HETATM   12  C           1     -23.357  -8.148   0.658  0.00  0.00     0.012 C 
ENDBRANCH   5  10
ENDBRANCH   1   5
BRANCH   2  13
HETATM   13  C           1     -20.595  -8.722  -4.503  0.00  0.00     0.185 C 
BRANCH  13  14
HETATM   14  C           1     -19.150  -8.948  -4.871  0.00  0.00     0.196 C 
HETATM   15  O           1     -18.794  -8.900  -6.069  0.00  0.00    -0.646 OA
HETATM   16  O           1     -18.307  -9.184  -3.979  0.00  0.00    -0.646 OA
ENDBRANCH  13  14
BRANCH  13  17
HETATM   17  C           1     -21.276  -7.908  -5.594  0.00  0.00     0.039 C 
BRANCH  17  18
HETATM   18 Se           1     -21.205  -6.016  -5.134  0.00  0.00     0.000 Se
HETATM   19  H           1     -22.052  -5.590  -6.261  0.00  0.00     0.000 HD
ENDBRANCH  17  18
ENDBRANCH  13  17
ENDBRANCH   2  13
TORSDOF 7
ENDMDL
