MODEL 1
REMARK VINA RESULT:      -7.3      0.000      0.000
REMARK  15 active torsions:
REMARK  status: ('A' for Active; 'I' for Inactive)
REMARK    1  A    between atoms: C_2  and  C_4 
REMARK    2  A    between atoms: C_4  and  C_5 
REMARK    3  A    between atoms: C_5  and  C_6 
REMARK    4  A    between atoms: C_5  and  N_9 
REMARK    5  A    between atoms: N_9  and  C_10 
REMARK    6  A    between atoms: C_10  and  C_11 
REMARK    7  A    between atoms: C_11  and  C_12 
REMARK    8  A    between atoms: C_12  and  C_13 
REMARK    9  A    between atoms: C_12  and  N_16 
REMARK       I    between atoms: N_16  and  C_17 
REMARK   10  A    between atoms: C_17  and  C_18 
REMARK   11  A    between atoms: C_18  and  C_19 
REMARK   12  A    between atoms: C_18  and  N_26 
REMARK   13  A    between atoms: C_19  and  C_20 
REMARK   14  A    between atoms: C_20  and  C_21 
REMARK   15  A    between atoms: C_21  and  N_22 
REMARK       I    between atoms: N_22  and  C_23 
REMARK       I    between atoms: C_23  and  N_24 
ROOT
HETATM    1  N           1     -26.399  -6.455 -18.036  0.00  0.00    -0.345 N 
HETATM    2  C           1     -25.403  -6.764 -18.923  0.00  0.00     0.249 C 
HETATM    3  O           1     -24.247  -6.591 -18.617  0.00  0.00    -0.271 OA
HETATM    4  H           1     -27.367  -6.600 -18.292  0.00  0.00     0.163 HD
ENDROOT
BRANCH   2   5
HETATM    5  C           1     -25.748  -7.321 -20.282  0.00  0.00     0.274 C 
BRANCH   5   6
HETATM    6  C           1     -25.334  -6.327 -21.359  0.00  0.00     0.044 C 
BRANCH   6   7
HETATM    7  C           1     -24.341  -6.987 -22.306  0.00  0.00     0.023 C 
BRANCH   7   8
HETATM    8  C           1     -24.029  -8.394 -21.815  0.00  0.00     0.138 C 
BRANCH   8   9
HETATM    9  N           1     -22.877  -8.928 -22.557  0.00  0.00    -0.227 N 
HETATM   10  C           1     -21.756  -9.053 -21.982  0.00  0.00     0.665 C 
HETATM   11  N           1     -20.765  -9.513 -22.621  0.00  0.00    -0.235 N 
HETATM   12  N           1     -21.625  -8.710 -20.735  0.00  0.00    -0.235 N 
HETATM   13  H           1     -19.836  -9.618 -22.143  0.00  0.00     0.174 HD
HETATM   14  H           1     -20.872  -9.791 -23.628  0.00  0.00     0.174 HD
HETATM   15  H           1     -20.700  -8.814 -20.260  0.00  0.00     0.174 HD
HETATM   16  H           1     -22.443  -8.331 -20.208  0.00  0.00     0.174 HD
HETATM   17  H           1     -22.984  -9.206 -23.564  0.00  0.00     0.177 HD
ENDBRANCH   8   9
ENDBRANCH   7   8
ENDBRANCH   6   7
ENDBRANCH   5   6
BRANCH   5  18
HETATM   18  N           1     -27.227  -7.556 -20.363  0.00  0.00    -0.067 N 
HETATM   19  H           1     -27.709  -7.014 -19.610  0.00  0.00     0.275 HD
HETATM   20  H           1     -27.579  -7.244 -21.296  0.00  0.00     0.275 HD
HETATM   21  H           1     -27.425  -8.574 -20.239  0.00  0.00     0.275 HD
ENDBRANCH   5  18
ENDBRANCH   2   5
BRANCH   1  22
HETATM   22  C           1     -26.067  -5.920 -16.730  0.00  0.00     0.187 C 
BRANCH  22  23
HETATM   23  C           1     -27.099  -4.873 -16.334  0.00  0.00     0.066 C 
BRANCH  23  24
HETATM   24  C           1     -28.271  -4.920 -17.306  0.00  0.00     0.273 C 
BRANCH  24  25
HETATM   25  N           1     -29.450  -5.365 -16.615  0.00  0.00     0.099 N 
HETATM   26  H           1     -29.643  -4.740 -15.832  0.00  0.00     0.317 HD
BRANCH  25  27
HETATM   27  C           1     -30.546  -5.317 -17.546  0.00  0.00     0.330 C 
BRANCH  27  28
HETATM   28  C           1     -31.285  -6.648 -17.529  0.00  0.00     0.160 C 
BRANCH  28  29
HETATM   29  C           1     -30.339  -7.753 -17.934  0.00  0.00     0.175 C 
HETATM   30  O           1     -30.335  -8.171 -19.112  0.00  0.00    -0.648 OA
HETATM   31  O           1     -29.561  -8.251 -17.091  0.00  0.00    -0.648 OA
ENDBRANCH  28  29
ENDBRANCH  27  28
BRANCH  27  32
HETATM   32  C           1     -31.493  -4.210 -17.149  0.00  0.00     0.207 C 
HETATM   33  O           1     -31.331  -3.056 -17.602  0.00  0.00    -0.646 OA
HETATM   34  O           1     -32.439  -4.448 -16.367  0.00  0.00    -0.646 OA
ENDBRANCH  27  32
ENDBRANCH  25  27
ENDBRANCH  24  25
ENDBRANCH  23  24
ENDBRANCH  22  23
BRANCH  22  35
HETATM   35  C           1     -26.068  -7.036 -15.715  0.00  0.00     0.196 C 
HETATM   36  O           1     -24.989  -7.560 -15.360  0.00  0.00    -0.646 OA
HETATM   37  O           1     -27.146  -7.438 -15.227  0.00  0.00    -0.646 OA
ENDBRANCH  22  35
ENDBRANCH   1  22
TORSDOF 15
ENDMDL
MODEL 2
REMARK VINA RESULT:      -6.8     11.363     14.302
REMARK  15 active torsions:
REMARK  status: ('A' for Active; 'I' for Inactive)
REMARK    1  A    between atoms: C_2  and  C_4 
REMARK    2  A    between atoms: C_4  and  C_5 
REMARK    3  A    between atoms: C_5  and  C_6 
REMARK    4  A    between atoms: C_5  and  N_9 
REMARK    5  A    between atoms: N_9  and  C_10 
REMARK    6  A    between atoms: C_10  and  C_11 
REMARK    7  A    between atoms: C_11  and  C_12 
REMARK    8  A    between atoms: C_12  and  C_13 
REMARK    9  A    between atoms: C_12  and  N_16 
REMARK       I    between atoms: N_16  and  C_17 
REMARK   10  A    between atoms: C_17  and  C_18 
REMARK   11  A    between atoms: C_18  and  C_19 
REMARK   12  A    between atoms: C_18  and  N_26 
REMARK   13  A    between atoms: C_19  and  C_20 
REMARK   14  A    between atoms: C_20  and  C_21 
REMARK   15  A    between atoms: C_21  and  N_22 
REMARK       I    between atoms: N_22  and  C_23 
REMARK       I    between atoms: C_23  and  N_24 
ROOT
HETATM    1  N           1     -20.788  -5.547  -5.056  0.00  0.00    -0.345 N 
HETATM    2  C           1     -21.580  -6.374  -4.306  0.00  0.00     0.249 C 
HETATM    3  O           1     -22.467  -7.002  -4.832  0.00  0.00    -0.271 OA
HETATM    4  H           1     -20.044  -5.022  -4.615  0.00  0.00     0.163 HD
ENDROOT
BRANCH   2   5
HETATM    5  C           1     -21.343  -6.502  -2.821  0.00  0.00     0.274 C 
BRANCH   5   6
HETATM    6  C           1     -21.394  -7.972  -2.424  0.00  0.00     0.044 C 
BRANCH   6   7
HETATM    7  C           1     -20.047  -8.392  -1.852  0.00  0.00     0.023 C 
BRANCH   7   8
HETATM    8  C           1     -19.288  -9.212  -2.887  0.00  0.00     0.138 C 
BRANCH   8   9
HETATM    9  N           1     -20.243  -9.826  -3.821  0.00  0.00    -0.227 N 
HETATM   10  C           1     -20.105  -9.658  -5.069  0.00  0.00     0.665 C 
HETATM   11  N           1     -20.927 -10.187  -5.873  0.00  0.00    -0.235 N 
HETATM   12  N           1     -19.119  -8.943  -5.522  0.00  0.00    -0.235 N 
HETATM   13  H           1     -20.812 -10.049  -6.907  0.00  0.00     0.174 HD
HETATM   14  H           1     -21.723 -10.766  -5.506  0.00  0.00     0.174 HD
HETATM   15  H           1     -19.005  -8.805  -6.552  0.00  0.00     0.174 HD
HETATM   16  H           1     -18.441  -8.507  -4.858  0.00  0.00     0.174 HD
HETATM   17  H           1     -21.039 -10.404  -3.454  0.00  0.00     0.177 HD
ENDBRANCH   8   9
ENDBRANCH   7   8
ENDBRANCH   6   7
ENDBRANCH   5   6
BRANCH   5  18
HETATM   18  N           1     -22.407  -5.748  -2.079  0.00  0.00    -0.067 N 
HETATM   19  H           1     -21.999  -5.331  -1.212  0.00  0.00     0.275 HD
HETATM   20  H           1     -22.782  -4.987  -2.688  0.00  0.00     0.275 HD
HETATM   21  H           1     -23.180  -6.401  -1.820  0.00  0.00     0.275 HD
ENDBRANCH   5  18
ENDBRANCH   2   5
BRANCH   1  22
HETATM   22  C           1     -21.014  -5.424  -6.483  0.00  0.00     0.187 C 
BRANCH  22  23
HETATM   23  C           1     -21.578  -4.043  -6.790  0.00  0.00     0.066 C 
BRANCH  23  24
HETATM   24  C           1     -22.845  -4.185  -7.623  0.00  0.00     0.273 C 
BRANCH  24  25
HETATM   25  N           1     -22.678  -3.493  -8.872  0.00  0.00     0.099 N 
HETATM   26  H           1     -21.946  -2.789  -8.777  0.00  0.00     0.317 HD
BRANCH  25  27
HETATM   27  C           1     -22.285  -4.462  -9.860  0.00  0.00     0.330 C 
BRANCH  27  28
HETATM   28  C           1     -23.503  -4.881 -10.672  0.00  0.00     0.160 C 
BRANCH  28  29
HETATM   29  C           1     -24.661  -3.968 -10.351  0.00  0.00     0.175 C 
HETATM   30  O           1     -24.714  -2.825 -10.854  0.00  0.00    -0.648 OA
HETATM   31  O           1     -25.568  -4.355  -9.582  0.00  0.00    -0.648 OA
ENDBRANCH  28  29
ENDBRANCH  27  28
BRANCH  27  32
HETATM   32  C           1     -21.253  -3.853 -10.777  0.00  0.00     0.207 C 
HETATM   33  O           1     -20.122  -4.377 -10.882  0.00  0.00    -0.646 OA
HETATM   34  O           1     -21.528  -2.824 -11.431  0.00  0.00    -0.646 OA
ENDBRANCH  27  32
ENDBRANCH  25  27
ENDBRANCH  24  25
ENDBRANCH  23  24
ENDBRANCH  22  23
BRANCH  22  35
HETATM   35  C           1     -19.709  -5.610  -7.217  0.00  0.00     0.196 C 
HETATM   36  O           1     -19.215  -6.752  -7.333  0.00  0.00    -0.646 OA
HETATM   37  O           1     -19.122  -4.623  -7.709  0.00  0.00    -0.646 OA
ENDBRANCH  22  35
ENDBRANCH   1  22
TORSDOF 15
ENDMDL
MODEL 3
REMARK VINA RESULT:      -6.7      4.027      7.374
REMARK  15 active torsions:
REMARK  status: ('A' for Active; 'I' for Inactive)
REMARK    1  A    between atoms: C_2  and  C_4 
REMARK    2  A    between atoms: C_4  and  C_5 
REMARK    3  A    between atoms: C_5  and  C_6 
REMARK    4  A    between atoms: C_5  and  N_9 
REMARK    5  A    between atoms: N_9  and  C_10 
REMARK    6  A    between atoms: C_10  and  C_11 
REMARK    7  A    between atoms: C_11  and  C_12 
REMARK    8  A    between atoms: C_12  and  C_13 
REMARK    9  A    between atoms: C_12  and  N_16 
REMARK       I    between atoms: N_16  and  C_17 
REMARK   10  A    between atoms: C_17  and  C_18 
REMARK   11  A    between atoms: C_18  and  C_19 
REMARK   12  A    between atoms: C_18  and  N_26 
REMARK   13  A    between atoms: C_19  and  C_20 
REMARK   14  A    between atoms: C_20  and  C_21 
REMARK   15  A    between atoms: C_21  and  N_22 
REMARK       I    between atoms: N_22  and  C_23 
REMARK       I    between atoms: C_23  and  N_24 
ROOT
HETATM    1  N           1     -31.795  -4.697 -15.806  0.00  0.00    -0.345 N 
HETATM    2  C           1     -30.791  -5.382 -16.436  0.00  0.00     0.249 C 
HETATM    3  O           1     -31.005  -5.937 -17.487  0.00  0.00    -0.271 OA
HETATM    4  H           1     -31.615  -4.232 -14.926  0.00  0.00     0.163 HD
ENDROOT
BRANCH   2   5
HETATM    5  C           1     -29.416  -5.443 -15.817  0.00  0.00     0.274 C 
BRANCH   5   6
HETATM    6  C           1     -28.556  -6.438 -16.586  0.00  0.00     0.044 C 
BRANCH   6   7
HETATM    7  C           1     -27.592  -7.125 -15.629  0.00  0.00     0.023 C 
BRANCH   7   8
HETATM    8  C           1     -26.198  -6.537 -15.803  0.00  0.00     0.138 C 
BRANCH   8   9
HETATM    9  N           1     -25.770  -6.696 -17.201  0.00  0.00    -0.227 N 
HETATM   10  C           1     -24.669  -7.264 -17.465  0.00  0.00     0.665 C 
HETATM   11  N           1     -24.300  -7.401 -18.668  0.00  0.00    -0.235 N 
HETATM   12  N           1     -23.918  -7.705 -16.500  0.00  0.00    -0.235 N 
HETATM   13  H           1     -23.389  -7.872 -18.887  0.00  0.00     0.174 HD
HETATM   14  H           1     -24.908  -7.045 -19.448  0.00  0.00     0.174 HD
HETATM   15  H           1     -23.010  -8.173 -16.718  0.00  0.00     0.174 HD
HETATM   16  H           1     -24.223  -7.592 -15.507  0.00  0.00     0.174 HD
HETATM   17  H           1     -26.377  -6.341 -17.980  0.00  0.00     0.177 HD
ENDBRANCH   8   9
ENDBRANCH   7   8
ENDBRANCH   6   7
ENDBRANCH   5   6
BRANCH   5  18
HETATM   18  N           1     -29.531  -5.884 -14.388  0.00  0.00    -0.067 N 
HETATM   19  H           1     -28.845  -5.355 -13.803  0.00  0.00     0.275 HD
HETATM   20  H           1     -30.499  -5.696 -14.043  0.00  0.00     0.275 HD
HETATM   21  H           1     -29.329  -6.907 -14.322  0.00  0.00     0.275 HD
ENDBRANCH   5  18
ENDBRANCH   2   5
BRANCH   1  22
HETATM   22  C           1     -33.116  -4.637 -16.401  0.00  0.00     0.187 C 
BRANCH  22  23
HETATM   23  C           1     -34.170  -4.785 -15.311  0.00  0.00     0.066 C 
BRANCH  23  24
HETATM   24  C           1     -33.626  -4.232 -14.000  0.00  0.00     0.273 C 
BRANCH  24  25
HETATM   25  N           1     -34.449  -3.139 -13.561  0.00  0.00     0.099 N 
HETATM   26  H           1     -35.427  -3.429 -13.556  0.00  0.00     0.317 HD
BRANCH  25  27
HETATM   27  C           1     -34.045  -2.796 -12.224  0.00  0.00     0.330 C 
BRANCH  27  28
HETATM   28  C           1     -34.540  -1.396 -11.888  0.00  0.00     0.160 C 
BRANCH  28  29
HETATM   29  C           1     -35.355  -0.859 -13.040  0.00  0.00     0.175 C 
HETATM   30  O           1     -34.805  -0.177 -13.930  0.00  0.00    -0.648 OA
HETATM   31  O           1     -36.581  -1.098 -13.103  0.00  0.00    -0.648 OA
ENDBRANCH  28  29
ENDBRANCH  27  28
BRANCH  27  32
HETATM   32  C           1     -34.636  -3.786 -11.251  0.00  0.00     0.207 C 
HETATM   33  O           1     -33.885  -4.504 -10.555  0.00  0.00    -0.646 OA
HETATM   34  O           1     -35.877  -3.890 -11.142  0.00  0.00    -0.646 OA
ENDBRANCH  27  32
ENDBRANCH  25  27
ENDBRANCH  24  25
ENDBRANCH  23  24
ENDBRANCH  22  23
BRANCH  22  35
HETATM   35  C           1     -33.294  -3.311 -17.097  0.00  0.00     0.196 C 
HETATM   36  O           1     -34.316  -2.624 -16.882  0.00  0.00    -0.646 OA
HETATM   37  O           1     -32.419  -2.898 -17.889  0.00  0.00    -0.646 OA
ENDBRANCH  22  35
ENDBRANCH   1  22
TORSDOF 15
ENDMDL
MODEL 4
REMARK VINA RESULT:      -6.6     12.179     15.232
REMARK  15 active torsions:
REMARK  status: ('A' for Active; 'I' for Inactive)
REMARK    1  A    between atoms: C_2  and  C_4 
REMARK    2  A    between atoms: C_4  and  C_5 
REMARK    3  A    between atoms: C_5  and  C_6 
REMARK    4  A    between atoms: C_5  and  N_9 
REMARK    5  A    between atoms: N_9  and  C_10 
REMARK    6  A    between atoms: C_10  and  C_11 
REMARK    7  A    between atoms: C_11  and  C_12 
REMARK    8  A    between atoms: C_12  and  C_13 
REMARK    9  A    between atoms: C_12  and  N_16 
REMARK       I    between atoms: N_16  and  C_17 
REMARK   10  A    between atoms: C_17  and  C_18 
REMARK   11  A    between atoms: C_18  and  C_19 
REMARK   12  A    between atoms: C_18  and  N_26 
REMARK   13  A    between atoms: C_19  and  C_20 
REMARK   14  A    between atoms: C_20  and  C_21 
REMARK   15  A    between atoms: C_21  and  N_22 
REMARK       I    between atoms: N_22  and  C_23 
REMARK       I    between atoms: C_23  and  N_24 
ROOT
HETATM    1  N           1     -21.016  -5.616  -4.745  0.00  0.00    -0.345 N 
HETATM    2  C           1     -21.439  -6.676  -3.988  0.00  0.00     0.249 C 
HETATM    3  O           1     -21.908  -7.652  -4.524  0.00  0.00    -0.271 OA
HETATM    4  H           1     -20.624  -4.799  -4.296  0.00  0.00     0.163 HD
ENDROOT
BRANCH   2   5
HETATM    5  C           1     -21.319  -6.625  -2.484  0.00  0.00     0.274 C 
BRANCH   5   6
HETATM    6  C           1     -21.614  -8.003  -1.904  0.00  0.00     0.044 C 
BRANCH   6   7
HETATM    7  C           1     -22.162  -7.853  -0.491  0.00  0.00     0.023 C 
BRANCH   7   8
HETATM    8  C           1     -22.788  -9.169  -0.047  0.00  0.00     0.138 C 
BRANCH   8   9
HETATM    9  N           1     -21.962 -10.289  -0.521  0.00  0.00    -0.227 N 
HETATM   10  C           1     -22.503 -11.260  -1.128  0.00  0.00     0.665 C 
HETATM   11  N           1     -21.792 -12.226  -1.536  0.00  0.00    -0.235 N 
HETATM   12  N           1     -23.786 -11.266  -1.332  0.00  0.00    -0.235 N 
HETATM   13  H           1     -22.239 -13.030  -2.040  0.00  0.00     0.174 HD
HETATM   14  H           1     -20.754 -12.220  -1.372  0.00  0.00     0.174 HD
HETATM   15  H           1     -24.232 -12.067  -1.833  0.00  0.00     0.174 HD
HETATM   16  H           1     -24.372 -10.469  -0.995  0.00  0.00     0.174 HD
HETATM   17  H           1     -20.926 -10.284  -0.357  0.00  0.00     0.177 HD
ENDBRANCH   8   9
ENDBRANCH   7   8
ENDBRANCH   6   7
ENDBRANCH   5   6
BRANCH   5  18
HETATM   18  N           1     -22.302  -5.633  -1.938  0.00  0.00    -0.067 N 
HETATM   19  H           1     -21.795  -4.774  -1.627  0.00  0.00     0.275 HD
HETATM   20  H           1     -22.990  -5.380  -2.682  0.00  0.00     0.275 HD
HETATM   21  H           1     -22.806  -6.053  -1.126  0.00  0.00     0.275 HD
ENDBRANCH   5  18
ENDBRANCH   2   5
BRANCH   1  22
HETATM   22  C           1     -21.131  -5.665  -6.189  0.00  0.00     0.187 C 
BRANCH  22  23
HETATM   23  C           1     -21.672  -4.336  -6.700  0.00  0.00     0.066 C 
BRANCH  23  24
HETATM   24  C           1     -22.503  -4.575  -7.954  0.00  0.00     0.273 C 
BRANCH  24  25
HETATM   25  N           1     -23.089  -3.334  -8.384  0.00  0.00     0.099 N 
HETATM   26  H           1     -22.503  -2.557  -8.081  0.00  0.00     0.317 HD
BRANCH  25  27
HETATM   27  C           1     -23.150  -3.355  -9.821  0.00  0.00     0.330 C 
BRANCH  27  28
HETATM   28  C           1     -22.479  -4.620 -10.339  0.00  0.00     0.160 C 
BRANCH  28  29
HETATM   29  C           1     -21.415  -4.251 -11.344  0.00  0.00     0.175 C 
HETATM   30  O           1     -21.741  -3.801 -12.464  0.00  0.00    -0.648 OA
HETATM   31  O           1     -20.207  -4.394 -11.055  0.00  0.00    -0.648 OA
ENDBRANCH  28  29
ENDBRANCH  27  28
BRANCH  27  32
HETATM   32  C           1     -24.593  -3.333 -10.263  0.00  0.00     0.207 C 
HETATM   33  O           1     -24.905  -3.747 -11.401  0.00  0.00    -0.646 OA
HETATM   34  O           1     -25.476  -2.900  -9.492  0.00  0.00    -0.646 OA
ENDBRANCH  27  32
ENDBRANCH  25  27
ENDBRANCH  24  25
ENDBRANCH  23  24
ENDBRANCH  22  23
BRANCH  22  35
HETATM   35  C           1     -19.772  -5.921  -6.792  0.00  0.00     0.196 C 
HETATM   36  O           1     -19.312  -7.082  -6.828  0.00  0.00    -0.646 OA
HETATM   37  O           1     -19.106  -4.971  -7.258  0.00  0.00    -0.646 OA
ENDBRANCH  22  35
ENDBRANCH   1  22
TORSDOF 15
ENDMDL
MODEL 5
REMARK VINA RESULT:      -6.6     13.202     16.296
REMARK  15 active torsions:
REMARK  status: ('A' for Active; 'I' for Inactive)
REMARK    1  A    between atoms: C_2  and  C_4 
REMARK    2  A    between atoms: C_4  and  C_5 
REMARK    3  A    between atoms: C_5  and  C_6 
REMARK    4  A    between atoms: C_5  and  N_9 
REMARK    5  A    between atoms: N_9  and  C_10 
REMARK    6  A    between atoms: C_10  and  C_11 
REMARK    7  A    between atoms: C_11  and  C_12 
REMARK    8  A    between atoms: C_12  and  C_13 
REMARK    9  A    between atoms: C_12  and  N_16 
REMARK       I    between atoms: N_16  and  C_17 
REMARK   10  A    between atoms: C_17  and  C_18 
REMARK   11  A    between atoms: C_18  and  C_19 
REMARK   12  A    between atoms: C_18  and  N_26 
REMARK   13  A    between atoms: C_19  and  C_20 
REMARK   14  A    between atoms: C_20  and  C_21 
REMARK   15  A    between atoms: C_21  and  N_22 
REMARK       I    between atoms: N_22  and  C_23 
REMARK       I    between atoms: C_23  and  N_24 
ROOT
HETATM    1  N           1     -20.512  -7.958  -4.783  0.00  0.00    -0.345 N 
HETATM    2  C           1     -20.452  -7.064  -5.819  0.00  0.00     0.249 C 
HETATM    3  O           1     -19.577  -7.156  -6.646  0.00  0.00    -0.271 OA
HETATM    4  H           1     -21.245  -7.881  -4.091  0.00  0.00     0.163 HD
ENDROOT
BRANCH   2   5
HETATM    5  C           1     -21.481  -5.965  -5.928  0.00  0.00     0.274 C 
BRANCH   5   6
HETATM    6  C           1     -20.776  -4.620  -6.047  0.00  0.00     0.044 C 
BRANCH   6   7
HETATM    7  C           1     -21.488  -3.763  -7.085  0.00  0.00     0.023 C 
BRANCH   7   8
HETATM    8  C           1     -22.319  -4.654  -7.997  0.00  0.00     0.138 C 
BRANCH   8   9
HETATM    9  N           1     -23.628  -4.028  -8.236  0.00  0.00    -0.227 N 
HETATM   10  C           1     -24.162  -4.095  -9.382  0.00  0.00     0.665 C 
HETATM   11  N           1     -25.289  -3.556  -9.588  0.00  0.00    -0.235 N 
HETATM   12  N           1     -23.553  -4.719 -10.347  0.00  0.00    -0.235 N 
HETATM   13  H           1     -25.732  -3.613 -10.537  0.00  0.00     0.174 HD
HETATM   14  H           1     -25.780  -3.053  -8.808  0.00  0.00     0.174 HD
HETATM   15  H           1     -23.995  -4.775 -11.292  0.00  0.00     0.174 HD
HETATM   16  H           1     -22.624  -5.165 -10.176  0.00  0.00     0.174 HD
HETATM   17  H           1     -24.119  -3.525  -7.457  0.00  0.00     0.177 HD
ENDBRANCH   8   9
ENDBRANCH   7   8
ENDBRANCH   6   7
ENDBRANCH   5   6
BRANCH   5  18
HETATM   18  N           1     -22.345  -5.968  -4.702  0.00  0.00    -0.067 N 
HETATM   19  H           1     -22.921  -6.839  -4.683  0.00  0.00     0.275 HD
HETATM   20  H           1     -21.741  -5.933  -3.850  0.00  0.00     0.275 HD
HETATM   21  H           1     -22.974  -5.135  -4.717  0.00  0.00     0.275 HD
ENDBRANCH   5  18
ENDBRANCH   2   5
BRANCH   1  22
HETATM   22  C           1     -19.524  -9.014  -4.679  0.00  0.00     0.187 C 
BRANCH  22  23
HETATM   23  C           1     -19.123  -9.191  -3.221  0.00  0.00     0.066 C 
BRANCH  23  24
HETATM   24  C           1     -20.044  -8.360  -2.336  0.00  0.00     0.273 C 
BRANCH  24  25
HETATM   25  N           1     -20.625  -9.201  -1.325  0.00  0.00     0.099 N 
HETATM   26  H           1     -20.214  -8.980  -0.419  0.00  0.00     0.317 HD
BRANCH  25  27
HETATM   27  C           1     -22.037  -8.928  -1.289  0.00  0.00     0.330 C 
BRANCH  27  28
HETATM   28  C           1     -22.771 -10.128  -0.706  0.00  0.00     0.160 C 
BRANCH  28  29
HETATM   29  C           1     -21.773 -11.198  -0.335  0.00  0.00     0.175 C 
HETATM   30  O           1     -21.415 -12.041  -1.185  0.00  0.00    -0.648 OA
HETATM   31  O           1     -21.303 -11.240   0.823  0.00  0.00    -0.648 OA
ENDBRANCH  28  29
ENDBRANCH  27  28
BRANCH  27  32
HETATM   32  C           1     -22.292  -7.715  -0.428  0.00  0.00     0.207 C 
HETATM   33  O           1     -22.716  -6.659  -0.946  0.00  0.00    -0.646 OA
HETATM   34  O           1     -22.079  -7.766   0.802  0.00  0.00    -0.646 OA
ENDBRANCH  27  32
ENDBRANCH  25  27
ENDBRANCH  24  25
ENDBRANCH  23  24
ENDBRANCH  22  23
BRANCH  22  35
HETATM   35  C           1     -20.111 -10.303  -5.201  0.00  0.00     0.196 C 
HETATM   36  O           1     -21.028 -10.872  -4.571  0.00  0.00    -0.646 OA
HETATM   37  O           1     -19.680 -10.802  -6.263  0.00  0.00    -0.646 OA
ENDBRANCH  22  35
ENDBRANCH   1  22
TORSDOF 15
ENDMDL
MODEL 6
REMARK VINA RESULT:      -6.6      4.465      7.815
REMARK  15 active torsions:
REMARK  status: ('A' for Active; 'I' for Inactive)
REMARK    1  A    between atoms: C_2  and  C_4 
REMARK    2  A    between atoms: C_4  and  C_5 
REMARK    3  A    between atoms: C_5  and  C_6 
REMARK    4  A    between atoms: C_5  and  N_9 
REMARK    5  A    between atoms: N_9  and  C_10 
REMARK    6  A    between atoms: C_10  and  C_11 
REMARK    7  A    between atoms: C_11  and  C_12 
REMARK    8  A    between atoms: C_12  and  C_13 
REMARK    9  A    between atoms: C_12  and  N_16 
REMARK       I    between atoms: N_16  and  C_17 
REMARK   10  A    between atoms: C_17  and  C_18 
REMARK   11  A    between atoms: C_18  and  C_19 
REMARK   12  A    between atoms: C_18  and  N_26 
REMARK   13  A    between atoms: C_19  and  C_20 
REMARK   14  A    between atoms: C_20  and  C_21 
REMARK   15  A    between atoms: C_21  and  N_22 
REMARK       I    between atoms: N_22  and  C_23 
REMARK       I    between atoms: C_23  and  N_24 
ROOT
HETATM    1  N           1     -32.471  -4.453 -16.649  0.00  0.00    -0.345 N 
HETATM    2  C           1     -31.288  -4.051 -17.211  0.00  0.00     0.249 C 
HETATM    3  O           1     -31.016  -2.876 -17.269  0.00  0.00    -0.271 OA
HETATM    4  H           1     -32.698  -5.438 -16.600  0.00  0.00     0.163 HD
ENDROOT
BRANCH   2   5
HETATM    5  C           1     -30.325  -5.077 -17.755  0.00  0.00     0.274 C 
BRANCH   5   6
HETATM    6  C           1     -29.522  -5.679 -16.609  0.00  0.00     0.044 C 
BRANCH   6   7
HETATM    7  C           1     -28.382  -6.517 -17.171  0.00  0.00     0.023 C 
BRANCH   7   8
HETATM    8  C           1     -27.074  -6.107 -16.508  0.00  0.00     0.138 C 
BRANCH   8   9
HETATM    9  N           1     -25.980  -6.942 -17.024  0.00  0.00    -0.227 N 
HETATM   10  C           1     -24.944  -7.133 -16.320  0.00  0.00     0.665 C 
HETATM   11  N           1     -24.002  -7.853 -16.764  0.00  0.00    -0.235 N 
HETATM   12  N           1     -24.850  -6.590 -15.143  0.00  0.00    -0.235 N 
HETATM   13  H           1     -23.144  -8.012 -16.180  0.00  0.00     0.174 HD
HETATM   14  H           1     -24.079  -8.292 -17.714  0.00  0.00     0.174 HD
HETATM   15  H           1     -23.995  -6.748 -14.563  0.00  0.00     0.174 HD
HETATM   16  H           1     -25.627  -5.996 -14.777  0.00  0.00     0.174 HD
HETATM   17  H           1     -26.057  -7.382 -17.974  0.00  0.00     0.177 HD
ENDBRANCH   8   9
ENDBRANCH   7   8
ENDBRANCH   6   7
ENDBRANCH   5   6
BRANCH   5  18
HETATM   18  N           1     -29.391  -4.418 -18.727  0.00  0.00    -0.067 N 
HETATM   19  H           1     -29.157  -5.088 -19.495  0.00  0.00     0.275 HD
HETATM   20  H           1     -29.851  -3.572 -19.131  0.00  0.00     0.275 HD
HETATM   21  H           1     -28.515  -4.137 -18.232  0.00  0.00     0.275 HD
ENDBRANCH   5  18
ENDBRANCH   2   5
BRANCH   1  22
HETATM   22  C           1     -33.396  -3.468 -16.124  0.00  0.00     0.187 C 
BRANCH  22  23
HETATM   23  C           1     -34.205  -2.873 -17.269  0.00  0.00     0.066 C 
BRANCH  23  24
HETATM   24  C           1     -35.334  -2.020 -16.704  0.00  0.00     0.273 C 
BRANCH  24  25
HETATM   25  N           1     -34.783  -0.852 -16.073  0.00  0.00     0.099 N 
HETATM   26  H           1     -34.603  -0.136 -16.777  0.00  0.00     0.317 HD
BRANCH  25  27
HETATM   27  C           1     -35.755  -0.364 -15.131  0.00  0.00     0.330 C 
BRANCH  27  28
HETATM   28  C           1     -35.039   0.240 -13.931  0.00  0.00     0.160 C 
BRANCH  28  29
HETATM   29  C           1     -35.645  -0.302 -12.659  0.00  0.00     0.175 C 
HETATM   30  O           1     -36.381  -1.311 -12.697  0.00  0.00    -0.648 OA
HETATM   31  O           1     -35.410   0.259 -11.566  0.00  0.00    -0.648 OA
ENDBRANCH  28  29
ENDBRANCH  27  28
BRANCH  27  32
HETATM   32  C           1     -36.608   0.691 -15.792  0.00  0.00     0.207 C 
HETATM   33  O           1     -37.822   0.474 -15.999  0.00  0.00    -0.646 OA
HETATM   34  O           1     -36.102   1.781 -16.133  0.00  0.00    -0.646 OA
ENDBRANCH  27  32
ENDBRANCH  25  27
ENDBRANCH  24  25
ENDBRANCH  23  24
ENDBRANCH  22  23
BRANCH  22  35
HETATM   35  C           1     -34.328  -4.128 -15.139  0.00  0.00     0.196 C 
HETATM   36  O           1     -34.419  -3.688 -13.973  0.00  0.00    -0.646 OA
HETATM   37  O           1     -35.010  -5.116 -15.488  0.00  0.00    -0.646 OA
ENDBRANCH  22  35
ENDBRANCH   1  22
TORSDOF 15
ENDMDL
MODEL 7
REMARK VINA RESULT:      -6.6      2.119      3.170
REMARK  15 active torsions:
REMARK  status: ('A' for Active; 'I' for Inactive)
REMARK    1  A    between atoms: C_2  and  C_4 
REMARK    2  A    between atoms: C_4  and  C_5 
REMARK    3  A    between atoms: C_5  and  C_6 
REMARK    4  A    between atoms: C_5  and  N_9 
REMARK    5  A    between atoms: N_9  and  C_10 
REMARK    6  A    between atoms: C_10  and  C_11 
REMARK    7  A    between atoms: C_11  and  C_12 
REMARK    8  A    between atoms: C_12  and  C_13 
REMARK    9  A    between atoms: C_12  and  N_16 
REMARK       I    between atoms: N_16  and  C_17 
REMARK   10  A    between atoms: C_17  and  C_18 
REMARK   11  A    between atoms: C_18  and  C_19 
REMARK   12  A    between atoms: C_18  and  N_26 
REMARK   13  A    between atoms: C_19  and  C_20 
REMARK   14  A    between atoms: C_20  and  C_21 
REMARK   15  A    between atoms: C_21  and  N_22 
REMARK       I    between atoms: N_22  and  C_23 
REMARK       I    between atoms: C_23  and  N_24 
ROOT
HETATM    1  N           1     -26.800  -6.598 -18.380  0.00  0.00    -0.345 N 
HETATM    2  C           1     -27.332  -6.112 -19.545  0.00  0.00     0.249 C 
HETATM    3  O           1     -28.309  -5.403 -19.512  0.00  0.00    -0.271 OA
HETATM    4  H           1     -25.981  -7.191 -18.408  0.00  0.00     0.163 HD
ENDROOT
BRANCH   2   5
HETATM    5  C           1     -26.695  -6.459 -20.868  0.00  0.00     0.274 C 
BRANCH   5   6
HETATM    6  C           1     -26.099  -7.859 -20.792  0.00  0.00     0.044 C 
BRANCH   6   7
HETATM    7  C           1     -24.818  -7.912 -21.615  0.00  0.00     0.023 C 
BRANCH   7   8
HETATM    8  C           1     -23.622  -8.062 -20.685  0.00  0.00     0.138 C 
BRANCH   8   9
HETATM    9  N           1     -24.058  -7.880 -19.292  0.00  0.00    -0.227 N 
HETATM   10  C           1     -23.222  -7.530 -18.408  0.00  0.00     0.665 C 
HETATM   11  N           1     -23.597  -7.373 -17.209  0.00  0.00    -0.235 N 
HETATM   12  N           1     -21.978  -7.331 -18.732  0.00  0.00    -0.235 N 
HETATM   13  H           1     -22.904  -7.082 -16.476  0.00  0.00     0.174 HD
HETATM   14  H           1     -24.602  -7.533 -16.948  0.00  0.00     0.174 HD
HETATM   15  H           1     -21.289  -7.042 -18.003  0.00  0.00     0.174 HD
HETATM   16  H           1     -21.669  -7.460 -19.722  0.00  0.00     0.174 HD
HETATM   17  H           1     -25.062  -8.039 -19.031  0.00  0.00     0.177 HD
ENDBRANCH   8   9
ENDBRANCH   7   8
ENDBRANCH   6   7
ENDBRANCH   5   6
BRANCH   5  18
HETATM   18  N           1     -25.610  -5.471 -21.175  0.00  0.00    -0.067 N 
HETATM   19  H           1     -25.518  -5.364 -22.210  0.00  0.00     0.275 HD
HETATM   20  H           1     -25.851  -4.547 -20.750  0.00  0.00     0.275 HD
HETATM   21  H           1     -24.706  -5.812 -20.779  0.00  0.00     0.275 HD
ENDBRANCH   5  18
ENDBRANCH   2   5
BRANCH   1  22
HETATM   22  C           1     -27.410  -6.263 -17.109  0.00  0.00     0.187 C 
BRANCH  22  23
HETATM   23  C           1     -28.639  -7.136 -16.891  0.00  0.00     0.066 C 
BRANCH  23  24
HETATM   24  C           1     -29.745  -6.307 -16.250  0.00  0.00     0.273 C 
BRANCH  24  25
HETATM   25  N           1     -30.599  -5.771 -17.275  0.00  0.00     0.099 N 
HETATM   26  H           1     -31.487  -6.273 -17.275  0.00  0.00     0.317 HD
BRANCH  25  27
HETATM   27  C           1     -30.832  -4.385 -16.968  0.00  0.00     0.330 C 
BRANCH  27  28
HETATM   28  C           1     -30.087  -3.512 -17.969  0.00  0.00     0.160 C 
BRANCH  28  29
HETATM   29  C           1     -29.104  -2.632 -17.235  0.00  0.00     0.175 C 
HETATM   30  O           1     -28.077  -3.131 -16.727  0.00  0.00    -0.648 OA
HETATM   31  O           1     -29.318  -1.404 -17.135  0.00  0.00    -0.648 OA
ENDBRANCH  28  29
ENDBRANCH  27  28
BRANCH  27  32
HETATM   32  C           1     -32.311  -4.095 -17.050  0.00  0.00     0.207 C 
HETATM   33  O           1     -32.716  -3.069 -17.639  0.00  0.00    -0.646 OA
HETATM   34  O           1     -33.131  -4.881 -16.528  0.00  0.00    -0.646 OA
ENDBRANCH  27  32
ENDBRANCH  25  27
ENDBRANCH  24  25
ENDBRANCH  23  24
ENDBRANCH  22  23
BRANCH  22  35
HETATM   35  C           1     -26.419  -6.503 -15.997  0.00  0.00     0.196 C 
HETATM   36  O           1     -26.540  -7.502 -15.256  0.00  0.00    -0.646 OA
HETATM   37  O           1     -25.477  -5.702 -15.816  0.00  0.00    -0.646 OA
ENDBRANCH  22  35
ENDBRANCH   1  22
TORSDOF 15
ENDMDL
MODEL 8
REMARK VINA RESULT:      -6.5      5.704     11.056
REMARK  15 active torsions:
REMARK  status: ('A' for Active; 'I' for Inactive)
REMARK    1  A    between atoms: C_2  and  C_4 
REMARK    2  A    between atoms: C_4  and  C_5 
REMARK    3  A    between atoms: C_5  and  C_6 
REMARK    4  A    between atoms: C_5  and  N_9 
REMARK    5  A    between atoms: N_9  and  C_10 
REMARK    6  A    between atoms: C_10  and  C_11 
REMARK    7  A    between atoms: C_11  and  C_12 
REMARK    8  A    between atoms: C_12  and  C_13 
REMARK    9  A    between atoms: C_12  and  N_16 
REMARK       I    between atoms: N_16  and  C_17 
REMARK   10  A    between atoms: C_17  and  C_18 
REMARK   11  A    between atoms: C_18  and  C_19 
REMARK   12  A    between atoms: C_18  and  N_26 
REMARK   13  A    between atoms: C_19  and  C_20 
REMARK   14  A    between atoms: C_20  and  C_21 
REMARK   15  A    between atoms: C_21  and  N_22 
REMARK       I    between atoms: N_22  and  C_23 
REMARK       I    between atoms: C_23  and  N_24 
ROOT
HETATM    1  N           1     -34.499  -1.704 -15.948  0.00  0.00    -0.345 N 
HETATM    2  C           1     -35.659  -0.976 -15.934  0.00  0.00     0.249 C 
HETATM    3  O           1     -36.670  -1.442 -16.404  0.00  0.00    -0.271 OA
HETATM    4  H           1     -33.653  -1.313 -15.554  0.00  0.00     0.163 HD
ENDROOT
BRANCH   2   5
HETATM    5  C           1     -35.675   0.407 -15.331  0.00  0.00     0.274 C 
BRANCH   5   6
HETATM    6  C           1     -36.208   0.333 -13.906  0.00  0.00     0.044 C 
BRANCH   6   7
HETATM    7  C           1     -35.044   0.202 -12.933  0.00  0.00     0.023 C 
BRANCH   7   8
HETATM    8  C           1     -35.365  -0.864 -11.895  0.00  0.00     0.138 C 
BRANCH   8   9
HETATM    9  N           1     -34.515  -2.042 -12.123  0.00  0.00    -0.227 N 
HETATM   10  C           1     -33.706  -2.420 -11.225  0.00  0.00     0.665 C 
HETATM   11  N           1     -32.973  -3.435 -11.421  0.00  0.00    -0.235 N 
HETATM   12  N           1     -33.628  -1.768 -10.104  0.00  0.00    -0.235 N 
HETATM   13  H           1     -32.303  -3.749 -10.677  0.00  0.00     0.174 HD
HETATM   14  H           1     -33.038  -3.962 -12.327  0.00  0.00     0.174 HD
HETATM   15  H           1     -32.960  -2.081  -9.364  0.00  0.00     0.174 HD
HETATM   16  H           1     -34.232  -0.931  -9.943  0.00  0.00     0.174 HD
HETATM   17  H           1     -34.579  -2.569 -13.028  0.00  0.00     0.177 HD
ENDBRANCH   8   9
ENDBRANCH   7   8
ENDBRANCH   6   7
ENDBRANCH   5   6
BRANCH   5  18
HETATM   18  N           1     -36.562   1.298 -16.149  0.00  0.00    -0.067 N 
HETATM   19  H           1     -36.006   2.104 -16.515  0.00  0.00     0.275 HD
HETATM   20  H           1     -36.956   0.755 -16.951  0.00  0.00     0.275 HD
HETATM   21  H           1     -37.342   1.655 -15.554  0.00  0.00     0.275 HD
ENDBRANCH   5  18
ENDBRANCH   2   5
BRANCH   1  22
HETATM   22  C           1     -34.483  -3.033 -16.526  0.00  0.00     0.187 C 
BRANCH  22  23
HETATM   23  C           1     -33.175  -3.244 -17.276  0.00  0.00     0.066 C 
BRANCH  23  24
HETATM   24  C           1     -32.545  -4.560 -16.837  0.00  0.00     0.273 C 
BRANCH  24  25
HETATM   25  N           1     -31.126  -4.386 -16.684  0.00  0.00     0.099 N 
HETATM   26  H           1     -30.842  -4.699 -15.756  0.00  0.00     0.317 HD
BRANCH  25  27
HETATM   27  C           1     -30.476  -5.193 -17.681  0.00  0.00     0.330 C 
BRANCH  27  28
HETATM   28  C           1     -29.307  -4.419 -18.277  0.00  0.00     0.160 C 
BRANCH  28  29
HETATM   29  C           1     -28.914  -3.301 -17.343  0.00  0.00     0.175 C 
HETATM   30  O           1     -28.026  -3.489 -16.483  0.00  0.00    -0.648 OA
HETATM   31  O           1     -29.477  -2.188 -17.428  0.00  0.00    -0.648 OA
ENDBRANCH  28  29
ENDBRANCH  27  28
BRANCH  27  32
HETATM   32  C           1     -29.967  -6.463 -17.045  0.00  0.00     0.207 C 
HETATM   33  O           1     -30.134  -7.561 -17.621  0.00  0.00    -0.646 OA
HETATM   34  O           1     -29.379  -6.418 -15.943  0.00  0.00    -0.646 OA
ENDBRANCH  27  32
ENDBRANCH  25  27
ENDBRANCH  24  25
ENDBRANCH  23  24
ENDBRANCH  22  23
BRANCH  22  35
HETATM   35  C           1     -34.607  -4.060 -15.428  0.00  0.00     0.196 C 
HETATM   36  O           1     -35.180  -5.148 -15.652  0.00  0.00    -0.646 OA
HETATM   37  O           1     -34.136  -3.824 -14.295  0.00  0.00    -0.646 OA
ENDBRANCH  22  35
ENDBRANCH   1  22
TORSDOF 15
ENDMDL
MODEL 9
REMARK VINA RESULT:      -6.5      5.605     10.920
REMARK  15 active torsions:
REMARK  status: ('A' for Active; 'I' for Inactive)
REMARK    1  A    between atoms: C_2  and  C_4 
REMARK    2  A    between atoms: C_4  and  C_5 
REMARK    3  A    between atoms: C_5  and  C_6 
REMARK    4  A    between atoms: C_5  and  N_9 
REMARK    5  A    between atoms: N_9  and  C_10 
REMARK    6  A    between atoms: C_10  and  C_11 
REMARK    7  A    between atoms: C_11  and  C_12 
REMARK    8  A    between atoms: C_12  and  C_13 
REMARK    9  A    between atoms: C_12  and  N_16 
REMARK       I    between atoms: N_16  and  C_17 
REMARK   10  A    between atoms: C_17  and  C_18 
REMARK   11  A    between atoms: C_18  and  C_19 
REMARK   12  A    between atoms: C_18  and  N_26 
REMARK   13  A    between atoms: C_19  and  C_20 
REMARK   14  A    between atoms: C_20  and  C_21 
REMARK   15  A    between atoms: C_21  and  N_22 
REMARK       I    between atoms: N_22  and  C_23 
REMARK       I    between atoms: C_23  and  N_24 
ROOT
HETATM    1  N           1     -34.539  -1.694 -16.160  0.00  0.00    -0.345 N 
HETATM    2  C           1     -35.724  -1.007 -16.178  0.00  0.00     0.249 C 
HETATM    3  O           1     -36.724  -1.539 -16.599  0.00  0.00    -0.271 OA
HETATM    4  H           1     -33.703  -1.249 -15.807  0.00  0.00     0.163 HD
ENDROOT
BRANCH   2   5
HETATM    5  C           1     -35.781   0.413 -15.671  0.00  0.00     0.274 C 
BRANCH   5   6
HETATM    6  C           1     -35.235   0.467 -14.250  0.00  0.00     0.044 C 
BRANCH   6   7
HETATM    7  C           1     -36.184  -0.265 -13.311  0.00  0.00     0.023 C 
BRANCH   7   8
HETATM    8  C           1     -35.461  -0.595 -12.013  0.00  0.00     0.138 C 
BRANCH   8   9
HETATM    9  N           1     -34.556  -1.733 -12.231  0.00  0.00    -0.227 N 
HETATM   10  C           1     -33.871  -2.190 -11.269  0.00  0.00     0.665 C 
HETATM   11  N           1     -33.091  -3.170 -11.457  0.00  0.00    -0.235 N 
HETATM   12  N           1     -33.969  -1.653 -10.089  0.00  0.00    -0.235 N 
HETATM   13  H           1     -32.524  -3.550 -10.660  0.00  0.00     0.174 HD
HETATM   14  H           1     -33.013  -3.604 -12.411  0.00  0.00     0.174 HD
HETATM   15  H           1     -33.403  -2.031  -9.296  0.00  0.00     0.174 HD
HETATM   16  H           1     -34.612  -0.845  -9.935  0.00  0.00     0.174 HD
HETATM   17  H           1     -34.478  -2.166 -13.184  0.00  0.00     0.177 HD
ENDBRANCH   8   9
ENDBRANCH   7   8
ENDBRANCH   6   7
ENDBRANCH   5   6
BRANCH   5  18
HETATM   18  N           1     -37.204   0.888 -15.677  0.00  0.00    -0.067 N 
HETATM   19  H           1     -37.765   0.300 -16.334  0.00  0.00     0.275 HD
HETATM   20  H           1     -37.601   0.809 -14.714  0.00  0.00     0.275 HD
HETATM   21  H           1     -37.237   1.885 -15.987  0.00  0.00     0.275 HD
ENDBRANCH   5  18
ENDBRANCH   2   5
BRANCH   1  22
HETATM   22  C           1     -34.485  -3.059 -16.645  0.00  0.00     0.187 C 
BRANCH  22  23
HETATM   23  C           1     -33.178  -3.277 -17.398  0.00  0.00     0.066 C 
BRANCH  23  24
HETATM   24  C           1     -32.456  -4.488 -16.822  0.00  0.00     0.273 C 
BRANCH  24  25
HETATM   25  N           1     -31.036  -4.298 -16.932  0.00  0.00     0.099 N 
HETATM   26  H           1     -30.727  -3.624 -16.231  0.00  0.00     0.317 HD
BRANCH  25  27
HETATM   27  C           1     -30.404  -5.566 -16.687  0.00  0.00     0.330 C 
BRANCH  27  28
HETATM   28  C           1     -29.842  -6.113 -17.993  0.00  0.00     0.160 C 
BRANCH  28  29
HETATM   29  C           1     -30.000  -7.614 -18.020  0.00  0.00     0.175 C 
HETATM   30  O           1     -30.581  -8.164 -18.980  0.00  0.00    -0.648 OA
HETATM   31  O           1     -29.551  -8.307 -17.081  0.00  0.00    -0.648 OA
ENDBRANCH  28  29
ENDBRANCH  27  28
BRANCH  27  32
HETATM   32  C           1     -29.283  -5.386 -15.693  0.00  0.00     0.207 C 
HETATM   33  O           1     -28.154  -5.015 -16.083  0.00  0.00    -0.646 OA
HETATM   34  O           1     -29.483  -5.607 -14.479  0.00  0.00    -0.646 OA
ENDBRANCH  27  32
ENDBRANCH  25  27
ENDBRANCH  24  25
ENDBRANCH  23  24
ENDBRANCH  22  23
BRANCH  22  35
HETATM   35  C           1     -34.559  -4.011 -15.478  0.00  0.00     0.196 C 
HETATM   36  O           1     -35.118  -5.121 -15.611  0.00  0.00    -0.646 OA
HETATM   37  O           1     -34.060  -3.691 -14.377  0.00  0.00    -0.646 OA
ENDBRANCH  22  35
ENDBRANCH   1  22
TORSDOF 15
ENDMDL
