MODEL 1
REMARK VINA RESULT:      -6.6      0.000      0.000
REMARK  11 active torsions:
REMARK  status: ('A' for Active; 'I' for Inactive)
REMARK    1  A    between atoms: N_2  and  C_3 
REMARK    2  A    between atoms: C_3  and  C_5 
REMARK    3  A    between atoms: C_4  and  C_12 
REMARK    4  A    between atoms: C_4  and  C_14 
REMARK    5  A    between atoms: C_4  and  N_8 
REMARK    6  A    between atoms: C_5  and  C_6 
REMARK    7  A    between atoms: C_6  and  C_12 
REMARK       I    between atoms: N_8  and  C_9 
REMARK    8  A    between atoms: C_9  and  C_10 
REMARK    9  A    between atoms: C_10  and  C_11 
REMARK   10  A    between atoms: C_10  and  N_19 
REMARK   11  A    between atoms: C_11  and  C_24 
ROOT
HETATM    1  H           1     -32.422  -3.511 -14.437  0.00  0.00     0.163 HD
HETATM    2  N           1     -33.332  -3.947 -14.357  0.00  0.00    -0.345 N 
HETATM    3  C           1     -33.925  -4.502 -15.460  0.00  0.00     0.249 C 
HETATM    4  O           1     -35.010  -5.023 -15.364  0.00  0.00    -0.271 OA
ENDROOT
BRANCH   2   5
HETATM    5  C           1     -34.007  -3.985 -13.074  0.00  0.00     0.185 C 
BRANCH   5   6
HETATM    6  C           1     -32.989  -4.251 -11.973  0.00  0.00     0.036 C 
BRANCH   6   7
HETATM    7  C           1     -33.256  -5.616 -11.352  0.00  0.00     0.004 C 
BRANCH   7   8
HETATM    8  C           1     -34.543  -5.564 -10.542  0.00  0.00     0.027 C 
BRANCH   8   9
HETATM    9  C           1     -34.798  -6.924  -9.905  0.00  0.00     0.229 C 
BRANCH   9  10
HETATM   10  N           1     -34.788  -7.984 -10.967  0.00  0.00    -0.079 N 
HETATM   11  H           1     -34.964  -8.917 -10.530  0.00  0.00     0.274 HD
HETATM   12  H           1     -35.537  -7.782 -11.668  0.00  0.00     0.274 HD
HETATM   13  H           1     -33.858  -7.991 -11.442  0.00  0.00     0.274 HD
ENDBRANCH   9  10
ENDBRANCH   8   9
ENDBRANCH   7   8
ENDBRANCH   6   7
ENDBRANCH   5   6
BRANCH   5  14
HETATM   14  C           1     -34.684  -2.659 -12.824  0.00  0.00     0.196 C 
HETATM   15  O           1     -34.985  -1.921 -13.787  0.00  0.00    -0.646 OA
HETATM   16  O           1     -34.944  -2.301 -11.656  0.00  0.00    -0.646 OA
ENDBRANCH   5  14
ENDBRANCH   2   5
BRANCH   3  17
HETATM   17  C           1     -33.222  -4.463 -16.794  0.00  0.00     0.278 C 
BRANCH  17  18
HETATM   18  C           1     -31.730  -4.686 -16.590  0.00  0.00     0.021 C 
HETATM   19  C           1     -31.362  -6.098 -17.026  0.00  0.00     0.012 C 
BRANCH  18  20
HETATM   20  C           1     -30.947  -3.679 -17.422  0.00  0.00     0.002 C 
HETATM   21  C           1     -29.766  -4.374 -18.084  0.00  0.00     0.005 C 
ENDBRANCH  18  20
ENDBRANCH  17  18
BRANCH  17  22
HETATM   22  N           1     -33.444  -3.124 -17.436  0.00  0.00    -0.066 N 
HETATM   23  H           1     -32.573  -2.552 -17.359  0.00  0.00     0.275 HD
HETATM   24  H           1     -34.227  -2.631 -16.951  0.00  0.00     0.275 HD
HETATM   25  H           1     -33.684  -3.257 -18.444  0.00  0.00     0.275 HD
ENDBRANCH  17  22
ENDBRANCH   3  17
TORSDOF 11
ENDMDL
MODEL 2
REMARK VINA RESULT:      -6.4      4.120      6.227
REMARK  11 active torsions:
REMARK  status: ('A' for Active; 'I' for Inactive)
REMARK    1  A    between atoms: N_2  and  C_3 
REMARK    2  A    between atoms: C_3  and  C_5 
REMARK    3  A    between atoms: C_4  and  C_12 
REMARK    4  A    between atoms: C_4  and  C_14 
REMARK    5  A    between atoms: C_4  and  N_8 
REMARK    6  A    between atoms: C_5  and  C_6 
REMARK    7  A    between atoms: C_6  and  C_12 
REMARK       I    between atoms: N_8  and  C_9 
REMARK    8  A    between atoms: C_9  and  C_10 
REMARK    9  A    between atoms: C_10  and  C_11 
REMARK   10  A    between atoms: C_10  and  N_19 
REMARK   11  A    between atoms: C_11  and  C_24 
ROOT
HETATM    1  H           1     -34.765  -0.687 -11.505  0.00  0.00     0.163 HD
HETATM    2  N           1     -34.948  -1.251 -12.325  0.00  0.00    -0.345 N 
HETATM    3  C           1     -34.333  -2.466 -12.470  0.00  0.00     0.249 C 
HETATM    4  O           1     -34.552  -3.140 -13.449  0.00  0.00    -0.271 OA
ENDROOT
BRANCH   2   5
HETATM    5  C           1     -35.861  -0.774 -13.345  0.00  0.00     0.185 C 
BRANCH   5   6
HETATM    6  C           1     -37.045  -0.082 -12.682  0.00  0.00     0.036 C 
BRANCH   6   7
HETATM    7  C           1     -36.762   0.098 -11.196  0.00  0.00     0.004 C 
BRANCH   7   8
HETATM    8  C           1     -38.075   0.099 -10.425  0.00  0.00     0.027 C 
BRANCH   8   9
HETATM    9  C           1     -38.030   1.173  -9.345  0.00  0.00     0.229 C 
BRANCH   9  10
HETATM   10  N           1     -36.606   1.421  -8.945  0.00  0.00    -0.079 N 
HETATM   11  H           1     -36.169   0.524  -8.633  0.00  0.00     0.274 HD
HETATM   12  H           1     -36.075   1.800  -9.762  0.00  0.00     0.274 HD
HETATM   13  H           1     -36.580   2.112  -8.162  0.00  0.00     0.274 HD
ENDBRANCH   9  10
ENDBRANCH   8   9
ENDBRANCH   7   8
ENDBRANCH   6   7
ENDBRANCH   5   6
BRANCH   5  14
HETATM   14  C           1     -35.144   0.205 -14.242  0.00  0.00     0.196 C 
HETATM   15  O           1     -34.875   1.353 -13.825  0.00  0.00    -0.646 OA
HETATM   16  O           1     -34.818  -0.131 -15.400  0.00  0.00    -0.646 OA
ENDBRANCH   5  14
ENDBRANCH   2   5
BRANCH   3  17
HETATM   17  C           1     -33.383  -2.963 -11.409  0.00  0.00     0.278 C 
BRANCH  17  18
HETATM   18  C           1     -34.029  -4.111 -10.646  0.00  0.00     0.021 C 
HETATM   19  C           1     -35.542  -4.031 -10.792  0.00  0.00     0.012 C 
BRANCH  18  20
HETATM   20  C           1     -33.535  -5.437 -11.209  0.00  0.00     0.002 C 
HETATM   21  C           1     -34.332  -6.580 -10.596  0.00  0.00     0.005 C 
ENDBRANCH  18  20
ENDBRANCH  17  18
BRANCH  17  22
HETATM   22  N           1     -33.068  -1.846 -10.458  0.00  0.00    -0.066 N 
HETATM   23  H           1     -32.031  -1.746 -10.369  0.00  0.00     0.275 HD
HETATM   24  H           1     -33.478  -2.059  -9.521  0.00  0.00     0.275 HD
HETATM   25  H           1     -33.473  -0.954 -10.822  0.00  0.00     0.275 HD
ENDBRANCH  17  22
ENDBRANCH   3  17
TORSDOF 11
ENDMDL
MODEL 3
REMARK VINA RESULT:      -6.3      4.102      6.507
REMARK  11 active torsions:
REMARK  status: ('A' for Active; 'I' for Inactive)
REMARK    1  A    between atoms: N_2  and  C_3 
REMARK    2  A    between atoms: C_3  and  C_5 
REMARK    3  A    between atoms: C_4  and  C_12 
REMARK    4  A    between atoms: C_4  and  C_14 
REMARK    5  A    between atoms: C_4  and  N_8 
REMARK    6  A    between atoms: C_5  and  C_6 
REMARK    7  A    between atoms: C_6  and  C_12 
REMARK       I    between atoms: N_8  and  C_9 
REMARK    8  A    between atoms: C_9  and  C_10 
REMARK    9  A    between atoms: C_10  and  C_11 
REMARK   10  A    between atoms: C_10  and  N_19 
REMARK   11  A    between atoms: C_11  and  C_24 
ROOT
HETATM    1  H           1     -35.895  -2.381 -12.714  0.00  0.00     0.163 HD
HETATM    2  N           1     -35.314  -1.824 -12.102  0.00  0.00    -0.345 N 
HETATM    3  C           1     -34.207  -2.379 -11.517  0.00  0.00     0.249 C 
HETATM    4  O           1     -33.513  -1.714 -10.786  0.00  0.00    -0.271 OA
ENDROOT
BRANCH   2   5
HETATM    5  C           1     -35.654  -0.438 -11.843  0.00  0.00     0.185 C 
BRANCH   5   6
HETATM    6  C           1     -36.150   0.211 -13.128  0.00  0.00     0.036 C 
BRANCH   6   7
HETATM    7  C           1     -34.977   0.844 -13.864  0.00  0.00     0.004 C 
BRANCH   7   8
HETATM    8  C           1     -35.180   0.697 -15.366  0.00  0.00     0.027 C 
BRANCH   8   9
HETATM    9  C           1     -36.141  -0.453 -15.638  0.00  0.00     0.229 C 
BRANCH   9  10
HETATM   10  N           1     -36.260  -0.667 -17.118  0.00  0.00    -0.079 N 
HETATM   11  H           1     -37.202  -1.062 -17.339  0.00  0.00     0.274 HD
HETATM   12  H           1     -36.141   0.246 -17.613  0.00  0.00     0.274 HD
HETATM   13  H           1     -35.520  -1.334 -17.434  0.00  0.00     0.274 HD
ENDBRANCH   9  10
ENDBRANCH   8   9
ENDBRANCH   7   8
ENDBRANCH   6   7
ENDBRANCH   5   6
BRANCH   5  14
HETATM   14  C           1     -36.738  -0.375 -10.795  0.00  0.00     0.196 C 
HETATM   15  O           1     -37.826  -0.961 -10.986  0.00  0.00    -0.646 OA
HETATM   16  O           1     -36.549   0.263  -9.737  0.00  0.00    -0.646 OA
ENDBRANCH   5  14
ENDBRANCH   2   5
BRANCH   3  17
HETATM   17  C           1     -33.853  -3.821 -11.787  0.00  0.00     0.278 C 
BRANCH  17  18
HETATM   18  C           1     -34.339  -4.687 -10.633  0.00  0.00     0.021 C 
HETATM   19  C           1     -35.861  -4.661 -10.583  0.00  0.00     0.012 C 
BRANCH  18  20
HETATM   20  C           1     -33.865  -6.119 -10.839  0.00  0.00     0.002 C 
HETATM   21  C           1     -34.730  -7.066 -10.018  0.00  0.00     0.005 C 
ENDBRANCH  18  20
ENDBRANCH  17  18
BRANCH  17  22
HETATM   22  N           1     -32.364  -3.954 -11.919  0.00  0.00    -0.066 N 
HETATM   23  H           1     -31.910  -3.691 -11.015  0.00  0.00     0.275 HD
HETATM   24  H           1     -32.024  -3.318 -12.676  0.00  0.00     0.275 HD
HETATM   25  H           1     -32.122  -4.942 -12.156  0.00  0.00     0.275 HD
ENDBRANCH  17  22
ENDBRANCH   3  17
TORSDOF 11
ENDMDL
MODEL 4
REMARK VINA RESULT:      -6.3      5.658      8.455
REMARK  11 active torsions:
REMARK  status: ('A' for Active; 'I' for Inactive)
REMARK    1  A    between atoms: N_2  and  C_3 
REMARK    2  A    between atoms: C_3  and  C_5 
REMARK    3  A    between atoms: C_4  and  C_12 
REMARK    4  A    between atoms: C_4  and  C_14 
REMARK    5  A    between atoms: C_4  and  N_8 
REMARK    6  A    between atoms: C_5  and  C_6 
REMARK    7  A    between atoms: C_6  and  C_12 
REMARK       I    between atoms: N_8  and  C_9 
REMARK    8  A    between atoms: C_9  and  C_10 
REMARK    9  A    between atoms: C_10  and  C_11 
REMARK   10  A    between atoms: C_10  and  N_19 
REMARK   11  A    between atoms: C_11  and  C_24 
ROOT
HETATM    1  H           1     -27.462  -7.073 -19.731  0.00  0.00     0.163 HD
HETATM    2  N           1     -27.414  -6.679 -18.800  0.00  0.00    -0.345 N 
HETATM    3  C           1     -26.197  -6.401 -18.236  0.00  0.00     0.249 C 
HETATM    4  O           1     -26.140  -5.930 -17.125  0.00  0.00    -0.271 OA
ENDROOT
BRANCH   2   5
HETATM    5  C           1     -28.633  -6.410 -18.063  0.00  0.00     0.185 C 
BRANCH   5   6
HETATM    6  C           1     -29.293  -5.154 -18.615  0.00  0.00     0.036 C 
BRANCH   6   7
HETATM    7  C           1     -29.492  -4.147 -17.490  0.00  0.00     0.004 C 
BRANCH   7   8
HETATM    8  C           1     -30.902  -3.577 -17.561  0.00  0.00     0.027 C 
BRANCH   8   9
HETATM    9  C           1     -31.865  -4.514 -16.843  0.00  0.00     0.229 C 
BRANCH   9  10
HETATM   10  N           1     -33.234  -3.901 -16.816  0.00  0.00    -0.079 N 
HETATM   11  H           1     -33.302  -3.234 -16.015  0.00  0.00     0.274 HD
HETATM   12  H           1     -33.403  -3.388 -17.711  0.00  0.00     0.274 HD
HETATM   13  H           1     -33.950  -4.654 -16.705  0.00  0.00     0.274 HD
ENDBRANCH   9  10
ENDBRANCH   8   9
ENDBRANCH   7   8
ENDBRANCH   6   7
ENDBRANCH   5   6
BRANCH   5  14
HETATM   14  C           1     -29.577  -7.579 -18.209  0.00  0.00     0.196 C 
HETATM   15  O           1     -30.471  -7.771 -17.357  0.00  0.00    -0.646 OA
HETATM   16  O           1     -29.465  -8.355 -19.183  0.00  0.00    -0.646 OA
ENDBRANCH   5  14
ENDBRANCH   2   5
BRANCH   3  17
HETATM   17  C           1     -24.928  -6.681 -19.003  0.00  0.00     0.278 C 
BRANCH  17  18
HETATM   18  C           1     -25.277  -7.208 -20.388  0.00  0.00     0.021 C 
HETATM   19  C           1     -25.410  -6.042 -21.358  0.00  0.00     0.012 C 
BRANCH  18  20
HETATM   20  C           1     -24.175  -8.143 -20.868  0.00  0.00     0.002 C 
HETATM   21  C           1     -23.917  -7.907 -22.350  0.00  0.00     0.005 C 
ENDBRANCH  18  20
ENDBRANCH  17  18
BRANCH  17  22
HETATM   22  N           1     -24.117  -7.706 -18.268  0.00  0.00    -0.066 N 
HETATM   23  H           1     -23.466  -7.226 -17.606  0.00  0.00     0.275 HD
HETATM   24  H           1     -23.562  -8.268 -18.953  0.00  0.00     0.275 HD
HETATM   25  H           1     -24.755  -8.337 -17.733  0.00  0.00     0.275 HD
ENDBRANCH  17  22
ENDBRANCH   3  17
TORSDOF 11
ENDMDL
MODEL 5
REMARK VINA RESULT:      -6.2      3.548      5.278
REMARK  11 active torsions:
REMARK  status: ('A' for Active; 'I' for Inactive)
REMARK    1  A    between atoms: N_2  and  C_3 
REMARK    2  A    between atoms: C_3  and  C_5 
REMARK    3  A    between atoms: C_4  and  C_12 
REMARK    4  A    between atoms: C_4  and  C_14 
REMARK    5  A    between atoms: C_4  and  N_8 
REMARK    6  A    between atoms: C_5  and  C_6 
REMARK    7  A    between atoms: C_6  and  C_12 
REMARK       I    between atoms: N_8  and  C_9 
REMARK    8  A    between atoms: C_9  and  C_10 
REMARK    9  A    between atoms: C_10  and  C_11 
REMARK   10  A    between atoms: C_10  and  N_19 
REMARK   11  A    between atoms: C_11  and  C_24 
ROOT
HETATM    1  H           1     -35.962  -3.280 -12.439  0.00  0.00     0.163 HD
HETATM    2  N           1     -35.273  -3.082 -11.726  0.00  0.00    -0.345 N 
HETATM    3  C           1     -35.279  -1.871 -11.085  0.00  0.00     0.249 C 
HETATM    4  O           1     -34.455  -1.635 -10.234  0.00  0.00    -0.271 OA
ENDROOT
BRANCH   2   5
HETATM    5  C           1     -34.277  -4.079 -11.382  0.00  0.00     0.185 C 
BRANCH   5   6
HETATM    6  C           1     -34.941  -5.446 -11.288  0.00  0.00     0.036 C 
BRANCH   6   7
HETATM    7  C           1     -34.276  -6.260 -10.186  0.00  0.00     0.004 C 
BRANCH   7   8
HETATM    8  C           1     -35.009  -7.583 -10.017  0.00  0.00     0.027 C 
BRANCH   8   9
HETATM    9  C           1     -34.065  -8.613  -9.408  0.00  0.00     0.229 C 
BRANCH   9  10
HETATM   10  N           1     -33.409  -9.400 -10.503  0.00  0.00    -0.079 N 
HETATM   11  H           1     -33.078  -8.749 -11.250  0.00  0.00     0.274 HD
HETATM   12  H           1     -32.593  -9.925 -10.113  0.00  0.00     0.274 HD
HETATM   13  H           1     -34.097 -10.075 -10.907  0.00  0.00     0.274 HD
ENDBRANCH   9  10
ENDBRANCH   8   9
ENDBRANCH   7   8
ENDBRANCH   6   7
ENDBRANCH   5   6
BRANCH   5  14
HETATM   14  C           1     -33.210  -4.110 -12.449  0.00  0.00     0.196 C 
HETATM   15  O           1     -33.496  -3.811 -13.628  0.00  0.00    -0.646 OA
HETATM   16  O           1     -32.040  -4.434 -12.153  0.00  0.00    -0.646 OA
ENDBRANCH   5  14
ENDBRANCH   2   5
BRANCH   3  17
HETATM   17  C           1     -36.315  -0.834 -11.442  0.00  0.00     0.278 C 
BRANCH  17  18
HETATM   18  C           1     -36.196  -0.485 -12.919  0.00  0.00     0.021 C 
HETATM   19  C           1     -37.551  -0.032 -13.445  0.00  0.00     0.012 C 
BRANCH  18  20
HETATM   20  C           1     -35.183   0.638 -13.096  0.00  0.00     0.002 C 
HETATM   21  C           1     -34.863   0.807 -14.575  0.00  0.00     0.005 C 
ENDBRANCH  18  20
ENDBRANCH  17  18
BRANCH  17  22
HETATM   22  N           1     -36.090   0.400 -10.618  0.00  0.00    -0.066 N 
HETATM   23  H           1     -35.768   0.126  -9.662  0.00  0.00     0.275 HD
HETATM   24  H           1     -36.984   0.936 -10.542  0.00  0.00     0.275 HD
HETATM   25  H           1     -35.363   0.996 -11.073  0.00  0.00     0.275 HD
ENDBRANCH  17  22
ENDBRANCH   3  17
TORSDOF 11
ENDMDL
MODEL 6
REMARK VINA RESULT:      -6.0     14.170     16.183
REMARK  11 active torsions:
REMARK  status: ('A' for Active; 'I' for Inactive)
REMARK    1  A    between atoms: N_2  and  C_3 
REMARK    2  A    between atoms: C_3  and  C_5 
REMARK    3  A    between atoms: C_4  and  C_12 
REMARK    4  A    between atoms: C_4  and  C_14 
REMARK    5  A    between atoms: C_4  and  N_8 
REMARK    6  A    between atoms: C_5  and  C_6 
REMARK    7  A    between atoms: C_6  and  C_12 
REMARK       I    between atoms: N_8  and  C_9 
REMARK    8  A    between atoms: C_9  and  C_10 
REMARK    9  A    between atoms: C_10  and  C_11 
REMARK   10  A    between atoms: C_10  and  N_19 
REMARK   11  A    between atoms: C_11  and  C_24 
ROOT
HETATM    1  H           1     -20.542  -4.776  -4.496  0.00  0.00     0.163 HD
HETATM    2  N           1     -21.041  -5.544  -4.925  0.00  0.00    -0.345 N 
HETATM    3  C           1     -21.511  -6.573  -4.153  0.00  0.00     0.249 C 
HETATM    4  O           1     -22.107  -7.490  -4.665  0.00  0.00    -0.271 OA
ENDROOT
BRANCH   2   5
HETATM    5  C           1     -21.258  -5.557  -6.359  0.00  0.00     0.185 C 
BRANCH   5   6
HETATM    6  C           1     -21.738  -4.184  -6.811  0.00  0.00     0.036 C 
BRANCH   6   7
HETATM    7  C           1     -22.874  -4.347  -7.812  0.00  0.00     0.004 C 
BRANCH   7   8
HETATM    8  C           1     -22.449  -3.783  -9.161  0.00  0.00     0.027 C 
BRANCH   8   9
HETATM    9  C           1     -23.679  -3.578 -10.037  0.00  0.00     0.229 C 
BRANCH   9  10
HETATM   10  N           1     -24.839  -3.162  -9.182  0.00  0.00    -0.079 N 
HETATM   11  H           1     -25.615  -2.816  -9.790  0.00  0.00     0.274 HD
HETATM   12  H           1     -25.172  -3.981  -8.625  0.00  0.00     0.274 HD
HETATM   13  H           1     -24.538  -2.399  -8.534  0.00  0.00     0.274 HD
ENDBRANCH   9  10
ENDBRANCH   8   9
ENDBRANCH   7   8
ENDBRANCH   6   7
ENDBRANCH   5   6
BRANCH   5  14
HETATM   14  C           1     -19.964  -5.894  -7.060  0.00  0.00     0.196 C 
HETATM   15  O           1     -19.446  -5.070  -7.843  0.00  0.00    -0.646 OA
HETATM   16  O           1     -19.411  -6.996  -6.855  0.00  0.00    -0.646 OA
ENDBRANCH   5  14
ENDBRANCH   2   5
BRANCH   3  17
HETATM   17  C           1     -21.285  -6.560  -2.661  0.00  0.00     0.278 C 
BRANCH  17  18
HETATM   18  C           1     -21.322  -7.986  -2.129  0.00  0.00     0.021 C 
HETATM   19  C           1     -19.933  -8.602  -2.228  0.00  0.00     0.012 C 
BRANCH  18  20
HETATM   20  C           1     -21.768  -7.973  -0.673  0.00  0.00     0.002 C 
HETATM   21  C           1     -22.668  -9.171  -0.405  0.00  0.00     0.005 C 
ENDBRANCH  18  20
ENDBRANCH  17  18
BRANCH  17  22
HETATM   22  N           1     -22.364  -5.752  -2.000  0.00  0.00    -0.066 N 
HETATM   23  H           1     -22.944  -5.281  -2.731  0.00  0.00     0.275 HD
HETATM   24  H           1     -21.929  -5.028  -1.383  0.00  0.00     0.275 HD
HETATM   25  H           1     -22.969  -6.381  -1.427  0.00  0.00     0.275 HD
ENDBRANCH  17  22
ENDBRANCH   3  17
TORSDOF 11
ENDMDL
MODEL 7
REMARK VINA RESULT:      -5.9     14.088     15.027
REMARK  11 active torsions:
REMARK  status: ('A' for Active; 'I' for Inactive)
REMARK    1  A    between atoms: N_2  and  C_3 
REMARK    2  A    between atoms: C_3  and  C_5 
REMARK    3  A    between atoms: C_4  and  C_12 
REMARK    4  A    between atoms: C_4  and  C_14 
REMARK    5  A    between atoms: C_4  and  N_8 
REMARK    6  A    between atoms: C_5  and  C_6 
REMARK    7  A    between atoms: C_6  and  C_12 
REMARK       I    between atoms: N_8  and  C_9 
REMARK    8  A    between atoms: C_9  and  C_10 
REMARK    9  A    between atoms: C_10  and  C_11 
REMARK   10  A    between atoms: C_10  and  N_19 
REMARK   11  A    between atoms: C_11  and  C_24 
ROOT
HETATM    1  H           1     -22.062  -7.099  -6.749  0.00  0.00     0.163 HD
HETATM    2  N           1     -21.558  -6.354  -6.286  0.00  0.00    -0.345 N 
HETATM    3  C           1     -21.527  -5.102  -6.839  0.00  0.00     0.249 C 
HETATM    4  O           1     -20.925  -4.212  -6.286  0.00  0.00    -0.271 OA
ENDROOT
BRANCH   2   5
HETATM    5  C           1     -20.868  -6.613  -5.037  0.00  0.00     0.185 C 
BRANCH   5   6
HETATM    6  C           1     -21.888  -6.773  -3.918  0.00  0.00     0.036 C 
BRANCH   6   7
HETATM    7  C           1     -21.380  -6.075  -2.663  0.00  0.00     0.004 C 
BRANCH   7   8
HETATM    8  C           1     -22.329  -6.355  -1.506  0.00  0.00     0.027 C 
BRANCH   8   9
HETATM    9  C           1     -21.921  -7.651  -0.816  0.00  0.00     0.229 C 
BRANCH   9  10
HETATM   10  N           1     -22.921  -7.989   0.249  0.00  0.00    -0.079 N 
HETATM   11  H           1     -22.972  -7.208   0.940  0.00  0.00     0.274 HD
HETATM   12  H           1     -23.861  -8.129  -0.188  0.00  0.00     0.274 HD
HETATM   13  H           1     -22.629  -8.867   0.735  0.00  0.00     0.274 HD
ENDBRANCH   9  10
ENDBRANCH   8   9
ENDBRANCH   7   8
ENDBRANCH   6   7
ENDBRANCH   5   6
BRANCH   5  14
HETATM   14  C           1     -20.057  -7.880  -5.164  0.00  0.00     0.196 C 
HETATM   15  O           1     -19.299  -8.040  -6.145  0.00  0.00    -0.646 OA
HETATM   16  O           1     -20.143  -8.767  -4.289  0.00  0.00    -0.646 OA
ENDBRANCH   5  14
ENDBRANCH   2   5
BRANCH   3  17
HETATM   17  C           1     -22.245  -4.833  -8.139  0.00  0.00     0.278 C 
BRANCH  17  18
HETATM   18  C           1     -21.363  -3.980  -9.039  0.00  0.00     0.021 C 
HETATM   19  C           1     -20.119  -4.767  -9.426  0.00  0.00     0.012 C 
BRANCH  18  20
HETATM   20  C           1     -22.135  -3.603 -10.296  0.00  0.00     0.002 C 
HETATM   21  C           1     -21.157  -3.229 -11.402  0.00  0.00     0.005 C 
ENDBRANCH  18  20
ENDBRANCH  17  18
BRANCH  17  22
HETATM   22  N           1     -23.527  -4.104  -7.859  0.00  0.00    -0.066 N 
HETATM   23  H           1     -24.056  -3.976  -8.751  0.00  0.00     0.275 HD
HETATM   24  H           1     -23.313  -3.169  -7.444  0.00  0.00     0.275 HD
HETATM   25  H           1     -24.104  -4.660  -7.189  0.00  0.00     0.275 HD
ENDBRANCH  17  22
ENDBRANCH   3  17
TORSDOF 11
ENDMDL
MODEL 8
REMARK VINA RESULT:      -5.8     11.831     13.533
REMARK  11 active torsions:
REMARK  status: ('A' for Active; 'I' for Inactive)
REMARK    1  A    between atoms: N_2  and  C_3 
REMARK    2  A    between atoms: C_3  and  C_5 
REMARK    3  A    between atoms: C_4  and  C_12 
REMARK    4  A    between atoms: C_4  and  C_14 
REMARK    5  A    between atoms: C_4  and  N_8 
REMARK    6  A    between atoms: C_5  and  C_6 
REMARK    7  A    between atoms: C_6  and  C_12 
REMARK       I    between atoms: N_8  and  C_9 
REMARK    8  A    between atoms: C_9  and  C_10 
REMARK    9  A    between atoms: C_10  and  C_11 
REMARK   10  A    between atoms: C_10  and  N_19 
REMARK   11  A    between atoms: C_11  and  C_24 
ROOT
HETATM    1  H           1     -24.153  -5.226  -8.343  0.00  0.00     0.163 HD
HETATM    2  N           1     -23.459  -4.508  -8.509  0.00  0.00    -0.345 N 
HETATM    3  C           1     -22.587  -4.157  -7.513  0.00  0.00     0.249 C 
HETATM    4  O           1     -21.759  -3.300  -7.711  0.00  0.00    -0.271 OA
ENDROOT
BRANCH   2   5
HETATM    5  C           1     -23.390  -3.851  -9.800  0.00  0.00     0.185 C 
BRANCH   5   6
HETATM    6  C           1     -23.009  -4.869 -10.867  0.00  0.00     0.036 C 
BRANCH   6   7
HETATM    7  C           1     -21.977  -4.260 -11.806  0.00  0.00     0.004 C 
BRANCH   7   8
HETATM    8  C           1     -20.834  -3.670 -10.992  0.00  0.00     0.027 C 
BRANCH   8   9
HETATM    9  C           1     -19.907  -4.789 -10.533  0.00  0.00     0.229 C 
BRANCH   9  10
HETATM   10  N           1     -19.672  -4.671  -9.056  0.00  0.00    -0.079 N 
HETATM   11  H           1     -18.647  -4.722  -8.861  0.00  0.00     0.274 HD
HETATM   12  H           1     -20.046  -3.756  -8.716  0.00  0.00     0.274 HD
HETATM   13  H           1     -20.160  -5.453  -8.563  0.00  0.00     0.274 HD
ENDBRANCH   9  10
ENDBRANCH   8   9
ENDBRANCH   7   8
ENDBRANCH   6   7
ENDBRANCH   5   6
BRANCH   5  14
HETATM   14  C           1     -24.735  -3.253 -10.132  0.00  0.00     0.196 C 
HETATM   15  O           1     -25.205  -3.374 -11.283  0.00  0.00    -0.646 OA
HETATM   16  O           1     -25.379  -2.637  -9.255  0.00  0.00    -0.646 OA
ENDBRANCH   5  14
ENDBRANCH   2   5
BRANCH   3  17
HETATM   17  C           1     -22.659  -4.840  -6.170  0.00  0.00     0.278 C 
BRANCH  17  18
HETATM   18  C           1     -21.602  -5.933  -6.099  0.00  0.00     0.021 C 
HETATM   19  C           1     -20.293  -5.342  -5.594  0.00  0.00     0.012 C 
BRANCH  18  20
HETATM   20  C           1     -22.066  -7.026  -5.144  0.00  0.00     0.002 C 
HETATM   21  C           1     -21.148  -8.234  -5.270  0.00  0.00     0.005 C 
ENDBRANCH  18  20
ENDBRANCH  17  18
BRANCH  17  22
HETATM   22  N           1     -24.020  -5.448  -5.992  0.00  0.00    -0.066 N 
HETATM   23  H           1     -24.288  -5.412  -4.983  0.00  0.00     0.275 HD
HETATM   24  H           1     -24.001  -6.443  -6.312  0.00  0.00     0.275 HD
HETATM   25  H           1     -24.717  -4.913  -6.557  0.00  0.00     0.275 HD
ENDBRANCH  17  22
ENDBRANCH   3  17
TORSDOF 11
ENDMDL
MODEL 9
REMARK VINA RESULT:      -5.5     13.234     14.089
REMARK  11 active torsions:
REMARK  status: ('A' for Active; 'I' for Inactive)
REMARK    1  A    between atoms: N_2  and  C_3 
REMARK    2  A    between atoms: C_3  and  C_5 
REMARK    3  A    between atoms: C_4  and  C_12 
REMARK    4  A    between atoms: C_4  and  C_14 
REMARK    5  A    between atoms: C_4  and  N_8 
REMARK    6  A    between atoms: C_5  and  C_6 
REMARK    7  A    between atoms: C_6  and  C_12 
REMARK       I    between atoms: N_8  and  C_9 
REMARK    8  A    between atoms: C_9  and  C_10 
REMARK    9  A    between atoms: C_10  and  C_11 
REMARK   10  A    between atoms: C_10  and  N_19 
REMARK   11  A    between atoms: C_11  and  C_24 
ROOT
HETATM    1  H           1     -22.716  -6.298  -7.273  0.00  0.00     0.163 HD
HETATM    2  N           1     -22.275  -5.430  -6.998  0.00  0.00    -0.345 N 
HETATM    3  C           1     -22.551  -4.276  -7.681  0.00  0.00     0.249 C 
HETATM    4  O           1     -22.025  -3.239  -7.352  0.00  0.00    -0.271 OA
ENDROOT
BRANCH   2   5
HETATM    5  C           1     -21.352  -5.408  -5.880  0.00  0.00     0.185 C 
BRANCH   5   6
HETATM    6  C           1     -21.783  -6.440  -4.846  0.00  0.00     0.036 C 
BRANCH   6   7
HETATM    7  C           1     -21.168  -6.096  -3.496  0.00  0.00     0.004 C 
BRANCH   7   8
HETATM    8  C           1     -21.563  -7.152  -2.473  0.00  0.00     0.027 C 
BRANCH   8   9
HETATM    9  C           1     -22.314  -6.490  -1.325  0.00  0.00     0.229 C 
BRANCH   9  10
HETATM   10  N           1     -22.595  -7.506  -0.258  0.00  0.00    -0.079 N 
HETATM   11  H           1     -22.643  -8.458  -0.686  0.00  0.00     0.274 HD
HETATM   12  H           1     -21.831  -7.483   0.455  0.00  0.00     0.274 HD
HETATM   13  H           1     -23.508  -7.285   0.202  0.00  0.00     0.274 HD
ENDBRANCH   9  10
ENDBRANCH   8   9
ENDBRANCH   7   8
ENDBRANCH   6   7
ENDBRANCH   5   6
BRANCH   5  14
HETATM   14  C           1     -19.963  -5.737  -6.370  0.00  0.00     0.196 C 
HETATM   15  O           1     -19.660  -6.919  -6.643  0.00  0.00    -0.646 OA
HETATM   16  O           1     -19.116  -4.828  -6.503  0.00  0.00    -0.646 OA
ENDBRANCH   5  14
ENDBRANCH   2   5
BRANCH   3  17
HETATM   17  C           1     -23.512  -4.298  -8.844  0.00  0.00     0.278 C 
BRANCH  17  18
HETATM   18  C           1     -22.790  -4.795 -10.090  0.00  0.00     0.021 C 
HETATM   19  C           1     -23.769  -4.856 -11.254  0.00  0.00     0.012 C 
BRANCH  18  20
HETATM   20  C           1     -21.655  -3.840 -10.432  0.00  0.00     0.002 C 
HETATM   21  C           1     -21.395  -3.875 -11.932  0.00  0.00     0.005 C 
ENDBRANCH  18  20
ENDBRANCH  17  18
BRANCH  17  22
HETATM   22  N           1     -24.033  -2.912  -9.088  0.00  0.00    -0.066 N 
HETATM   23  H           1     -24.326  -2.486  -8.180  0.00  0.00     0.275 HD
HETATM   24  H           1     -24.856  -2.958  -9.731  0.00  0.00     0.275 HD
HETATM   25  H           1     -23.283  -2.329  -9.521  0.00  0.00     0.275 HD
ENDBRANCH  17  22
ENDBRANCH   3  17
TORSDOF 11
ENDMDL
