MODEL 1
REMARK VINA RESULT:      -6.3      0.000      0.000
REMARK  6 active torsions:
REMARK  status: ('A' for Active; 'I' for Inactive)
REMARK    1  A    between atoms: C_3  and  C_14 
REMARK    2  A    between atoms: C_4  and  C_13 
REMARK    3  A    between atoms: N_7  and  C_13 
REMARK       I    between atoms: N_7  and  C_8 
REMARK    4  A    between atoms: C_8  and  C_9 
REMARK    5  A    between atoms: C_9  and  N_11 
REMARK    6  A    between atoms: C_13  and  C_14 
ROOT
HETATM    1  O           1     -23.861  -6.340 -18.829  0.00  0.00    -0.271 OA
HETATM    2  N           1     -26.033  -6.759 -18.530  0.00  0.00    -0.345 N 
HETATM    3  C           1     -24.882  -6.810 -19.269  0.00  0.00     0.248 C 
HETATM    4  H           1     -26.889  -7.153 -18.898  0.00  0.00     0.163 HD
ENDROOT
BRANCH   2   5
HETATM    5  C           1     -26.027  -6.141 -17.218  0.00  0.00     0.185 C 
BRANCH   5   6
HETATM    6  C           1     -25.762  -7.193 -16.169  0.00  0.00     0.196 C 
HETATM    7  O           1     -24.648  -7.757 -16.116  0.00  0.00    -0.646 OA
HETATM    8  O           1     -26.657  -7.500 -15.352  0.00  0.00    -0.646 OA
ENDBRANCH   5   6
BRANCH   5   9
HETATM    9  C           1     -27.378  -5.490 -16.956  0.00  0.00     0.040 C 
BRANCH   9  10
HETATM   10  C           1     -28.362  -5.908 -18.040  0.00  0.00    -0.020 C 
HETATM   11  C           1     -29.332  -6.937 -17.475  0.00  0.00     0.009 C 
HETATM   12  C           1     -29.138  -4.687 -18.519  0.00  0.00     0.009 C 
ENDBRANCH   9  10
ENDBRANCH   5   9
ENDBRANCH   2   5
BRANCH   3  13
HETATM   13  C           1     -24.891  -7.454 -20.634  0.00  0.00     0.270 C 
HETATM   14  C           1     -26.271  -8.036 -20.912  0.00  0.00     0.050 C 
BRANCH  13  15
HETATM   15  N           1     -23.869  -8.551 -20.675  0.00  0.00    -0.067 N 
HETATM   16  H           1     -23.265  -8.435 -21.520  0.00  0.00     0.275 HD
HETATM   17  H           1     -23.276  -8.506 -19.815  0.00  0.00     0.275 HD
HETATM   18  H           1     -24.352  -9.477 -20.717  0.00  0.00     0.275 HD
ENDBRANCH  13  15
ENDBRANCH   3  13
TORSDOF 6
ENDMDL
MODEL 2
REMARK VINA RESULT:      -6.2     11.218     12.832
REMARK  6 active torsions:
REMARK  status: ('A' for Active; 'I' for Inactive)
REMARK    1  A    between atoms: C_3  and  C_14 
REMARK    2  A    between atoms: C_4  and  C_13 
REMARK    3  A    between atoms: N_7  and  C_13 
REMARK       I    between atoms: N_7  and  C_8 
REMARK    4  A    between atoms: C_8  and  C_9 
REMARK    5  A    between atoms: C_9  and  N_11 
REMARK    6  A    between atoms: C_13  and  C_14 
ROOT
HETATM    1  O           1     -36.356  -1.289 -13.667  0.00  0.00    -0.271 OA
HETATM    2  N           1     -34.820  -0.673 -12.169  0.00  0.00    -0.345 N 
HETATM    3  C           1     -35.451  -0.544 -13.376  0.00  0.00     0.248 C 
HETATM    4  H           1     -34.061  -0.049 -11.925  0.00  0.00     0.163 HD
ENDROOT
BRANCH   2   5
HETATM    5  C           1     -35.238  -1.702 -11.237  0.00  0.00     0.185 C 
BRANCH   5   6
HETATM    6  C           1     -36.301  -1.148 -10.321  0.00  0.00     0.196 C 
HETATM    7  O           1     -37.510  -1.332 -10.581  0.00  0.00    -0.646 OA
HETATM    8  O           1     -35.973  -0.504  -9.301  0.00  0.00    -0.646 OA
ENDBRANCH   5   6
BRANCH   5   9
HETATM    9  C           1     -34.042  -2.157 -10.412  0.00  0.00     0.040 C 
BRANCH   9  10
HETATM   10  C           1     -33.807  -3.645 -10.633  0.00  0.00    -0.020 C 
HETATM   11  C           1     -35.121  -4.315 -11.015  0.00  0.00     0.009 C 
HETATM   12  C           1     -32.794  -3.837 -11.754  0.00  0.00     0.009 C 
ENDBRANCH   9  10
ENDBRANCH   5   9
ENDBRANCH   2   5
BRANCH   3  13
HETATM   13  C           1     -35.014   0.527 -14.345  0.00  0.00     0.270 C 
HETATM   14  C           1     -34.367   1.673 -13.577  0.00  0.00     0.050 C 
BRANCH  13  15
HETATM   15  N           1     -36.208   1.040 -15.094  0.00  0.00    -0.067 N 
HETATM   16  H           1     -37.081   0.768 -14.588  0.00  0.00     0.275 HD
HETATM   17  H           1     -36.155   2.082 -15.160  0.00  0.00     0.275 HD
HETATM   18  H           1     -36.220   0.630 -16.055  0.00  0.00     0.275 HD
ENDBRANCH  13  15
ENDBRANCH   3  13
TORSDOF 6
ENDMDL
MODEL 3
REMARK VINA RESULT:      -6.2      2.283      3.082
REMARK  6 active torsions:
REMARK  status: ('A' for Active; 'I' for Inactive)
REMARK    1  A    between atoms: C_3  and  C_14 
REMARK    2  A    between atoms: C_4  and  C_13 
REMARK    3  A    between atoms: N_7  and  C_13 
REMARK       I    between atoms: N_7  and  C_8 
REMARK    4  A    between atoms: C_8  and  C_9 
REMARK    5  A    between atoms: C_9  and  N_11 
REMARK    6  A    between atoms: C_13  and  C_14 
ROOT
HETATM    1  O           1     -25.992  -6.224 -17.825  0.00  0.00    -0.271 OA
HETATM    2  N           1     -27.573  -6.844 -19.275  0.00  0.00    -0.345 N 
HETATM    3  C           1     -26.266  -6.631 -18.929  0.00  0.00     0.248 C 
HETATM    4  H           1     -27.802  -7.185 -20.200  0.00  0.00     0.163 HD
ENDROOT
BRANCH   2   5
HETATM    5  C           1     -28.629  -6.582 -18.317  0.00  0.00     0.185 C 
BRANCH   5   6
HETATM    6  C           1     -29.652  -7.689 -18.384  0.00  0.00     0.196 C 
HETATM    7  O           1     -30.503  -7.811 -17.476  0.00  0.00    -0.646 OA
HETATM    8  O           1     -29.651  -8.485 -19.348  0.00  0.00    -0.646 OA
ENDBRANCH   5   6
BRANCH   5   9
HETATM    9  C           1     -29.295  -5.253 -18.647  0.00  0.00     0.040 C 
BRANCH   9  10
HETATM   10  C           1     -29.597  -4.502 -17.357  0.00  0.00    -0.020 C 
HETATM   11  C           1     -28.399  -3.641 -16.979  0.00  0.00     0.009 C 
HETATM   12  C           1     -30.818  -3.614 -17.562  0.00  0.00     0.009 C 
ENDBRANCH   9  10
ENDBRANCH   5   9
ENDBRANCH   2   5
BRANCH   3  13
HETATM   13  C           1     -25.167  -6.904 -19.927  0.00  0.00     0.270 C 
HETATM   14  C           1     -25.666  -7.892 -20.974  0.00  0.00     0.050 C 
BRANCH  13  15
HETATM   15  N           1     -23.981  -7.486 -19.217  0.00  0.00    -0.067 N 
HETATM   16  H           1     -23.102  -7.121 -19.649  0.00  0.00     0.275 HD
HETATM   17  H           1     -24.012  -7.214 -18.208  0.00  0.00     0.275 HD
HETATM   18  H           1     -24.002  -8.527 -19.299  0.00  0.00     0.275 HD
ENDBRANCH  13  15
ENDBRANCH   3  13
TORSDOF 6
ENDMDL
MODEL 4
REMARK VINA RESULT:      -5.9      2.327      2.958
REMARK  6 active torsions:
REMARK  status: ('A' for Active; 'I' for Inactive)
REMARK    1  A    between atoms: C_3  and  C_14 
REMARK    2  A    between atoms: C_4  and  C_13 
REMARK    3  A    between atoms: N_7  and  C_13 
REMARK       I    between atoms: N_7  and  C_8 
REMARK    4  A    between atoms: C_8  and  C_9 
REMARK    5  A    between atoms: C_9  and  N_11 
REMARK    6  A    between atoms: C_13  and  C_14 
ROOT
HETATM    1  O           1     -26.927  -6.335 -20.279  0.00  0.00    -0.271 OA
HETATM    2  N           1     -26.764  -6.388 -18.053  0.00  0.00    -0.345 N 
HETATM    3  C           1     -26.231  -6.510 -19.308  0.00  0.00     0.248 C 
HETATM    4  H           1     -26.181  -6.535 -17.239  0.00  0.00     0.163 HD
ENDROOT
BRANCH   2   5
HETATM    5  C           1     -28.164  -6.048 -17.889  0.00  0.00     0.185 C 
BRANCH   5   6
HETATM    6  C           1     -28.281  -4.617 -17.425  0.00  0.00     0.196 C 
HETATM    7  O           1     -29.118  -3.854 -17.955  0.00  0.00    -0.646 OA
HETATM    8  O           1     -27.543  -4.194 -16.509  0.00  0.00    -0.646 OA
ENDBRANCH   5   6
BRANCH   5   9
HETATM    9  C           1     -28.793  -6.971 -16.855  0.00  0.00     0.040 C 
BRANCH   9  10
HETATM   10  C           1     -30.046  -7.610 -17.438  0.00  0.00    -0.020 C 
HETATM   11  C           1     -31.213  -6.637 -17.320  0.00  0.00     0.009 C 
HETATM   12  C           1     -29.809  -7.943 -18.906  0.00  0.00     0.009 C 
ENDBRANCH   9  10
ENDBRANCH   5   9
ENDBRANCH   2   5
BRANCH   3  13
HETATM   13  C           1     -24.774  -6.864 -19.477  0.00  0.00     0.270 C 
HETATM   14  C           1     -24.619  -7.835 -20.642  0.00  0.00     0.050 C 
BRANCH  13  15
HETATM   15  N           1     -24.266  -7.506 -18.221  0.00  0.00    -0.067 N 
HETATM   16  H           1     -23.536  -6.897 -17.788  0.00  0.00     0.275 HD
HETATM   17  H           1     -25.058  -7.630 -17.550  0.00  0.00     0.275 HD
HETATM   18  H           1     -23.852  -8.438 -18.448  0.00  0.00     0.275 HD
ENDBRANCH  13  15
ENDBRANCH   3  13
TORSDOF 6
ENDMDL
MODEL 5
REMARK VINA RESULT:      -5.8     11.897     14.031
REMARK  6 active torsions:
REMARK  status: ('A' for Active; 'I' for Inactive)
REMARK    1  A    between atoms: C_3  and  C_14 
REMARK    2  A    between atoms: C_4  and  C_13 
REMARK    3  A    between atoms: N_7  and  C_13 
REMARK       I    between atoms: N_7  and  C_8 
REMARK    4  A    between atoms: C_8  and  C_9 
REMARK    5  A    between atoms: C_9  and  N_11 
REMARK    6  A    between atoms: C_13  and  C_14 
ROOT
HETATM    1  O           1     -37.929  -1.032 -10.906  0.00  0.00    -0.271 OA
HETATM    2  N           1     -35.871  -0.181 -11.067  0.00  0.00    -0.345 N 
HETATM    3  C           1     -37.038  -0.401 -10.388  0.00  0.00     0.248 C 
HETATM    4  H           1     -35.125   0.347 -10.634  0.00  0.00     0.163 HD
ENDROOT
BRANCH   2   5
HETATM    5  C           1     -35.701  -0.706 -12.409  0.00  0.00     0.185 C 
BRANCH   5   6
HETATM    6  C           1     -34.719  -1.852 -12.379  0.00  0.00     0.196 C 
HETATM    7  O           1     -34.673  -2.661 -13.330  0.00  0.00    -0.646 OA
HETATM    8  O           1     -33.951  -1.991 -11.402  0.00  0.00    -0.646 OA
ENDBRANCH   5   6
BRANCH   5   9
HETATM    9  C           1     -35.173   0.393 -13.321  0.00  0.00     0.040 C 
BRANCH   9  10
HETATM   10  C           1     -36.075   0.517 -14.542  0.00  0.00    -0.020 C 
HETATM   11  C           1     -35.472  -0.268 -15.699  0.00  0.00     0.009 C 
HETATM   12  C           1     -37.454  -0.040 -14.212  0.00  0.00     0.009 C 
ENDBRANCH   9  10
ENDBRANCH   5   9
ENDBRANCH   2   5
BRANCH   3  13
HETATM   13  C           1     -37.214   0.145  -8.993  0.00  0.00     0.270 C 
HETATM   14  C           1     -37.834   1.535  -9.066  0.00  0.00     0.050 C 
BRANCH  13  15
HETATM   15  N           1     -35.878   0.230  -8.318  0.00  0.00    -0.067 N 
HETATM   16  H           1     -35.472   1.182  -8.463  0.00  0.00     0.275 HD
HETATM   17  H           1     -35.993   0.055  -7.294  0.00  0.00     0.275 HD
HETATM   18  H           1     -35.235  -0.487  -8.724  0.00  0.00     0.275 HD
ENDBRANCH  13  15
ENDBRANCH   3  13
TORSDOF 6
ENDMDL
MODEL 6
REMARK VINA RESULT:      -5.4      1.732      2.424
REMARK  6 active torsions:
REMARK  status: ('A' for Active; 'I' for Inactive)
REMARK    1  A    between atoms: C_3  and  C_14 
REMARK    2  A    between atoms: C_4  and  C_13 
REMARK    3  A    between atoms: N_7  and  C_13 
REMARK       I    between atoms: N_7  and  C_8 
REMARK    4  A    between atoms: C_8  and  C_9 
REMARK    5  A    between atoms: C_9  and  N_11 
REMARK    6  A    between atoms: C_13  and  C_14 
ROOT
HETATM    1  O           1     -25.214  -6.394 -18.621  0.00  0.00    -0.271 OA
HETATM    2  N           1     -27.360  -6.635 -19.191  0.00  0.00    -0.345 N 
HETATM    3  C           1     -26.024  -6.866 -19.383  0.00  0.00     0.248 C 
HETATM    4  H           1     -28.038  -7.029 -19.829  0.00  0.00     0.163 HD
ENDROOT
BRANCH   2   5
HETATM    5  C           1     -27.803  -5.825 -18.073  0.00  0.00     0.185 C 
BRANCH   5   6
HETATM    6  C           1     -28.300  -6.725 -16.968  0.00  0.00     0.196 C 
HETATM    7  O           1     -27.685  -6.778 -15.881  0.00  0.00    -0.646 OA
HETATM    8  O           1     -29.326  -7.416 -17.139  0.00  0.00    -0.646 OA
ENDBRANCH   5   6
BRANCH   5   9
HETATM    9  C           1     -28.930  -4.907 -18.526  0.00  0.00     0.040 C 
BRANCH   9  10
HETATM   10  C           1     -29.481  -4.148 -17.326  0.00  0.00    -0.020 C 
HETATM   11  C           1     -28.665  -2.880 -17.109  0.00  0.00     0.009 C 
HETATM   12  C           1     -30.936  -3.778 -17.585  0.00  0.00     0.009 C 
ENDBRANCH   9  10
ENDBRANCH   5   9
ENDBRANCH   2   5
BRANCH   3  13
HETATM   13  C           1     -25.564  -7.708 -20.547  0.00  0.00     0.270 C 
HETATM   14  C           1     -24.878  -6.819 -21.578  0.00  0.00     0.050 C 
BRANCH  13  15
HETATM   15  N           1     -26.748  -8.380 -21.176  0.00  0.00    -0.067 N 
HETATM   16  H           1     -26.511  -9.374 -21.394  0.00  0.00     0.275 HD
HETATM   17  H           1     -27.556  -8.353 -20.513  0.00  0.00     0.275 HD
HETATM   18  H           1     -27.003  -7.882 -22.059  0.00  0.00     0.275 HD
ENDBRANCH  13  15
ENDBRANCH   3  13
TORSDOF 6
ENDMDL
MODEL 7
REMARK VINA RESULT:      -5.3      2.633      4.914
REMARK  6 active torsions:
REMARK  status: ('A' for Active; 'I' for Inactive)
REMARK    1  A    between atoms: C_3  and  C_14 
REMARK    2  A    between atoms: C_4  and  C_13 
REMARK    3  A    between atoms: N_7  and  C_13 
REMARK       I    between atoms: N_7  and  C_8 
REMARK    4  A    between atoms: C_8  and  C_9 
REMARK    5  A    between atoms: C_9  and  N_11 
REMARK    6  A    between atoms: C_13  and  C_14 
ROOT
HETATM    1  O           1     -30.208  -6.334 -17.815  0.00  0.00    -0.271 OA
HETATM    2  N           1     -28.485  -5.380 -16.764  0.00  0.00    -0.345 N 
HETATM    3  C           1     -29.779  -5.382 -17.208  0.00  0.00     0.248 C 
HETATM    4  H           1     -28.125  -4.582 -16.255  0.00  0.00     0.163 HD
ENDROOT
BRANCH   2   5
HETATM    5  C           1     -27.627  -6.521 -17.020  0.00  0.00     0.185 C 
BRANCH   5   6
HETATM    6  C           1     -27.223  -7.149 -15.708  0.00  0.00     0.196 C 
HETATM    7  O           1     -26.013  -7.298 -15.433  0.00  0.00    -0.646 OA
HETATM    8  O           1     -28.098  -7.519 -14.897  0.00  0.00    -0.646 OA
ENDBRANCH   5   6
BRANCH   5   9
HETATM    9  C           1     -26.383  -6.064 -17.769  0.00  0.00     0.040 C 
BRANCH   9  10
HETATM   10  C           1     -26.253  -6.850 -19.067  0.00  0.00    -0.020 C 
HETATM   11  C           1     -27.093  -6.185 -20.149  0.00  0.00     0.009 C 
HETATM   12  C           1     -24.793  -6.876 -19.499  0.00  0.00     0.009 C 
ENDBRANCH   9  10
ENDBRANCH   5   9
ENDBRANCH   2   5
BRANCH   3  13
HETATM   13  C           1     -30.670  -4.194 -16.941  0.00  0.00     0.270 C 
HETATM   14  C           1     -32.116  -4.660 -16.822  0.00  0.00     0.050 C 
BRANCH  13  15
HETATM   15  N           1     -30.553  -3.217 -18.073  0.00  0.00    -0.067 N 
HETATM   16  H           1     -29.865  -3.574 -18.773  0.00  0.00     0.275 HD
HETATM   17  H           1     -31.486  -3.102 -18.531  0.00  0.00     0.275 HD
HETATM   18  H           1     -30.229  -2.294 -17.706  0.00  0.00     0.275 HD
ENDBRANCH  13  15
ENDBRANCH   3  13
TORSDOF 6
ENDMDL
MODEL 8
REMARK VINA RESULT:      -5.1     12.569     14.511
REMARK  6 active torsions:
REMARK  status: ('A' for Active; 'I' for Inactive)
REMARK    1  A    between atoms: C_3  and  C_14 
REMARK    2  A    between atoms: C_4  and  C_13 
REMARK    3  A    between atoms: N_7  and  C_13 
REMARK       I    between atoms: N_7  and  C_8 
REMARK    4  A    between atoms: C_8  and  C_9 
REMARK    5  A    between atoms: C_9  and  N_11 
REMARK    6  A    between atoms: C_13  and  C_14 
ROOT
HETATM    1  O           1     -20.224  -4.885  -5.691  0.00  0.00    -0.271 OA
HETATM    2  N           1     -20.969  -6.941  -6.144  0.00  0.00    -0.345 N 
HETATM    3  C           1     -20.806  -5.618  -6.455  0.00  0.00     0.248 C 
HETATM    4  H           1     -21.456  -7.555  -6.783  0.00  0.00     0.163 HD
ENDROOT
BRANCH   2   5
HETATM    5  C           1     -20.443  -7.464  -4.897  0.00  0.00     0.185 C 
BRANCH   5   6
HETATM    6  C           1     -19.828  -8.820  -5.142  0.00  0.00     0.196 C 
HETATM    7  O           1     -20.466  -9.692  -5.770  0.00  0.00    -0.646 OA
HETATM    8  O           1     -18.680  -9.071  -4.718  0.00  0.00    -0.646 OA
ENDBRANCH   5   6
BRANCH   5   9
HETATM    9  C           1     -21.573  -7.593  -3.884  0.00  0.00     0.040 C 
BRANCH   9  10
HETATM   10  C           1     -21.105  -7.074  -2.531  0.00  0.00    -0.020 C 
HETATM   11  C           1     -22.164  -6.147  -1.950  0.00  0.00     0.009 C 
HETATM   12  C           1     -20.883  -8.249  -1.587  0.00  0.00     0.009 C 
ENDBRANCH   9  10
ENDBRANCH   5   9
ENDBRANCH   2   5
BRANCH   3  13
HETATM   13  C           1     -21.353  -5.075  -7.752  0.00  0.00     0.270 C 
HETATM   14  C           1     -20.212  -4.502  -8.584  0.00  0.00     0.050 C 
BRANCH  13  15
HETATM   15  N           1     -22.350  -3.994  -7.460  0.00  0.00    -0.067 N 
HETATM   16  H           1     -22.786  -4.163  -6.526  0.00  0.00     0.275 HD
HETATM   17  H           1     -21.866  -3.067  -7.454  0.00  0.00     0.275 HD
HETATM   18  H           1     -23.092  -3.995  -8.196  0.00  0.00     0.275 HD
ENDBRANCH  13  15
ENDBRANCH   3  13
TORSDOF 6
ENDMDL
MODEL 9
REMARK VINA RESULT:      -4.9     15.089     16.723
REMARK  6 active torsions:
REMARK  status: ('A' for Active; 'I' for Inactive)
REMARK    1  A    between atoms: C_3  and  C_14 
REMARK    2  A    between atoms: C_4  and  C_13 
REMARK    3  A    between atoms: N_7  and  C_13 
REMARK       I    between atoms: N_7  and  C_8 
REMARK    4  A    between atoms: C_8  and  C_9 
REMARK    5  A    between atoms: C_9  and  N_11 
REMARK    6  A    between atoms: C_13  and  C_14 
ROOT
HETATM    1  O           1     -22.141 -10.043  -3.761  0.00  0.00    -0.271 OA
HETATM    2  N           1     -20.699  -8.458  -3.132  0.00  0.00    -0.345 N 
HETATM    3  C           1     -21.044  -9.551  -3.879  0.00  0.00     0.248 C 
HETATM    4  H           1     -19.780  -8.046  -3.231  0.00  0.00     0.163 HD
ENDROOT
BRANCH   2   5
HETATM    5  C           1     -21.650  -7.888  -2.197  0.00  0.00     0.185 C 
BRANCH   5   6
HETATM    6  C           1     -22.011  -6.491  -2.638  0.00  0.00     0.196 C 
HETATM    7  O           1     -21.964  -6.185  -3.849  0.00  0.00    -0.646 OA
HETATM    8  O           1     -22.357  -5.639  -1.792  0.00  0.00    -0.646 OA
ENDBRANCH   5   6
BRANCH   5   9
HETATM    9  C           1     -21.031  -7.839  -0.808  0.00  0.00     0.040 C 
BRANCH   9  10
HETATM   10  C           1     -21.793  -8.773   0.123  0.00  0.00    -0.020 C 
HETATM   11  C           1     -20.994  -8.977   1.403  0.00  0.00     0.009 C 
HETATM   12  C           1     -23.146  -8.159   0.459  0.00  0.00     0.009 C 
ENDBRANCH   9  10
ENDBRANCH   5   9
ENDBRANCH   2   5
BRANCH   3  13
HETATM   13  C           1     -20.052 -10.143  -4.851  0.00  0.00     0.270 C 
HETATM   14  C           1     -19.010  -9.093  -5.216  0.00  0.00     0.050 C 
BRANCH  13  15
HETATM   15  N           1     -20.771 -10.584  -6.091  0.00  0.00    -0.067 N 
HETATM   16  H           1     -20.223 -11.338  -6.563  0.00  0.00     0.275 HD
HETATM   17  H           1     -21.716 -10.951  -5.834  0.00  0.00     0.275 HD
HETATM   18  H           1     -20.877  -9.773  -6.741  0.00  0.00     0.275 HD
ENDBRANCH  13  15
ENDBRANCH   3  13
TORSDOF 6
ENDMDL
