MODEL 1
REMARK VINA RESULT:      -6.1      0.000      0.000
REMARK  8 active torsions:
REMARK  status: ('A' for Active; 'I' for Inactive)
REMARK    1  A    between atoms: C_1  and  C_15 
REMARK    2  A    between atoms: C_1  and  O_16 
REMARK    3  A    between atoms: C_3  and  C_4 
REMARK    4  A    between atoms: C_4  and  C_5 
REMARK    5  A    between atoms: C_5  and  C_20 
REMARK    6  A    between atoms: C_5  and  N_17 
REMARK    7  A    between atoms: N_9  and  C_15 
REMARK    8  A    between atoms: C_15  and  C_22 
REMARK       I    between atoms: N_17  and  C_22 
ROOT
HETATM    1  C           1     -28.283  -6.529 -18.359  0.00  0.00     0.191 C 
ENDROOT
BRANCH   1   2
HETATM    2  C           1     -27.410  -6.255 -17.143  0.00  0.00     0.094 C 
BRANCH   2   3
HETATM    3  C           1     -26.000  -6.665 -17.437  0.00  0.00     0.028 A 
HETATM    4  C           1     -25.059  -6.969 -16.483  0.00  0.00     0.114 A 
HETATM    5  N           1     -23.929  -7.284 -17.186  0.00  0.00    -0.360 N 
HETATM    6  C           1     -24.225  -7.160 -18.514  0.00  0.00     0.180 A 
HETATM    7  H           1     -23.003  -7.568 -16.780  0.00  0.00     0.166 HD
HETATM    8  N           1     -25.471  -6.787 -18.697  0.00  0.00    -0.354 N 
ATOM      9  HN          1     -25.943  -6.622 -19.585  1.00  0.00     0.166 HD
ENDBRANCH   2   3
ENDBRANCH   1   2
BRANCH   1  10
HETATM   10  C           1     -29.198  -7.694 -18.071  0.00  0.00     0.197 C 
HETATM   11  O           1     -29.416  -8.041 -16.890  0.00  0.00    -0.646 OA
HETATM   12  O           1     -29.737  -8.313 -19.014  0.00  0.00    -0.646 OA
ENDBRANCH   1  10
BRANCH   1  13
HETATM   13  N           1     -29.079  -5.353 -18.657  0.00  0.00    -0.344 N 
HETATM   14  H           1     -29.256  -5.093 -19.619  0.00  0.00     0.163 HD
HETATM   15  C           1     -29.591  -4.597 -17.637  0.00  0.00     0.251 C 
HETATM   16  O           1     -28.951  -3.676 -17.188  0.00  0.00    -0.271 OA
BRANCH  15  17
HETATM   17  C           1     -30.956  -4.913 -17.075  0.00  0.00     0.297 C 
BRANCH  17  18
HETATM   18  C           1     -31.868  -3.705 -17.247  0.00  0.00     0.206 C 
BRANCH  18  19
HETATM   19  O           1     -31.379  -2.892 -18.279  0.00  0.00    -0.398 OA
HETATM   20  H           1     -31.970  -2.162 -18.356  0.00  0.00     0.209 HD
ENDBRANCH  18  19
ENDBRANCH  17  18
BRANCH  17  21
HETATM   21  N           1     -30.831  -5.241 -15.617  0.00  0.00    -0.064 N 
HETATM   22  H           1     -31.729  -5.650 -15.273  0.00  0.00     0.275 HD
HETATM   23  H           1     -30.059  -5.932 -15.481  0.00  0.00     0.275 HD
HETATM   24  H           1     -30.618  -4.370 -15.080  0.00  0.00     0.275 HD
ENDBRANCH  17  21
ENDBRANCH  15  17
ENDBRANCH   1  13
TORSDOF 8
ENDMDL
MODEL 2
REMARK VINA RESULT:      -6.0      1.590      1.923
REMARK  8 active torsions:
REMARK  status: ('A' for Active; 'I' for Inactive)
REMARK    1  A    between atoms: C_1  and  C_15 
REMARK    2  A    between atoms: C_1  and  O_16 
REMARK    3  A    between atoms: C_3  and  C_4 
REMARK    4  A    between atoms: C_4  and  C_5 
REMARK    5  A    between atoms: C_5  and  C_20 
REMARK    6  A    between atoms: C_5  and  N_17 
REMARK    7  A    between atoms: N_9  and  C_15 
REMARK    8  A    between atoms: C_15  and  C_22 
REMARK       I    between atoms: N_17  and  C_22 
ROOT
HETATM    1  C           1     -28.203  -6.722 -16.929  0.00  0.00     0.191 C 
ENDROOT
BRANCH   1   2
HETATM    2  C           1     -27.092  -5.707 -17.158  0.00  0.00     0.094 C 
BRANCH   2   3
HETATM    3  C           1     -25.802  -6.424 -17.405  0.00  0.00     0.028 A 
HETATM    4  C           1     -24.966  -6.890 -16.418  0.00  0.00     0.114 A 
HETATM    5  N           1     -23.920  -7.470 -17.083  0.00  0.00    -0.360 N 
HETATM    6  C           1     -24.160  -7.334 -18.421  0.00  0.00     0.180 A 
HETATM    7  H           1     -23.086  -7.933 -16.645  0.00  0.00     0.166 HD
HETATM    8  N           1     -25.291  -6.705 -18.646  0.00  0.00    -0.354 N 
ATOM      9  HN          1     -25.701  -6.475 -19.551  1.00  0.00     0.166 HD
ENDBRANCH   2   3
ENDBRANCH   1   2
BRANCH   1  10
HETATM   10  C           1     -28.494  -6.826 -15.451  0.00  0.00     0.197 C 
HETATM   11  O           1     -29.222  -5.975 -14.897  0.00  0.00    -0.646 OA
HETATM   12  O           1     -28.006  -7.764 -14.783  0.00  0.00    -0.646 OA
ENDBRANCH   1  10
BRANCH   1  13
HETATM   13  N           1     -29.400  -6.296 -17.628  0.00  0.00    -0.344 N 
HETATM   14  H           1     -30.148  -6.956 -17.799  0.00  0.00     0.163 HD
HETATM   15  C           1     -29.519  -5.001 -18.054  0.00  0.00     0.251 C 
HETATM   16  O           1     -29.132  -4.689 -19.155  0.00  0.00    -0.271 OA
BRANCH  15  17
HETATM   17  C           1     -30.134  -3.962 -17.148  0.00  0.00     0.297 C 
BRANCH  17  18
HETATM   18  C           1     -31.646  -4.143 -17.121  0.00  0.00     0.206 C 
BRANCH  18  19
HETATM   19  O           1     -32.263  -3.024 -17.698  0.00  0.00    -0.398 OA
HETATM   20  H           1     -33.115  -3.299 -17.989  0.00  0.00     0.209 HD
ENDBRANCH  18  19
ENDBRANCH  17  18
BRANCH  17  21
HETATM   21  N           1     -29.805  -2.592 -17.665  0.00  0.00    -0.064 N 
HETATM   22  H           1     -30.563  -2.272 -18.310  0.00  0.00     0.275 HD
HETATM   23  H           1     -29.727  -1.927 -16.862  0.00  0.00     0.275 HD
HETATM   24  H           1     -28.898  -2.623 -18.182  0.00  0.00     0.275 HD
ENDBRANCH  17  21
ENDBRANCH  15  17
ENDBRANCH   1  13
TORSDOF 8
ENDMDL
MODEL 3
REMARK VINA RESULT:      -6.0      1.975      5.907
REMARK  8 active torsions:
REMARK  status: ('A' for Active; 'I' for Inactive)
REMARK    1  A    between atoms: C_1  and  C_15 
REMARK    2  A    between atoms: C_1  and  O_16 
REMARK    3  A    between atoms: C_3  and  C_4 
REMARK    4  A    between atoms: C_4  and  C_5 
REMARK    5  A    between atoms: C_5  and  C_20 
REMARK    6  A    between atoms: C_5  and  N_17 
REMARK    7  A    between atoms: N_9  and  C_15 
REMARK    8  A    between atoms: C_15  and  C_22 
REMARK       I    between atoms: N_17  and  C_22 
ROOT
HETATM    1  C           1     -30.013  -5.960 -16.511  0.00  0.00     0.191 C 
ENDROOT
BRANCH   1   2
HETATM    2  C           1     -30.329  -4.654 -17.226  0.00  0.00     0.094 C 
BRANCH   2   3
HETATM    3  C           1     -31.740  -4.252 -16.932  0.00  0.00     0.028 A 
HETATM    4  C           1     -32.511  -3.453 -17.743  0.00  0.00     0.114 A 
HETATM    5  N           1     -33.712  -3.345 -17.098  0.00  0.00    -0.360 N 
HETATM    6  C           1     -33.623  -4.068 -15.943  0.00  0.00     0.180 A 
HETATM    7  H           1     -34.549  -2.804 -17.429  0.00  0.00     0.166 HD
HETATM    8  N           1     -32.442  -4.628 -15.815  0.00  0.00    -0.354 N 
ATOM      9  HN          1     -32.116  -5.216 -15.049  1.00  0.00     0.166 HD
ENDBRANCH   2   3
ENDBRANCH   1   2
BRANCH   1  10
HETATM   10  C           1     -29.738  -7.039 -17.530  0.00  0.00     0.197 C 
HETATM   11  O           1     -29.475  -6.730 -18.712  0.00  0.00    -0.646 OA
HETATM   12  O           1     -29.774  -8.242 -17.191  0.00  0.00    -0.646 OA
ENDBRANCH   1  10
BRANCH   1  13
HETATM   13  N           1     -28.844  -5.781 -15.671  0.00  0.00    -0.344 N 
HETATM   14  H           1     -28.935  -5.818 -14.663  0.00  0.00     0.163 HD
HETATM   15  C           1     -27.619  -5.563 -16.241  0.00  0.00     0.251 C 
HETATM   16  O           1     -27.250  -4.436 -16.470  0.00  0.00    -0.271 OA
BRANCH  15  17
HETATM   17  C           1     -26.727  -6.732 -16.582  0.00  0.00     0.297 C 
BRANCH  17  18
HETATM   18  C           1     -25.560  -6.783 -15.604  0.00  0.00     0.206 C 
BRANCH  18  19
HETATM   19  O           1     -24.729  -5.672 -15.807  0.00  0.00    -0.398 OA
HETATM   20  H           1     -24.361  -5.447 -14.970  0.00  0.00     0.209 HD
ENDBRANCH  18  19
ENDBRANCH  17  18
BRANCH  17  21
HETATM   21  N           1     -26.201  -6.568 -17.977  0.00  0.00    -0.064 N 
HETATM   22  H           1     -25.211  -6.234 -17.940  0.00  0.00     0.275 HD
HETATM   23  H           1     -26.239  -7.488 -18.473  0.00  0.00     0.275 HD
HETATM   24  H           1     -26.785  -5.870 -18.490  0.00  0.00     0.275 HD
ENDBRANCH  17  21
ENDBRANCH  15  17
ENDBRANCH   1  13
TORSDOF 8
ENDMDL
MODEL 4
REMARK VINA RESULT:      -5.7      2.246      2.997
REMARK  8 active torsions:
REMARK  status: ('A' for Active; 'I' for Inactive)
REMARK    1  A    between atoms: C_1  and  C_15 
REMARK    2  A    between atoms: C_1  and  O_16 
REMARK    3  A    between atoms: C_3  and  C_4 
REMARK    4  A    between atoms: C_4  and  C_5 
REMARK    5  A    between atoms: C_5  and  C_20 
REMARK    6  A    between atoms: C_5  and  N_17 
REMARK    7  A    between atoms: N_9  and  C_15 
REMARK    8  A    between atoms: C_15  and  C_22 
REMARK       I    between atoms: N_17  and  C_22 
ROOT
HETATM    1  C           1     -26.484  -6.439 -17.501  0.00  0.00     0.191 C 
ENDROOT
BRANCH   1   2
HETATM    2  C           1     -25.222  -6.450 -18.351  0.00  0.00     0.094 C 
BRANCH   2   3
HETATM    3  C           1     -25.479  -7.209 -19.616  0.00  0.00     0.028 A 
HETATM    4  C           1     -24.499  -7.732 -20.426  0.00  0.00     0.114 A 
HETATM    5  N           1     -25.172  -8.332 -21.455  0.00  0.00    -0.360 N 
HETATM    6  C           1     -26.508  -8.153 -21.231  0.00  0.00     0.180 A 
HETATM    7  H           1     -24.741  -8.839 -22.268  0.00  0.00     0.166 HD
HETATM    8  N           1     -26.724  -7.476 -20.127  0.00  0.00    -0.354 N 
ATOM      9  HN          1     -27.625  -7.207 -19.733  1.00  0.00     0.166 HD
ENDBRANCH   2   3
ENDBRANCH   1   2
BRANCH   1  10
HETATM   10  C           1     -26.114  -6.607 -16.047  0.00  0.00     0.197 C 
HETATM   11  O           1     -26.697  -7.464 -15.349  0.00  0.00    -0.646 OA
HETATM   12  O           1     -25.223  -5.889 -15.542  0.00  0.00    -0.646 OA
ENDBRANCH   1  10
BRANCH   1  13
HETATM   13  N           1     -27.177  -5.177 -17.679  0.00  0.00    -0.344 N 
HETATM   14  H           1     -26.802  -4.479 -18.309  0.00  0.00     0.163 HD
HETATM   15  C           1     -28.337  -4.932 -16.997  0.00  0.00     0.251 C 
HETATM   16  O           1     -28.299  -4.408 -15.909  0.00  0.00    -0.271 OA
BRANCH  15  17
HETATM   17  C           1     -29.665  -5.313 -17.604  0.00  0.00     0.297 C 
BRANCH  17  18
HETATM   18  C           1     -30.676  -4.200 -17.356  0.00  0.00     0.206 C 
BRANCH  18  19
HETATM   19  O           1     -30.142  -2.977 -17.788  0.00  0.00    -0.398 OA
HETATM   20  H           1     -29.381  -3.178 -18.306  0.00  0.00     0.209 HD
ENDBRANCH  18  19
ENDBRANCH  17  18
BRANCH  17  21
HETATM   21  N           1     -30.157  -6.582 -16.973  0.00  0.00    -0.064 N 
HETATM   22  H           1     -30.046  -7.372 -17.648  0.00  0.00     0.275 HD
HETATM   23  H           1     -29.599  -6.780 -16.111  0.00  0.00     0.275 HD
HETATM   24  H           1     -31.165  -6.478 -16.720  0.00  0.00     0.275 HD
ENDBRANCH  17  21
ENDBRANCH  15  17
ENDBRANCH   1  13
TORSDOF 8
ENDMDL
MODEL 5
REMARK VINA RESULT:      -5.6     10.986     13.000
REMARK  8 active torsions:
REMARK  status: ('A' for Active; 'I' for Inactive)
REMARK    1  A    between atoms: C_1  and  C_15 
REMARK    2  A    between atoms: C_1  and  O_16 
REMARK    3  A    between atoms: C_3  and  C_4 
REMARK    4  A    between atoms: C_4  and  C_5 
REMARK    5  A    between atoms: C_5  and  C_20 
REMARK    6  A    between atoms: C_5  and  N_17 
REMARK    7  A    between atoms: N_9  and  C_15 
REMARK    8  A    between atoms: C_15  and  C_22 
REMARK       I    between atoms: N_17  and  C_22 
ROOT
HETATM    1  C           1     -21.739  -5.040  -7.769  0.00  0.00     0.191 C 
ENDROOT
BRANCH   1   2
HETATM    2  C           1     -22.216  -3.836  -8.568  0.00  0.00     0.094 C 
BRANCH   2   3
HETATM    3  C           1     -22.507  -4.254  -9.976  0.00  0.00     0.028 A 
HETATM    4  C           1     -21.632  -4.119 -11.028  0.00  0.00     0.114 A 
HETATM    5  N           1     -22.299  -4.622 -12.111  0.00  0.00    -0.360 N 
HETATM    6  C           1     -23.528  -5.034 -11.681  0.00  0.00     0.180 A 
HETATM    7  H           1     -21.933  -4.680 -13.094  0.00  0.00     0.166 HD
HETATM    8  N           1     -23.682  -4.824 -10.394  0.00  0.00    -0.354 N 
ATOM      9  HN          1     -24.502  -5.038  -9.826  1.00  0.00     0.166 HD
ENDBRANCH   2   3
ENDBRANCH   1   2
BRANCH   1  10
HETATM   10  C           1     -20.234  -5.130  -7.842  0.00  0.00     0.197 C 
HETATM   11  O           1     -19.673  -6.246  -7.812  0.00  0.00    -0.646 OA
HETATM   12  O           1     -19.550  -4.087  -7.931  0.00  0.00    -0.646 OA
ENDBRANCH   1  10
BRANCH   1  13
HETATM   13  N           1     -22.147  -4.893  -6.384  0.00  0.00    -0.344 N 
HETATM   14  H           1     -22.925  -4.290  -6.147  0.00  0.00     0.163 HD
HETATM   15  C           1     -21.482  -5.572  -5.399  0.00  0.00     0.251 C 
HETATM   16  O           1     -20.530  -5.066  -4.855  0.00  0.00    -0.271 OA
BRANCH  15  17
HETATM   17  C           1     -21.939  -6.952  -4.993  0.00  0.00     0.297 C 
BRANCH  17  18
HETATM   18  C           1     -21.712  -7.142  -3.498  0.00  0.00     0.206 C 
BRANCH  18  19
HETATM   19  O           1     -22.299  -6.080  -2.796  0.00  0.00    -0.398 OA
HETATM   20  H           1     -21.597  -5.526  -2.500  0.00  0.00     0.209 HD
ENDBRANCH  18  19
ENDBRANCH  17  18
BRANCH  17  21
HETATM   21  N           1     -21.154  -7.981  -5.751  0.00  0.00    -0.064 N 
HETATM   22  H           1     -20.771  -7.553  -6.624  0.00  0.00     0.275 HD
HETATM   23  H           1     -20.365  -8.324  -5.157  0.00  0.00     0.275 HD
HETATM   24  H           1     -21.777  -8.781  -6.000  0.00  0.00     0.275 HD
ENDBRANCH  17  21
ENDBRANCH  15  17
ENDBRANCH   1  13
TORSDOF 8
ENDMDL
MODEL 6
REMARK VINA RESULT:      -5.6     11.795     13.829
REMARK  8 active torsions:
REMARK  status: ('A' for Active; 'I' for Inactive)
REMARK    1  A    between atoms: C_1  and  C_15 
REMARK    2  A    between atoms: C_1  and  O_16 
REMARK    3  A    between atoms: C_3  and  C_4 
REMARK    4  A    between atoms: C_4  and  C_5 
REMARK    5  A    between atoms: C_5  and  C_20 
REMARK    6  A    between atoms: C_5  and  N_17 
REMARK    7  A    between atoms: N_9  and  C_15 
REMARK    8  A    between atoms: C_15  and  C_22 
REMARK       I    between atoms: N_17  and  C_22 
ROOT
HETATM    1  C           1     -21.256  -5.924  -7.222  0.00  0.00     0.191 C 
ENDROOT
BRANCH   1   2
HETATM    2  C           1     -21.883  -4.559  -6.977  0.00  0.00     0.094 C 
BRANCH   2   3
HETATM    3  C           1     -22.634  -4.128  -8.198  0.00  0.00     0.028 A 
HETATM    4  C           1     -22.061  -3.887  -9.423  0.00  0.00     0.114 A 
HETATM    5  N           1     -23.099  -3.521 -10.236  0.00  0.00    -0.360 N 
HETATM    6  C           1     -24.239  -3.555  -9.484  0.00  0.00     0.180 A 
HETATM    7  H           1     -23.032  -3.262 -11.251  0.00  0.00     0.166 HD
HETATM    8  N           1     -23.989  -3.919  -8.247  0.00  0.00    -0.354 N 
ATOM      9  HN          1     -24.659  -4.022  -7.485  1.00  0.00     0.166 HD
ENDBRANCH   2   3
ENDBRANCH   1   2
BRANCH   1  10
HETATM   10  C           1     -19.763  -5.837  -7.011  0.00  0.00     0.197 C 
HETATM   11  O           1     -19.095  -6.880  -6.844  0.00  0.00    -0.646 OA
HETATM   12  O           1     -19.197  -4.723  -7.004  0.00  0.00    -0.646 OA
ENDBRANCH   1  10
BRANCH   1  13
HETATM   13  N           1     -21.818  -6.888  -6.296  0.00  0.00    -0.344 N 
HETATM   14  H           1     -21.870  -7.866  -6.552  0.00  0.00     0.163 HD
HETATM   15  C           1     -22.278  -6.475  -5.074  0.00  0.00     0.251 C 
HETATM   16  O           1     -23.430  -6.136  -4.946  0.00  0.00    -0.271 OA
BRANCH  15  17
HETATM   17  C           1     -21.346  -6.446  -3.887  0.00  0.00     0.297 C 
BRANCH  17  18
HETATM   18  C           1     -20.858  -7.858  -3.590  0.00  0.00     0.206 C 
BRANCH  18  19
HETATM   19  O           1     -19.805  -8.183  -4.457  0.00  0.00    -0.398 OA
HETATM   20  H           1     -19.100  -8.506  -3.923  0.00  0.00     0.209 HD
ENDBRANCH  18  19
ENDBRANCH  17  18
BRANCH  17  21
HETATM   21  N           1     -22.077  -5.909  -2.692  0.00  0.00    -0.064 N 
HETATM   22  H           1     -22.615  -6.681  -2.237  0.00  0.00     0.275 HD
HETATM   23  H           1     -21.388  -5.517  -2.011  0.00  0.00     0.275 HD
HETATM   24  H           1     -22.736  -5.157  -2.995  0.00  0.00     0.275 HD
ENDBRANCH  17  21
ENDBRANCH  15  17
ENDBRANCH   1  13
TORSDOF 8
ENDMDL
MODEL 7
REMARK VINA RESULT:      -5.5      1.561      3.281
REMARK  8 active torsions:
REMARK  status: ('A' for Active; 'I' for Inactive)
REMARK    1  A    between atoms: C_1  and  C_15 
REMARK    2  A    between atoms: C_1  and  O_16 
REMARK    3  A    between atoms: C_3  and  C_4 
REMARK    4  A    between atoms: C_4  and  C_5 
REMARK    5  A    between atoms: C_5  and  C_20 
REMARK    6  A    between atoms: C_5  and  N_17 
REMARK    7  A    between atoms: N_9  and  C_15 
REMARK    8  A    between atoms: C_15  and  C_22 
REMARK       I    between atoms: N_17  and  C_22 
ROOT
HETATM    1  C           1     -28.057  -5.115 -17.084  0.00  0.00     0.191 C 
ENDROOT
BRANCH   1   2
HETATM    2  C           1     -27.611  -5.983 -18.252  0.00  0.00     0.094 C 
BRANCH   2   3
HETATM    3  C           1     -26.238  -6.516 -17.983  0.00  0.00     0.028 A 
HETATM    4  C           1     -25.321  -6.839 -18.955  0.00  0.00     0.114 A 
HETATM    5  N           1     -24.221  -7.282 -18.273  0.00  0.00    -0.360 N 
HETATM    6  C           1     -24.511  -7.210 -16.940  0.00  0.00     0.180 A 
HETATM    7  H           1     -23.320  -7.615 -18.696  0.00  0.00     0.166 HD
HETATM    8  N           1     -25.724  -6.751 -16.734  0.00  0.00    -0.354 N 
ATOM      9  HN          1     -26.185  -6.602 -15.837  1.00  0.00     0.166 HD
ENDBRANCH   2   3
ENDBRANCH   1   2
BRANCH   1  10
HETATM   10  C           1     -28.878  -3.958 -17.599  0.00  0.00     0.197 C 
HETATM   11  O           1     -28.667  -2.803 -17.171  0.00  0.00    -0.646 OA
HETATM   12  O           1     -29.768  -4.156 -18.454  0.00  0.00    -0.646 OA
ENDBRANCH   1  10
BRANCH   1  13
HETATM   13  N           1     -28.859  -5.907 -16.172  0.00  0.00    -0.344 N 
HETATM   14  H           1     -29.132  -5.525 -15.275  0.00  0.00     0.163 HD
HETATM   15  C           1     -29.249  -7.171 -16.525  0.00  0.00     0.251 C 
HETATM   16  O           1     -28.550  -8.118 -16.250  0.00  0.00    -0.271 OA
BRANCH  15  17
HETATM   17  C           1     -30.553  -7.383 -17.255  0.00  0.00     0.297 C 
BRANCH  17  18
HETATM   18  C           1     -30.275  -7.606 -18.736  0.00  0.00     0.206 C 
BRANCH  18  19
HETATM   19  O           1     -29.623  -8.835 -18.910  0.00  0.00    -0.398 OA
HETATM   20  H           1     -30.138  -9.335 -19.519  0.00  0.00     0.209 HD
ENDBRANCH  18  19
ENDBRANCH  17  18
BRANCH  17  21
HETATM   21  N           1     -31.420  -6.171 -17.088  0.00  0.00    -0.064 N 
HETATM   22  H           1     -32.387  -6.467 -16.822  0.00  0.00     0.275 HD
HETATM   23  H           1     -31.025  -5.561 -16.336  0.00  0.00     0.275 HD
HETATM   24  H           1     -31.454  -5.639 -17.987  0.00  0.00     0.275 HD
ENDBRANCH  17  21
ENDBRANCH  15  17
ENDBRANCH   1  13
TORSDOF 8
ENDMDL
MODEL 8
REMARK VINA RESULT:      -5.4     10.851     13.007
REMARK  8 active torsions:
REMARK  status: ('A' for Active; 'I' for Inactive)
REMARK    1  A    between atoms: C_1  and  C_15 
REMARK    2  A    between atoms: C_1  and  O_16 
REMARK    3  A    between atoms: C_3  and  C_4 
REMARK    4  A    between atoms: C_4  and  C_5 
REMARK    5  A    between atoms: C_5  and  C_20 
REMARK    6  A    between atoms: C_5  and  N_17 
REMARK    7  A    between atoms: N_9  and  C_15 
REMARK    8  A    between atoms: C_15  and  C_22 
REMARK       I    between atoms: N_17  and  C_22 
ROOT
HETATM    1  C           1     -21.238  -5.035  -7.917  0.00  0.00     0.191 C 
ENDROOT
BRANCH   1   2
HETATM    2  C           1     -22.374  -4.028  -7.809  0.00  0.00     0.094 C 
BRANCH   2   3
HETATM    3  C           1     -23.223  -4.099  -9.041  0.00  0.00     0.028 A 
HETATM    4  C           1     -24.332  -3.321  -9.271  0.00  0.00     0.114 A 
HETATM    5  N           1     -24.793  -3.714 -10.498  0.00  0.00    -0.360 N 
HETATM    6  C           1     -23.960  -4.697 -10.953  0.00  0.00     0.180 A 
HETATM    7  H           1     -25.633  -3.331 -10.997  0.00  0.00     0.166 HD
HETATM    8  N           1     -23.001  -4.951 -10.092  0.00  0.00    -0.354 N 
ATOM      9  HN          1     -22.252  -5.637 -10.186  1.00  0.00     0.166 HD
ENDBRANCH   2   3
ENDBRANCH   1   2
BRANCH   1  10
HETATM   10  C           1     -20.118  -4.445  -8.740  0.00  0.00     0.197 C 
HETATM   11  O           1     -19.978  -4.781  -9.936  0.00  0.00    -0.646 OA
HETATM   12  O           1     -19.331  -3.622  -8.225  0.00  0.00    -0.646 OA
ENDBRANCH   1  10
BRANCH   1  13
HETATM   13  N           1     -20.745  -5.352  -6.590  0.00  0.00    -0.344 N 
HETATM   14  H           1     -20.592  -4.611  -5.917  0.00  0.00     0.163 HD
HETATM   15  C           1     -20.490  -6.652  -6.247  0.00  0.00     0.251 C 
HETATM   16  O           1     -19.393  -7.122  -6.435  0.00  0.00    -0.271 OA
BRANCH  15  17
HETATM   17  C           1     -21.578  -7.499  -5.633  0.00  0.00     0.297 C 
BRANCH  17  18
HETATM   18  C           1     -22.453  -6.631  -4.738  0.00  0.00     0.206 C 
BRANCH  18  19
HETATM   19  O           1     -21.644  -5.910  -3.849  0.00  0.00    -0.398 OA
HETATM   20  H           1     -21.255  -5.207  -4.340  0.00  0.00     0.209 HD
ENDBRANCH  18  19
ENDBRANCH  17  18
BRANCH  17  21
HETATM   21  N           1     -20.958  -8.592  -4.815  0.00  0.00    -0.064 N 
HETATM   22  H           1     -21.417  -9.503  -5.044  0.00  0.00     0.275 HD
HETATM   23  H           1     -19.937  -8.653  -5.033  0.00  0.00     0.275 HD
HETATM   24  H           1     -21.086  -8.384  -3.800  0.00  0.00     0.275 HD
ENDBRANCH  17  21
ENDBRANCH  15  17
ENDBRANCH   1  13
TORSDOF 8
ENDMDL
MODEL 9
REMARK VINA RESULT:      -5.4     10.819     12.630
REMARK  8 active torsions:
REMARK  status: ('A' for Active; 'I' for Inactive)
REMARK    1  A    between atoms: C_1  and  C_15 
REMARK    2  A    between atoms: C_1  and  O_16 
REMARK    3  A    between atoms: C_3  and  C_4 
REMARK    4  A    between atoms: C_4  and  C_5 
REMARK    5  A    between atoms: C_5  and  C_20 
REMARK    6  A    between atoms: C_5  and  N_17 
REMARK    7  A    between atoms: N_9  and  C_15 
REMARK    8  A    between atoms: C_15  and  C_22 
REMARK       I    between atoms: N_17  and  C_22 
ROOT
HETATM    1  C           1     -20.670  -4.452  -7.232  0.00  0.00     0.191 C 
ENDROOT
BRANCH   1   2
HETATM    2  C           1     -21.141  -5.899  -7.240  0.00  0.00     0.094 C 
BRANCH   2   3
HETATM    3  C           1     -21.190  -6.416  -5.836  0.00  0.00     0.028 A 
HETATM    4  C           1     -20.294  -7.312  -5.301  0.00  0.00     0.114 A 
HETATM    5  N           1     -20.710  -7.504  -4.012  0.00  0.00    -0.360 N 
HETATM    6  C           1     -21.820  -6.731  -3.821  0.00  0.00     0.180 A 
HETATM    7  H           1     -20.259  -8.131  -3.301  0.00  0.00     0.166 HD
HETATM    8  N           1     -22.134  -6.062  -4.906  0.00  0.00    -0.354 N 
ATOM      9  HN          1     -22.914  -5.417  -5.032  1.00  0.00     0.166 HD
ENDBRANCH   2   3
ENDBRANCH   1   2
BRANCH   1  10
HETATM   10  C           1     -19.811  -4.195  -8.447  0.00  0.00     0.197 C 
HETATM   11  O           1     -19.967  -4.882  -9.478  0.00  0.00    -0.646 OA
HETATM   12  O           1     -18.945  -3.293  -8.420  0.00  0.00    -0.646 OA
ENDBRANCH   1  10
BRANCH   1  13
HETATM   13  N           1     -21.820  -3.569  -7.259  0.00  0.00    -0.344 N 
HETATM   14  H           1     -21.762  -2.649  -6.839  0.00  0.00     0.163 HD
HETATM   15  C           1     -22.983  -3.978  -7.853  0.00  0.00     0.251 C 
HETATM   16  O           1     -23.823  -4.555  -7.203  0.00  0.00    -0.271 OA
BRANCH  15  17
HETATM   17  C           1     -23.218  -3.708  -9.319  0.00  0.00     0.297 C 
BRANCH  17  18
HETATM   18  C           1     -24.656  -3.251  -9.528  0.00  0.00     0.206 C 
BRANCH  18  19
HETATM   19  O           1     -24.947  -3.234 -10.900  0.00  0.00    -0.398 OA
HETATM   20  H           1     -24.303  -3.776 -11.323  0.00  0.00     0.209 HD
ENDBRANCH  18  19
ENDBRANCH  17  18
BRANCH  17  21
HETATM   21  N           1     -22.975  -4.964 -10.103  0.00  0.00    -0.064 N 
HETATM   22  H           1     -23.825  -5.570 -10.062  0.00  0.00     0.275 HD
HETATM   23  H           1     -22.769  -4.718 -11.098  0.00  0.00     0.275 HD
HETATM   24  H           1     -22.161  -5.478  -9.695  0.00  0.00     0.275 HD
ENDBRANCH  17  21
ENDBRANCH  15  17
ENDBRANCH   1  13
TORSDOF 8
ENDMDL
