MODEL 1
REMARK VINA RESULT:      -8.6      0.000      0.000
REMARK  9 active torsions:
REMARK  status: ('A' for Active; 'I' for Inactive)
REMARK       I    between atoms: C_2  and  N_10 
REMARK    1  A    between atoms: C_2  and  C_26 
REMARK    2  A    between atoms: C_8  and  C_11 
REMARK    3  A    between atoms: C_8  and  C_13 
REMARK    4  A    between atoms: N_10  and  C_13 
REMARK    5  A    between atoms: C_13  and  C_14 
REMARK    6  A    between atoms: O_19  and  C_20 
REMARK    7  A    between atoms: N_24  and  C_26 
REMARK    8  A    between atoms: C_26  and  C_27 
REMARK    9  A    between atoms: C_27  and  C_28 
ROOT
HETATM    1  C           1     -20.580  -7.711  -5.753  0.00  0.00     0.249 C 
HETATM    2  N           1     -21.372  -6.638  -6.061  0.00  0.00    -0.344 N 
HETATM    3  O           1     -19.467  -7.793  -6.214  0.00  0.00    -0.271 OA
HETATM    4  H           1     -22.305  -6.570  -5.675  0.00  0.00     0.163 HD
ENDROOT
BRANCH   2   5
HETATM    5  C           1     -20.875  -5.598  -6.941  0.00  0.00     0.189 C 
BRANCH   5   6
HETATM    6  C           1     -22.028  -4.704  -7.372  0.00  0.00     0.074 C 
BRANCH   6   7
HETATM    7  C           1     -21.961  -4.479  -8.851  0.00  0.00    -0.056 A 
HETATM    8  C           1     -23.126  -4.528  -9.617  0.00  0.00     0.010 A 
HETATM    9  C           1     -23.064  -4.319 -10.994  0.00  0.00     0.037 A 
HETATM   10  C           1     -21.837  -4.061 -11.606  0.00  0.00     0.065 A 
HETATM   11  C           1     -20.673  -4.013 -10.840  0.00  0.00     0.037 A 
HETATM   12  C           1     -20.735  -4.222  -9.462  0.00  0.00     0.010 A 
BRANCH  10  13
HETATM   13  O           1     -21.776  -3.859 -12.945  0.00  0.00    -0.361 OA
HETATM   14  H           1     -21.152  -4.504 -13.318  0.00  0.00     0.217 HD
ENDBRANCH  10  13
ENDBRANCH   6   7
ENDBRANCH   5   6
BRANCH   5  15
HETATM   15  C           1     -19.843  -4.774  -6.211  0.00  0.00     0.197 C 
HETATM   16  O           1     -18.766  -4.480  -6.773  0.00  0.00    -0.646 OA
HETATM   17  O           1     -20.065  -4.386  -5.044  0.00  0.00    -0.646 OA
ENDBRANCH   5  15
ENDBRANCH   2   5
BRANCH   1  18
HETATM   18  C           1     -21.098  -8.794  -4.837  0.00  0.00     0.278 C 
BRANCH  18  19
HETATM   19  N           1     -21.001 -10.121  -5.529  0.00  0.00    -0.066 N 
HETATM   20  H           1     -20.306 -10.723  -5.031  0.00  0.00     0.275 HD
HETATM   21  H           1     -20.694  -9.977  -6.517  0.00  0.00     0.275 HD
HETATM   22  H           1     -21.936 -10.589  -5.519  0.00  0.00     0.275 HD
ENDBRANCH  18  19
BRANCH  18  23
HETATM   23  C           1     -20.264  -8.824  -3.564  0.00  0.00     0.081 C 
BRANCH  23  24
HETATM   24  C           1     -21.091  -8.341  -2.413  0.00  0.00    -0.056 A 
HETATM   25  C           1     -21.460  -9.225  -1.399  0.00  0.00     0.007 A 
HETATM   26  C           1     -22.231  -8.774  -0.328  0.00  0.00     0.001 A 
HETATM   27  C           1     -22.633  -7.440  -0.270  0.00  0.00     0.000 A 
HETATM   28  C           1     -22.264  -6.556  -1.284  0.00  0.00     0.001 A 
HETATM   29  C           1     -21.493  -7.006  -2.355  0.00  0.00     0.007 A 
ENDBRANCH  23  24
ENDBRANCH  18  23
ENDBRANCH   1  18
TORSDOF 9
ENDMDL
MODEL 2
REMARK VINA RESULT:      -8.5      0.471      1.084
REMARK  9 active torsions:
REMARK  status: ('A' for Active; 'I' for Inactive)
REMARK       I    between atoms: C_2  and  N_10 
REMARK    1  A    between atoms: C_2  and  C_26 
REMARK    2  A    between atoms: C_8  and  C_11 
REMARK    3  A    between atoms: C_8  and  C_13 
REMARK    4  A    between atoms: N_10  and  C_13 
REMARK    5  A    between atoms: C_13  and  C_14 
REMARK    6  A    between atoms: O_19  and  C_20 
REMARK    7  A    between atoms: N_24  and  C_26 
REMARK    8  A    between atoms: C_26  and  C_27 
REMARK    9  A    between atoms: C_27  and  C_28 
ROOT
HETATM    1  C           1     -20.843  -7.727  -5.486  0.00  0.00     0.249 C 
HETATM    2  N           1     -21.528  -6.579  -5.774  0.00  0.00    -0.344 N 
HETATM    3  O           1     -19.806  -7.972  -6.055  0.00  0.00    -0.271 OA
HETATM    4  H           1     -22.397  -6.374  -5.297  0.00  0.00     0.163 HD
ENDROOT
BRANCH   2   5
HETATM    5  C           1     -21.011  -5.654  -6.764  0.00  0.00     0.189 C 
BRANCH   5   6
HETATM    6  C           1     -22.124  -4.718  -7.215  0.00  0.00     0.074 C 
BRANCH   6   7
HETATM    7  C           1     -22.031  -4.508  -8.695  0.00  0.00    -0.056 A 
HETATM    8  C           1     -23.193  -4.457  -9.465  0.00  0.00     0.010 A 
HETATM    9  C           1     -23.106  -4.261 -10.843  0.00  0.00     0.037 A 
HETATM   10  C           1     -21.859  -4.116 -11.451  0.00  0.00     0.065 A 
HETATM   11  C           1     -20.698  -4.168 -10.680  0.00  0.00     0.037 A 
HETATM   12  C           1     -20.784  -4.364  -9.301  0.00  0.00     0.010 A 
BRANCH  10  13
HETATM   13  O           1     -21.775  -3.927 -12.790  0.00  0.00    -0.361 OA
HETATM   14  H           1     -20.959  -3.432 -12.973  0.00  0.00     0.217 HD
ENDBRANCH  10  13
ENDBRANCH   6   7
ENDBRANCH   5   6
BRANCH   5  15
HETATM   15  C           1     -19.889  -4.847  -6.159  0.00  0.00     0.197 C 
HETATM   16  O           1     -18.833  -4.663  -6.803  0.00  0.00    -0.646 OA
HETATM   17  O           1     -20.013  -4.365  -5.013  0.00  0.00    -0.646 OA
ENDBRANCH   5  15
ENDBRANCH   2   5
BRANCH   1  18
HETATM   18  C           1     -21.382  -8.690  -4.455  0.00  0.00     0.278 C 
BRANCH  18  19
HETATM   19  N           1     -21.359 -10.082  -5.013  0.00  0.00    -0.066 N 
HETATM   20  H           1     -20.956 -10.064  -5.978  0.00  0.00     0.275 HD
HETATM   21  H           1     -22.332 -10.460  -5.048  0.00  0.00     0.275 HD
HETATM   22  H           1     -20.769 -10.693  -4.403  0.00  0.00     0.275 HD
ENDBRANCH  18  19
BRANCH  18  23
HETATM   23  C           1     -20.517  -8.631  -3.203  0.00  0.00     0.081 C 
BRANCH  23  24
HETATM   24  C           1     -21.394  -8.513  -1.996  0.00  0.00    -0.056 A 
HETATM   25  C           1     -21.699  -7.256  -1.475  0.00  0.00     0.007 A 
HETATM   26  C           1     -22.516  -7.147  -0.350  0.00  0.00     0.001 A 
HETATM   27  C           1     -23.028  -8.295   0.255  0.00  0.00     0.000 A 
HETATM   28  C           1     -22.723  -9.553  -0.266  0.00  0.00     0.001 A 
HETATM   29  C           1     -21.906  -9.662  -1.391  0.00  0.00     0.007 A 
ENDBRANCH  23  24
ENDBRANCH  18  23
ENDBRANCH   1  18
TORSDOF 9
ENDMDL
MODEL 3
REMARK VINA RESULT:      -8.3      2.161      8.252
REMARK  9 active torsions:
REMARK  status: ('A' for Active; 'I' for Inactive)
REMARK       I    between atoms: C_2  and  N_10 
REMARK    1  A    between atoms: C_2  and  C_26 
REMARK    2  A    between atoms: C_8  and  C_11 
REMARK    3  A    between atoms: C_8  and  C_13 
REMARK    4  A    between atoms: N_10  and  C_13 
REMARK    5  A    between atoms: C_13  and  C_14 
REMARK    6  A    between atoms: O_19  and  C_20 
REMARK    7  A    between atoms: N_24  and  C_26 
REMARK    8  A    between atoms: C_26  and  C_27 
REMARK    9  A    between atoms: C_27  and  C_28 
ROOT
HETATM    1  C           1     -21.373  -6.117  -5.488  0.00  0.00     0.249 C 
HETATM    2  N           1     -21.248  -7.478  -5.433  0.00  0.00    -0.344 N 
HETATM    3  O           1     -20.877  -5.430  -4.627  0.00  0.00    -0.271 OA
HETATM    4  H           1     -21.664  -8.054  -6.154  0.00  0.00     0.163 HD
ENDROOT
BRANCH   2   5
HETATM    5  C           1     -20.521  -8.097  -4.342  0.00  0.00     0.189 C 
BRANCH   5   6
HETATM    6  C           1     -21.350  -9.233  -3.760  0.00  0.00     0.074 C 
BRANCH   6   7
HETATM    7  C           1     -21.860  -8.837  -2.408  0.00  0.00    -0.056 A 
HETATM    8  C           1     -21.796  -7.504  -2.002  0.00  0.00     0.010 A 
HETATM    9  C           1     -22.271  -7.136  -0.743  0.00  0.00     0.037 A 
HETATM   10  C           1     -22.810  -8.100   0.109  0.00  0.00     0.065 A 
HETATM   11  C           1     -22.873  -9.432  -0.298  0.00  0.00     0.037 A 
HETATM   12  C           1     -22.398  -9.801  -1.557  0.00  0.00     0.010 A 
BRANCH  10  13
HETATM   13  O           1     -23.271  -7.742   1.332  0.00  0.00    -0.361 OA
HETATM   14  H           1     -23.444  -6.786   1.320  0.00  0.00     0.217 HD
ENDBRANCH  10  13
ENDBRANCH   6   7
ENDBRANCH   5   6
BRANCH   5  15
HETATM   15  C           1     -19.212  -8.642  -4.857  0.00  0.00     0.197 C 
HETATM   16  O           1     -18.953  -8.597  -6.079  0.00  0.00    -0.646 OA
HETATM   17  O           1     -18.386  -9.140  -4.062  0.00  0.00    -0.646 OA
ENDBRANCH   5  15
ENDBRANCH   2   5
BRANCH   1  18
HETATM   18  C           1     -22.130  -5.472  -6.624  0.00  0.00     0.278 C 
BRANCH  18  19
HETATM   19  N           1     -23.514  -5.121  -6.164  0.00  0.00    -0.066 N 
HETATM   20  H           1     -23.754  -4.156  -6.489  0.00  0.00     0.275 HD
HETATM   21  H           1     -23.555  -5.159  -5.121  0.00  0.00     0.275 HD
HETATM   22  H           1     -24.198  -5.802  -6.566  0.00  0.00     0.275 HD
ENDBRANCH  18  19
BRANCH  18  23
HETATM   23  C           1     -21.405  -4.207  -7.064  0.00  0.00     0.081 C 
BRANCH  23  24
HETATM   24  C           1     -21.378  -4.143  -8.560  0.00  0.00    -0.056 A 
HETATM   25  C           1     -22.502  -3.706  -9.260  0.00  0.00     0.007 A 
HETATM   26  C           1     -22.476  -3.647 -10.653  0.00  0.00     0.001 A 
HETATM   27  C           1     -21.326  -4.024 -11.346  0.00  0.00     0.000 A 
HETATM   28  C           1     -20.201  -4.461 -10.646  0.00  0.00     0.001 A 
HETATM   29  C           1     -20.227  -4.520  -9.253  0.00  0.00     0.007 A 
ENDBRANCH  23  24
ENDBRANCH  18  23
ENDBRANCH   1  18
TORSDOF 9
ENDMDL
MODEL 4
REMARK VINA RESULT:      -8.0      2.191      8.098
REMARK  9 active torsions:
REMARK  status: ('A' for Active; 'I' for Inactive)
REMARK       I    between atoms: C_2  and  N_10 
REMARK    1  A    between atoms: C_2  and  C_26 
REMARK    2  A    between atoms: C_8  and  C_11 
REMARK    3  A    between atoms: C_8  and  C_13 
REMARK    4  A    between atoms: N_10  and  C_13 
REMARK    5  A    between atoms: C_13  and  C_14 
REMARK    6  A    between atoms: O_19  and  C_20 
REMARK    7  A    between atoms: N_24  and  C_26 
REMARK    8  A    between atoms: C_26  and  C_27 
REMARK    9  A    between atoms: C_27  and  C_28 
ROOT
HETATM    1  C           1     -20.652  -7.284  -5.649  0.00  0.00     0.249 C 
HETATM    2  N           1     -20.905  -8.063  -4.553  0.00  0.00    -0.344 N 
HETATM    3  O           1     -19.619  -7.421  -6.261  0.00  0.00    -0.271 OA
HETATM    4  H           1     -21.770  -7.948  -4.040  0.00  0.00     0.163 HD
ENDROOT
BRANCH   2   5
HETATM    5  C           1     -19.935  -9.051  -4.124  0.00  0.00     0.189 C 
BRANCH   5   6
HETATM    6  C           1     -19.422  -8.690  -2.737  0.00  0.00     0.074 C 
BRANCH   6   7
HETATM    7  C           1     -20.581  -8.406  -1.833  0.00  0.00    -0.056 A 
HETATM    8  C           1     -21.026  -9.383  -0.942  0.00  0.00     0.010 A 
HETATM    9  C           1     -22.105  -9.119  -0.100  0.00  0.00     0.037 A 
HETATM   10  C           1     -22.741  -7.878  -0.148  0.00  0.00     0.065 A 
HETATM   11  C           1     -22.295  -6.902  -1.039  0.00  0.00     0.037 A 
HETATM   12  C           1     -21.215  -7.166  -1.882  0.00  0.00     0.010 A 
BRANCH  10  13
HETATM   13  O           1     -23.790  -7.621   0.669  0.00  0.00    -0.361 OA
HETATM   14  H           1     -24.591  -7.976   0.250  0.00  0.00     0.217 HD
ENDBRANCH  10  13
ENDBRANCH   6   7
ENDBRANCH   5   6
BRANCH   5  15
HETATM   15  C           1     -20.589 -10.410  -4.081  0.00  0.00     0.197 C 
HETATM   16  O           1     -21.802 -10.530  -4.357  0.00  0.00    -0.646 OA
HETATM   17  O           1     -19.917 -11.417  -3.769  0.00  0.00    -0.646 OA
ENDBRANCH   5  15
ENDBRANCH   2   5
BRANCH   1  18
HETATM   18  C           1     -21.662  -6.255  -6.095  0.00  0.00     0.278 C 
BRANCH  18  19
HETATM   19  N           1     -22.684  -6.060  -5.015  0.00  0.00    -0.066 N 
HETATM   20  H           1     -22.216  -5.692  -4.155  0.00  0.00     0.275 HD
HETATM   21  H           1     -23.143  -6.973  -4.799  0.00  0.00     0.275 HD
HETATM   22  H           1     -23.406  -5.375  -5.337  0.00  0.00     0.275 HD
ENDBRANCH  18  19
BRANCH  18  23
HETATM   23  C           1     -20.955  -4.935  -6.370  0.00  0.00     0.081 C 
BRANCH  23  24
HETATM   24  C           1     -21.136  -4.563  -7.809  0.00  0.00    -0.056 A 
HETATM   25  C           1     -20.070  -4.687  -8.701  0.00  0.00     0.007 A 
HETATM   26  C           1     -20.238  -4.340 -10.041  0.00  0.00     0.001 A 
HETATM   27  C           1     -21.471  -3.868 -10.490  0.00  0.00     0.000 A 
HETATM   28  C           1     -22.537  -3.743  -9.598  0.00  0.00     0.001 A 
HETATM   29  C           1     -22.369  -4.091  -8.258  0.00  0.00     0.007 A 
ENDBRANCH  23  24
ENDBRANCH  18  23
ENDBRANCH   1  18
TORSDOF 9
ENDMDL
MODEL 5
REMARK VINA RESULT:      -7.6      2.631      7.289
REMARK  9 active torsions:
REMARK  status: ('A' for Active; 'I' for Inactive)
REMARK       I    between atoms: C_2  and  N_10 
REMARK    1  A    between atoms: C_2  and  C_26 
REMARK    2  A    between atoms: C_8  and  C_11 
REMARK    3  A    between atoms: C_8  and  C_13 
REMARK    4  A    between atoms: N_10  and  C_13 
REMARK    5  A    between atoms: C_13  and  C_14 
REMARK    6  A    between atoms: O_19  and  C_20 
REMARK    7  A    between atoms: N_24  and  C_26 
REMARK    8  A    between atoms: C_26  and  C_27 
REMARK    9  A    between atoms: C_27  and  C_28 
ROOT
HETATM    1  C           1     -21.733  -5.993  -5.100  0.00  0.00     0.249 C 
HETATM    2  N           1     -21.006  -6.444  -4.032  0.00  0.00    -0.344 N 
HETATM    3  O           1     -22.877  -6.352  -5.248  0.00  0.00    -0.271 OA
HETATM    4  H           1     -20.048  -6.143  -3.909  0.00  0.00     0.163 HD
ENDROOT
BRANCH   2   5
HETATM    5  C           1     -21.608  -7.353  -3.077  0.00  0.00     0.189 C 
BRANCH   5   6
HETATM    6  C           1     -20.581  -8.392  -2.649  0.00  0.00     0.074 C 
BRANCH   6   7
HETATM    7  C           1     -20.223  -9.253  -3.821  0.00  0.00    -0.056 A 
HETATM    8  C           1     -21.219  -9.951  -4.503  0.00  0.00     0.010 A 
HETATM    9  C           1     -20.886 -10.753  -5.595  0.00  0.00     0.037 A 
HETATM   10  C           1     -19.556 -10.857  -6.004  0.00  0.00     0.065 A 
HETATM   11  C           1     -18.561 -10.159  -5.321  0.00  0.00     0.037 A 
HETATM   12  C           1     -18.894  -9.357  -4.229  0.00  0.00     0.010 A 
BRANCH  10  13
HETATM   13  O           1     -19.232 -11.637  -7.064  0.00  0.00    -0.361 OA
HETATM   14  H           1     -20.055 -11.883  -7.518  0.00  0.00     0.217 HD
ENDBRANCH  10  13
ENDBRANCH   6   7
ENDBRANCH   5   6
BRANCH   5  15
HETATM   15  C           1     -22.072  -6.577  -1.869  0.00  0.00     0.197 C 
HETATM   16  O           1     -22.530  -7.182  -0.876  0.00  0.00    -0.646 OA
HETATM   17  O           1     -21.999  -5.329  -1.862  0.00  0.00    -0.646 OA
ENDBRANCH   5  15
ENDBRANCH   2   5
BRANCH   1  18
HETATM   18  C           1     -21.106  -5.046  -6.095  0.00  0.00     0.278 C 
BRANCH  18  19
HETATM   19  N           1     -19.849  -4.471  -5.513  0.00  0.00    -0.066 N 
HETATM   20  H           1     -19.735  -3.483  -5.837  0.00  0.00     0.275 HD
HETATM   21  H           1     -19.029  -5.038  -5.826  0.00  0.00     0.275 HD
HETATM   22  H           1     -19.908  -4.489  -4.469  0.00  0.00     0.275 HD
ENDBRANCH  18  19
BRANCH  18  23
HETATM   23  C           1     -20.774  -5.800  -7.375  0.00  0.00     0.081 C 
BRANCH  23  24
HETATM   24  C           1     -21.162  -4.970  -8.559  0.00  0.00    -0.056 A 
HETATM   25  C           1     -22.455  -4.454  -8.656  0.00  0.00     0.007 A 
HETATM   26  C           1     -22.816  -3.681  -9.759  0.00  0.00     0.001 A 
HETATM   27  C           1     -21.885  -3.423 -10.765  0.00  0.00     0.000 A 
HETATM   28  C           1     -20.592  -3.938 -10.668  0.00  0.00     0.001 A 
HETATM   29  C           1     -20.230  -4.711  -9.565  0.00  0.00     0.007 A 
ENDBRANCH  23  24
ENDBRANCH  18  23
ENDBRANCH   1  18
TORSDOF 9
ENDMDL
MODEL 6
REMARK VINA RESULT:      -7.5      2.846      7.747
REMARK  9 active torsions:
REMARK  status: ('A' for Active; 'I' for Inactive)
REMARK       I    between atoms: C_2  and  N_10 
REMARK    1  A    between atoms: C_2  and  C_26 
REMARK    2  A    between atoms: C_8  and  C_11 
REMARK    3  A    between atoms: C_8  and  C_13 
REMARK    4  A    between atoms: N_10  and  C_13 
REMARK    5  A    between atoms: C_13  and  C_14 
REMARK    6  A    between atoms: O_19  and  C_20 
REMARK    7  A    between atoms: N_24  and  C_26 
REMARK    8  A    between atoms: C_26  and  C_27 
REMARK    9  A    between atoms: C_27  and  C_28 
ROOT
HETATM    1  C           1     -20.846  -7.199  -5.611  0.00  0.00     0.249 C 
HETATM    2  N           1     -20.340  -7.439  -4.362  0.00  0.00    -0.344 N 
HETATM    3  O           1     -21.260  -8.115  -6.281  0.00  0.00    -0.271 OA
HETATM    4  H           1     -19.993  -6.672  -3.801  0.00  0.00     0.163 HD
ENDROOT
BRANCH   2   5
HETATM    5  C           1     -20.302  -8.792  -3.842  0.00  0.00     0.189 C 
BRANCH   5   6
HETATM    6  C           1     -18.987  -9.016  -3.109  0.00  0.00     0.074 C 
BRANCH   6   7
HETATM    7  C           1     -17.995  -9.642  -4.040  0.00  0.00    -0.056 A 
HETATM    8  C           1     -16.644  -9.678  -3.698  0.00  0.00     0.010 A 
HETATM    9  C           1     -15.721 -10.261  -4.566  0.00  0.00     0.037 A 
HETATM   10  C           1     -16.148 -10.809  -5.775  0.00  0.00     0.065 A 
HETATM   11  C           1     -17.500 -10.771  -6.117  0.00  0.00     0.037 A 
HETATM   12  C           1     -18.424 -10.188  -5.249  0.00  0.00     0.010 A 
BRANCH  10  13
HETATM   13  O           1     -15.251 -11.374  -6.619  0.00  0.00    -0.361 OA
HETATM   14  H           1     -14.499 -11.689  -6.090  0.00  0.00     0.217 HD
ENDBRANCH  10  13
ENDBRANCH   6   7
ENDBRANCH   5   6
BRANCH   5  15
HETATM   15  C           1     -21.452  -8.996  -2.888  0.00  0.00     0.197 C 
HETATM   16  O           1     -21.647  -8.181  -1.960  0.00  0.00    -0.646 OA
HETATM   17  O           1     -22.210  -9.981  -3.024  0.00  0.00    -0.646 OA
ENDBRANCH   5  15
ENDBRANCH   2   5
BRANCH   1  18
HETATM   18  C           1     -20.886  -5.790  -6.152  0.00  0.00     0.278 C 
BRANCH  18  19
HETATM   19  N           1     -20.364  -4.842  -5.113  0.00  0.00    -0.066 N 
HETATM   20  H           1     -20.037  -5.384  -4.280  0.00  0.00     0.275 HD
HETATM   21  H           1     -21.124  -4.186  -4.827  0.00  0.00     0.275 HD
HETATM   22  H           1     -19.564  -4.298  -5.509  0.00  0.00     0.275 HD
ENDBRANCH  18  19
BRANCH  18  23
HETATM   23  C           1     -20.021  -5.701  -7.402  0.00  0.00     0.081 C 
BRANCH  23  24
HETATM   24  C           1     -20.762  -4.956  -8.469  0.00  0.00    -0.056 A 
HETATM   25  C           1     -22.082  -4.557  -8.254  0.00  0.00     0.007 A 
HETATM   26  C           1     -22.771  -3.864  -9.248  0.00  0.00     0.001 A 
HETATM   27  C           1     -22.142  -3.569 -10.457  0.00  0.00     0.000 A 
HETATM   28  C           1     -20.822  -3.968 -10.673  0.00  0.00     0.001 A 
HETATM   29  C           1     -20.132  -4.661  -9.678  0.00  0.00     0.007 A 
ENDBRANCH  23  24
ENDBRANCH  18  23
ENDBRANCH   1  18
TORSDOF 9
ENDMDL
MODEL 7
REMARK VINA RESULT:      -7.4      3.339      7.961
REMARK  9 active torsions:
REMARK  status: ('A' for Active; 'I' for Inactive)
REMARK       I    between atoms: C_2  and  N_10 
REMARK    1  A    between atoms: C_2  and  C_26 
REMARK    2  A    between atoms: C_8  and  C_11 
REMARK    3  A    between atoms: C_8  and  C_13 
REMARK    4  A    between atoms: N_10  and  C_13 
REMARK    5  A    between atoms: C_13  and  C_14 
REMARK    6  A    between atoms: O_19  and  C_20 
REMARK    7  A    between atoms: N_24  and  C_26 
REMARK    8  A    between atoms: C_26  and  C_27 
REMARK    9  A    between atoms: C_27  and  C_28 
ROOT
HETATM    1  C           1     -20.702  -7.587  -4.957  0.00  0.00     0.249 C 
HETATM    2  N           1     -20.212  -8.126  -3.798  0.00  0.00    -0.344 N 
HETATM    3  O           1     -20.552  -8.169  -6.004  0.00  0.00    -0.271 OA
HETATM    4  H           1     -20.338  -7.638  -2.920  0.00  0.00     0.163 HD
ENDROOT
BRANCH   2   5
HETATM    5  C           1     -19.511  -9.394  -3.827  0.00  0.00     0.189 C 
BRANCH   5   6
HETATM    6  C           1     -18.239  -9.291  -2.997  0.00  0.00     0.074 C 
BRANCH   6   7
HETATM    7  C           1     -17.120  -9.988  -3.707  0.00  0.00    -0.056 A 
HETATM    8  C           1     -16.217 -10.769  -2.987  0.00  0.00     0.010 A 
HETATM    9  C           1     -15.175 -11.418  -3.648  0.00  0.00     0.037 A 
HETATM   10  C           1     -15.036 -11.287  -5.030  0.00  0.00     0.065 A 
HETATM   11  C           1     -15.940 -10.505  -5.750  0.00  0.00     0.037 A 
HETATM   12  C           1     -16.982  -9.856  -5.088  0.00  0.00     0.010 A 
BRANCH  10  13
HETATM   13  O           1     -14.023 -11.917  -5.673  0.00  0.00    -0.361 OA
HETATM   14  H           1     -13.294 -11.283  -5.779  0.00  0.00     0.217 HD
ENDBRANCH  10  13
ENDBRANCH   6   7
ENDBRANCH   5   6
BRANCH   5  15
HETATM   15  C           1     -20.400 -10.472  -3.256  0.00  0.00     0.197 C 
HETATM   16  O           1     -20.219 -10.876  -2.087  0.00  0.00    -0.646 OA
HETATM   17  O           1     -21.316 -10.960  -3.952  0.00  0.00    -0.646 OA
ENDBRANCH   5  15
ENDBRANCH   2   5
BRANCH   1  18
HETATM   18  C           1     -21.432  -6.266  -4.926  0.00  0.00     0.278 C 
BRANCH  18  19
HETATM   19  N           1     -21.895  -5.984  -3.527  0.00  0.00    -0.066 N 
HETATM   20  H           1     -22.440  -6.801  -3.170  0.00  0.00     0.275 HD
HETATM   21  H           1     -22.500  -5.133  -3.526  0.00  0.00     0.275 HD
HETATM   22  H           1     -21.066  -5.824  -2.911  0.00  0.00     0.275 HD
ENDBRANCH  18  19
BRANCH  18  23
HETATM   23  C           1     -20.495  -5.157  -5.384  0.00  0.00     0.081 C 
BRANCH  23  24
HETATM   24  C           1     -20.806  -4.795  -6.803  0.00  0.00    -0.056 A 
HETATM   25  C           1     -19.788  -4.781  -7.758  0.00  0.00     0.007 A 
HETATM   26  C           1     -20.079  -4.443  -9.080  0.00  0.00     0.001 A 
HETATM   27  C           1     -21.384  -4.119  -9.447  0.00  0.00     0.000 A 
HETATM   28  C           1     -22.402  -4.134  -8.492  0.00  0.00     0.001 A 
HETATM   29  C           1     -22.112  -4.472  -7.171  0.00  0.00     0.007 A 
ENDBRANCH  23  24
ENDBRANCH  18  23
ENDBRANCH   1  18
TORSDOF 9
ENDMDL
MODEL 8
REMARK VINA RESULT:      -7.3      5.097      8.560
REMARK  9 active torsions:
REMARK  status: ('A' for Active; 'I' for Inactive)
REMARK       I    between atoms: C_2  and  N_10 
REMARK    1  A    between atoms: C_2  and  C_26 
REMARK    2  A    between atoms: C_8  and  C_11 
REMARK    3  A    between atoms: C_8  and  C_13 
REMARK    4  A    between atoms: N_10  and  C_13 
REMARK    5  A    between atoms: C_13  and  C_14 
REMARK    6  A    between atoms: O_19  and  C_20 
REMARK    7  A    between atoms: N_24  and  C_26 
REMARK    8  A    between atoms: C_26  and  C_27 
REMARK    9  A    between atoms: C_27  and  C_28 
ROOT
HETATM    1  C           1     -21.236  -9.637  -3.752  0.00  0.00     0.249 C 
HETATM    2  N           1     -20.943  -8.632  -2.870  0.00  0.00    -0.344 N 
HETATM    3  O           1     -22.325 -10.160  -3.732  0.00  0.00    -0.271 OA
HETATM    4  H           1     -20.031  -8.195  -2.886  0.00  0.00     0.163 HD
ENDROOT
BRANCH   2   5
HETATM    5  C           1     -21.939  -8.194  -1.912  0.00  0.00     0.189 C 
BRANCH   5   6
HETATM    6  C           1     -21.480  -8.547  -0.505  0.00  0.00     0.074 C 
BRANCH   6   7
HETATM    7  C           1     -22.009  -9.897  -0.131  0.00  0.00    -0.056 A 
HETATM    8  C           1     -21.153 -10.856   0.412  0.00  0.00     0.010 A 
HETATM    9  C           1     -21.645 -12.113   0.761  0.00  0.00     0.037 A 
HETATM   10  C           1     -22.994 -12.412   0.567  0.00  0.00     0.065 A 
HETATM   11  C           1     -23.849 -11.454   0.023  0.00  0.00     0.037 A 
HETATM   12  C           1     -23.357 -10.196  -0.325  0.00  0.00     0.010 A 
BRANCH  10  13
HETATM   13  O           1     -23.473 -13.634   0.905  0.00  0.00    -0.361 OA
HETATM   14  H           1     -23.031 -13.914   1.723  0.00  0.00     0.217 HD
ENDBRANCH  10  13
ENDBRANCH   6   7
ENDBRANCH   5   6
BRANCH   5  15
HETATM   15  C           1     -22.119  -6.700  -2.024  0.00  0.00     0.197 C 
HETATM   16  O           1     -22.016  -6.139  -3.136  0.00  0.00    -0.646 OA
HETATM   17  O           1     -22.370  -6.023  -1.003  0.00  0.00    -0.646 OA
ENDBRANCH   5  15
ENDBRANCH   2   5
BRANCH   1  18
HETATM   18  C           1     -20.199 -10.094  -4.749  0.00  0.00     0.278 C 
BRANCH  18  19
HETATM   19  N           1     -20.852 -10.314  -6.082  0.00  0.00    -0.066 N 
HETATM   20  H           1     -21.778 -10.780  -5.942  0.00  0.00     0.275 HD
HETATM   21  H           1     -20.241 -10.922  -6.672  0.00  0.00     0.275 HD
HETATM   22  H           1     -20.993  -9.395  -6.558  0.00  0.00     0.275 HD
ENDBRANCH  18  19
BRANCH  18  23
HETATM   23  C           1     -19.120  -9.028  -4.884  0.00  0.00     0.081 C 
BRANCH  23  24
HETATM   24  C           1     -17.804  -9.593  -4.447  0.00  0.00    -0.056 A 
HETATM   25  C           1     -17.423  -9.519  -3.107  0.00  0.00     0.007 A 
HETATM   26  C           1     -16.196 -10.045  -2.701  0.00  0.00     0.001 A 
HETATM   27  C           1     -15.351 -10.645  -3.634  0.00  0.00     0.000 A 
HETATM   28  C           1     -15.732 -10.719  -4.974  0.00  0.00     0.001 A 
HETATM   29  C           1     -16.958 -10.194  -5.380  0.00  0.00     0.007 A 
ENDBRANCH  23  24
ENDBRANCH  18  23
ENDBRANCH   1  18
TORSDOF 9
ENDMDL
MODEL 9
REMARK VINA RESULT:      -7.2      3.615      9.032
REMARK  9 active torsions:
REMARK  status: ('A' for Active; 'I' for Inactive)
REMARK       I    between atoms: C_2  and  N_10 
REMARK    1  A    between atoms: C_2  and  C_26 
REMARK    2  A    between atoms: C_8  and  C_11 
REMARK    3  A    between atoms: C_8  and  C_13 
REMARK    4  A    between atoms: N_10  and  C_13 
REMARK    5  A    between atoms: C_13  and  C_14 
REMARK    6  A    between atoms: O_19  and  C_20 
REMARK    7  A    between atoms: N_24  and  C_26 
REMARK    8  A    between atoms: C_26  and  C_27 
REMARK    9  A    between atoms: C_27  and  C_28 
ROOT
HETATM    1  C           1     -21.517  -8.231  -3.692  0.00  0.00     0.249 C 
HETATM    2  N           1     -21.465  -7.778  -2.402  0.00  0.00    -0.344 N 
HETATM    3  O           1     -22.094  -9.261  -3.948  0.00  0.00    -0.271 OA
HETATM    4  H           1     -20.982  -6.915  -2.187  0.00  0.00     0.163 HD
ENDROOT
BRANCH   2   5
HETATM    5  C           1     -22.101  -8.534  -1.341  0.00  0.00     0.189 C 
BRANCH   5   6
HETATM    6  C           1     -21.081  -9.463  -0.698  0.00  0.00     0.074 C 
BRANCH   6   7
HETATM    7  C           1     -21.753 -10.737  -0.287  0.00  0.00    -0.056 A 
HETATM    8  C           1     -22.950 -11.120  -0.892  0.00  0.00     0.010 A 
HETATM    9  C           1     -23.575 -12.306  -0.509  0.00  0.00     0.037 A 
HETATM   10  C           1     -23.005 -13.109   0.479  0.00  0.00     0.065 A 
HETATM   11  C           1     -21.809 -12.724   1.084  0.00  0.00     0.037 A 
HETATM   12  C           1     -21.182 -11.538   0.701  0.00  0.00     0.010 A 
BRANCH  10  13
HETATM   13  O           1     -23.613 -14.261   0.852  0.00  0.00    -0.361 OA
HETATM   14  H           1     -23.063 -14.685   1.530  0.00  0.00     0.217 HD
ENDBRANCH  10  13
ENDBRANCH   6   7
ENDBRANCH   5   6
BRANCH   5  15
HETATM   15  C           1     -22.643  -7.584  -0.302  0.00  0.00     0.197 C 
HETATM   16  O           1     -23.240  -8.029   0.702  0.00  0.00    -0.646 OA
HETATM   17  O           1     -22.496  -6.351  -0.446  0.00  0.00    -0.646 OA
ENDBRANCH   5  15
ENDBRANCH   2   5
BRANCH   1  18
HETATM   18  C           1     -20.855  -7.443  -4.797  0.00  0.00     0.278 C 
BRANCH  18  19
HETATM   19  N           1     -21.136  -8.101  -6.115  0.00  0.00    -0.066 N 
HETATM   20  H           1     -20.273  -8.586  -6.453  0.00  0.00     0.275 HD
HETATM   21  H           1     -21.424  -7.377  -6.811  0.00  0.00     0.275 HD
HETATM   22  H           1     -21.905  -8.799  -6.000  0.00  0.00     0.275 HD
ENDBRANCH  18  19
BRANCH  18  23
HETATM   23  C           1     -21.407  -6.024  -4.810  0.00  0.00     0.081 C 
BRANCH  23  24
HETATM   24  C           1     -20.955  -5.324  -6.054  0.00  0.00    -0.056 A 
HETATM   25  C           1     -21.896  -4.841  -6.963  0.00  0.00     0.007 A 
HETATM   26  C           1     -21.473  -4.189  -8.122  0.00  0.00     0.001 A 
HETATM   27  C           1     -20.112  -4.021  -8.372  0.00  0.00     0.000 A 
HETATM   28  C           1     -19.171  -4.505  -7.462  0.00  0.00     0.001 A 
HETATM   29  C           1     -19.592  -5.156  -6.303  0.00  0.00     0.007 A 
ENDBRANCH  23  24
ENDBRANCH  18  23
ENDBRANCH   1  18
TORSDOF 9
ENDMDL
