MODEL 1
REMARK VINA RESULT:      -5.7      0.000      0.000
REMARK  9 active torsions:
REMARK  status: ('A' for Active; 'I' for Inactive)
REMARK    1  A    between atoms: C_1  and  C_3 
REMARK    2  A    between atoms: C_3  and  C_9 
REMARK    3  A    between atoms: C_3  and  N_15 
REMARK    4  A    between atoms: S_7  and  C_8 
REMARK    5  A    between atoms: C_8  and  C_9 
REMARK    6  A    between atoms: O_11  and  C_16 
REMARK    7  A    between atoms: N_12  and  C_17 
REMARK       I    between atoms: N_15  and  C_18 
REMARK    8  A    between atoms: C_16  and  C_17 
REMARK    9  A    between atoms: C_17  and  C_18 
ROOT
HETATM    1  H           1     -27.137  -6.964 -18.700  0.00  0.00     0.163 HD
HETATM    2  N           1     -26.236  -6.653 -18.361  0.00  0.00    -0.345 N 
HETATM    3  C           1     -25.125  -6.775 -19.153  0.00  0.00     0.251 C 
HETATM    4  O           1     -24.050  -6.403 -18.748  0.00  0.00    -0.271 OA
ENDROOT
BRANCH   2   5
HETATM    5  C           1     -26.120  -6.076 -17.035  0.00  0.00     0.186 C 
BRANCH   5   6
HETATM    6  C           1     -25.983  -7.181 -16.017  0.00  0.00     0.196 C 
HETATM    7  O           1     -26.967  -7.520 -15.325  0.00  0.00    -0.646 OA
HETATM    8  O           1     -24.884  -7.756 -15.863  0.00  0.00    -0.646 OA
ENDBRANCH   5   6
BRANCH   5   9
HETATM    9  C           1     -27.366  -5.255 -16.730  0.00  0.00     0.046 C 
BRANCH   9  10
HETATM   10  C           1     -28.385  -5.442 -17.845  0.00  0.00     0.076 C 
BRANCH  10  11
HETATM   11  S           1     -29.881  -6.222 -17.176  0.00  0.00    -0.173 SA
HETATM   12  C           1     -29.897  -7.632 -18.318  0.00  0.00     0.089 C 
ENDBRANCH  10  11
ENDBRANCH   9  10
ENDBRANCH   5   9
ENDBRANCH   2   5
BRANCH   3  13
HETATM   13  C           1     -25.245  -7.375 -20.532  0.00  0.00     0.297 C 
BRANCH  13  14
HETATM   14  N           1     -24.324  -8.554 -20.645  0.00  0.00    -0.064 N 
HETATM   15  H           1     -23.388  -8.234 -20.983  0.00  0.00     0.275 HD
HETATM   16  H           1     -24.722  -9.244 -21.322  0.00  0.00     0.275 HD
HETATM   17  H           1     -24.221  -9.007 -19.708  0.00  0.00     0.275 HD
ENDBRANCH  13  14
BRANCH  13  18
HETATM   18  C           1     -26.680  -7.828 -20.767  0.00  0.00     0.206 C 
BRANCH  18  19
HETATM   19  O           1     -26.687  -8.937 -21.624  0.00  0.00    -0.398 OA
HETATM   20  H           1     -27.181  -8.692 -22.387  0.00  0.00     0.209 HD
ENDBRANCH  18  19
ENDBRANCH  13  18
ENDBRANCH   3  13
TORSDOF 9
ENDMDL
MODEL 2
REMARK VINA RESULT:      -5.1      3.504      5.510
REMARK  9 active torsions:
REMARK  status: ('A' for Active; 'I' for Inactive)
REMARK    1  A    between atoms: C_1  and  C_3 
REMARK    2  A    between atoms: C_3  and  C_9 
REMARK    3  A    between atoms: C_3  and  N_15 
REMARK    4  A    between atoms: S_7  and  C_8 
REMARK    5  A    between atoms: C_8  and  C_9 
REMARK    6  A    between atoms: O_11  and  C_16 
REMARK    7  A    between atoms: N_12  and  C_17 
REMARK       I    between atoms: N_15  and  C_18 
REMARK    8  A    between atoms: C_16  and  C_17 
REMARK    9  A    between atoms: C_17  and  C_18 
ROOT
HETATM    1  H           1     -28.447  -4.564 -16.243  0.00  0.00     0.163 HD
HETATM    2  N           1     -28.831  -5.377 -16.707  0.00  0.00    -0.345 N 
HETATM    3  C           1     -30.157  -5.409 -17.048  0.00  0.00     0.251 C 
HETATM    4  O           1     -30.615  -6.380 -17.602  0.00  0.00    -0.271 OA
ENDROOT
BRANCH   2   5
HETATM    5  C           1     -27.977  -6.509 -17.012  0.00  0.00     0.186 C 
BRANCH   5   6
HETATM    6  C           1     -27.365  -7.035 -15.738  0.00  0.00     0.196 C 
HETATM    7  O           1     -26.137  -6.915 -15.538  0.00  0.00    -0.646 OA
HETATM    8  O           1     -28.085  -7.593 -14.882  0.00  0.00    -0.646 OA
ENDBRANCH   5   6
BRANCH   5   9
HETATM    9  C           1     -26.872  -6.068 -17.963  0.00  0.00     0.046 C 
BRANCH   9  10
HETATM   10  C           1     -27.278  -6.382 -19.396  0.00  0.00     0.076 C 
BRANCH  10  11
HETATM   11  S           1     -25.813  -6.877 -20.347  0.00  0.00    -0.173 SA
HETATM   12  C           1     -26.586  -8.290 -21.183  0.00  0.00     0.089 C 
ENDBRANCH  10  11
ENDBRANCH   9  10
ENDBRANCH   5   9
ENDBRANCH   2   5
BRANCH   3  13
HETATM   13  C           1     -31.046  -4.232 -16.730  0.00  0.00     0.297 C 
BRANCH  13  14
HETATM   14  N           1     -30.800  -3.138 -17.725  0.00  0.00    -0.064 N 
HETATM   15  H           1     -29.887  -3.305 -18.208  0.00  0.00     0.275 HD
HETATM   16  H           1     -30.769  -2.218 -17.231  0.00  0.00     0.275 HD
HETATM   17  H           1     -31.571  -3.128 -18.431  0.00  0.00     0.275 HD
ENDBRANCH  13  14
BRANCH  13  18
HETATM   18  C           1     -32.505  -4.664 -16.801  0.00  0.00     0.206 C 
BRANCH  18  19
HETATM   19  O           1     -33.150  -4.334 -15.601  0.00  0.00    -0.398 OA
HETATM   20  H           1     -34.075  -4.326 -15.781  0.00  0.00     0.209 HD
ENDBRANCH  18  19
ENDBRANCH  13  18
ENDBRANCH   3  13
TORSDOF 9
ENDMDL
MODEL 3
REMARK VINA RESULT:      -4.7     18.727     20.050
REMARK  9 active torsions:
REMARK  status: ('A' for Active; 'I' for Inactive)
REMARK    1  A    between atoms: C_1  and  C_3 
REMARK    2  A    between atoms: C_3  and  C_9 
REMARK    3  A    between atoms: C_3  and  N_15 
REMARK    4  A    between atoms: S_7  and  C_8 
REMARK    5  A    between atoms: C_8  and  C_9 
REMARK    6  A    between atoms: O_11  and  C_16 
REMARK    7  A    between atoms: N_12  and  C_17 
REMARK       I    between atoms: N_15  and  C_18 
REMARK    8  A    between atoms: C_16  and  C_17 
REMARK    9  A    between atoms: C_17  and  C_18 
ROOT
HETATM    1  H           1     -11.955   6.280 -21.820  0.00  0.00     0.163 HD
HETATM    2  N           1     -11.570   5.381 -21.561  0.00  0.00    -0.345 N 
HETATM    3  C           1     -12.167   4.228 -21.995  0.00  0.00     0.251 C 
HETATM    4  O           1     -11.707   3.155 -21.685  0.00  0.00    -0.271 OA
ENDROOT
BRANCH   2   5
HETATM    5  C           1     -10.384   5.314 -20.729  0.00  0.00     0.186 C 
BRANCH   5   6
HETATM    6  C           1     -10.783   5.393 -19.276  0.00  0.00     0.196 C 
HETATM    7  O           1     -11.968   5.177 -18.941  0.00  0.00    -0.646 OA
HETATM    8  O           1      -9.930   5.677 -18.408  0.00  0.00    -0.646 OA
ENDBRANCH   5   6
BRANCH   5   9
HETATM    9  C           1      -9.461   6.477 -21.067  0.00  0.00     0.046 C 
BRANCH   9  10
HETATM   10  C           1     -10.294   7.695 -21.443  0.00  0.00     0.076 C 
BRANCH  10  11
HETATM   11  S           1      -9.666   9.153 -20.564  0.00  0.00    -0.173 SA
HETATM   12  C           1     -10.800   9.037 -19.151  0.00  0.00     0.089 C 
ENDBRANCH  10  11
ENDBRANCH   9  10
ENDBRANCH   5   9
ENDBRANCH   2   5
BRANCH   3  13
HETATM   13  C           1     -13.402   4.298 -22.860  0.00  0.00     0.297 C 
BRANCH  13  14
HETATM   14  N           1     -14.195   3.035 -22.701  0.00  0.00    -0.064 N 
HETATM   15  H           1     -15.136   3.157 -23.139  0.00  0.00     0.275 HD
HETATM   16  H           1     -14.308   2.820 -21.684  0.00  0.00     0.275 HD
HETATM   17  H           1     -13.692   2.246 -23.168  0.00  0.00     0.275 HD
ENDBRANCH  13  14
BRANCH  13  18
HETATM   18  C           1     -14.253   5.488 -22.437  0.00  0.00     0.206 C 
BRANCH  18  19
HETATM   19  O           1     -14.321   5.540 -21.038  0.00  0.00    -0.398 OA
HETATM   20  H           1     -13.797   4.829 -20.711  0.00  0.00     0.209 HD
ENDBRANCH  18  19
ENDBRANCH  13  18
ENDBRANCH   3  13
TORSDOF 9
ENDMDL
MODEL 4
REMARK VINA RESULT:      -4.6     12.536     14.460
REMARK  9 active torsions:
REMARK  status: ('A' for Active; 'I' for Inactive)
REMARK    1  A    between atoms: C_1  and  C_3 
REMARK    2  A    between atoms: C_3  and  C_9 
REMARK    3  A    between atoms: C_3  and  N_15 
REMARK    4  A    between atoms: S_7  and  C_8 
REMARK    5  A    between atoms: C_8  and  C_9 
REMARK    6  A    between atoms: O_11  and  C_16 
REMARK    7  A    between atoms: N_12  and  C_17 
REMARK       I    between atoms: N_15  and  C_18 
REMARK    8  A    between atoms: C_16  and  C_17 
REMARK    9  A    between atoms: C_17  and  C_18 
ROOT
HETATM    1  H           1     -21.837  -6.421  -6.834  0.00  0.00     0.163 HD
HETATM    2  N           1     -21.219  -6.046  -6.125  0.00  0.00    -0.345 N 
HETATM    3  C           1     -20.749  -4.764  -6.235  0.00  0.00     0.251 C 
HETATM    4  O           1     -20.012  -4.317  -5.388  0.00  0.00    -0.271 OA
ENDROOT
BRANCH   2   5
HETATM    5  C           1     -20.833  -6.866  -4.993  0.00  0.00     0.186 C 
BRANCH   5   6
HETATM    6  C           1     -20.427  -8.235  -5.479  0.00  0.00     0.196 C 
HETATM    7  O           1     -21.299  -9.103  -5.699  0.00  0.00    -0.646 OA
HETATM    8  O           1     -19.220  -8.502  -5.658  0.00  0.00    -0.646 OA
ENDBRANCH   5   6
BRANCH   5   9
HETATM    9  C           1     -22.010  -6.993  -4.034  0.00  0.00     0.046 C 
BRANCH   9  10
HETATM   10  C           1     -21.623  -6.424  -2.676  0.00  0.00     0.076 C 
BRANCH  10  11
HETATM   11  S           1     -21.189  -7.781  -1.552  0.00  0.00    -0.173 SA
HETATM   12  C           1     -22.498  -7.460  -0.337  0.00  0.00     0.089 C 
ENDBRANCH  10  11
ENDBRANCH   9  10
ENDBRANCH   5   9
ENDBRANCH   2   5
BRANCH   3  13
HETATM   13  C           1     -21.151  -3.911  -7.413  0.00  0.00     0.297 C 
BRANCH  13  14
HETATM   14  N           1     -20.036  -3.890  -8.416  0.00  0.00    -0.064 N 
HETATM   15  H           1     -19.811  -2.899  -8.665  0.00  0.00     0.275 HD
HETATM   16  H           1     -20.331  -4.406  -9.275  0.00  0.00     0.275 HD
HETATM   17  H           1     -19.190  -4.348  -8.008  0.00  0.00     0.275 HD
ENDBRANCH  13  14
BRANCH  13  18
HETATM   18  C           1     -22.402  -4.492  -8.057  0.00  0.00     0.206 C 
BRANCH  18  19
HETATM   19  O           1     -23.498  -4.306  -7.203  0.00  0.00    -0.398 OA
HETATM   20  H           1     -24.118  -4.987  -7.400  0.00  0.00     0.209 HD
ENDBRANCH  18  19
ENDBRANCH  13  18
ENDBRANCH   3  13
TORSDOF 9
ENDMDL
MODEL 5
REMARK VINA RESULT:      -4.5     16.146     18.280
REMARK  9 active torsions:
REMARK  status: ('A' for Active; 'I' for Inactive)
REMARK    1  A    between atoms: C_1  and  C_3 
REMARK    2  A    between atoms: C_3  and  C_9 
REMARK    3  A    between atoms: C_3  and  N_15 
REMARK    4  A    between atoms: S_7  and  C_8 
REMARK    5  A    between atoms: C_8  and  C_9 
REMARK    6  A    between atoms: O_11  and  C_16 
REMARK    7  A    between atoms: N_12  and  C_17 
REMARK       I    between atoms: N_15  and  C_18 
REMARK    8  A    between atoms: C_16  and  C_17 
REMARK    9  A    between atoms: C_17  and  C_18 
ROOT
HETATM    1  H           1     -22.224  -9.784  -1.929  0.00  0.00     0.163 HD
HETATM    2  N           1     -21.771  -9.482  -1.076  0.00  0.00    -0.345 N 
HETATM    3  C           1     -21.648 -10.348  -0.022  0.00  0.00     0.251 C 
HETATM    4  O           1     -21.107  -9.987   0.997  0.00  0.00    -0.271 OA
ENDROOT
BRANCH   2   5
HETATM    5  C           1     -21.252  -8.132  -0.969  0.00  0.00     0.186 C 
BRANCH   5   6
HETATM    6  C           1     -22.396  -7.168  -0.774  0.00  0.00     0.196 C 
HETATM    7  O           1     -23.296  -7.425   0.054  0.00  0.00    -0.646 OA
HETATM    8  O           1     -22.444  -6.113  -1.442  0.00  0.00    -0.646 OA
ENDBRANCH   5   6
BRANCH   5   9
HETATM    9  C           1     -20.498  -7.777  -2.244  0.00  0.00     0.046 C 
BRANCH   9  10
HETATM   10  C           1     -20.980  -8.664  -3.384  0.00  0.00     0.076 C 
BRANCH  10  11
HETATM   11  S           1     -20.681  -7.831  -4.968  0.00  0.00    -0.173 SA
HETATM   12  C           1     -22.149  -6.764  -4.912  0.00  0.00     0.089 C 
ENDBRANCH  10  11
ENDBRANCH   9  10
ENDBRANCH   5   9
ENDBRANCH   2   5
BRANCH   3  13
HETATM   13  C           1     -22.188 -11.753  -0.132  0.00  0.00     0.297 C 
BRANCH  13  14
HETATM   14  N           1     -21.625 -12.593   0.976  0.00  0.00    -0.064 N 
HETATM   15  H           1     -20.794 -13.121   0.624  0.00  0.00     0.275 HD
HETATM   16  H           1     -22.351 -13.266   1.307  0.00  0.00     0.275 HD
HETATM   17  H           1     -21.336 -11.976   1.769  0.00  0.00     0.275 HD
ENDBRANCH  13  14
BRANCH  13  18
HETATM   18  C           1     -23.707 -11.724  -0.024  0.00  0.00     0.206 C 
BRANCH  18  19
HETATM   19  O           1     -24.141 -10.398   0.111  0.00  0.00    -0.398 OA
HETATM   20  H           1     -23.958 -10.138   0.998  0.00  0.00     0.209 HD
ENDBRANCH  18  19
ENDBRANCH  13  18
ENDBRANCH   3  13
TORSDOF 9
ENDMDL
MODEL 6
REMARK VINA RESULT:      -4.4     19.871     21.154
REMARK  9 active torsions:
REMARK  status: ('A' for Active; 'I' for Inactive)
REMARK    1  A    between atoms: C_1  and  C_3 
REMARK    2  A    between atoms: C_3  and  C_9 
REMARK    3  A    between atoms: C_3  and  N_15 
REMARK    4  A    between atoms: S_7  and  C_8 
REMARK    5  A    between atoms: C_8  and  C_9 
REMARK    6  A    between atoms: O_11  and  C_16 
REMARK    7  A    between atoms: N_12  and  C_17 
REMARK       I    between atoms: N_15  and  C_18 
REMARK    8  A    between atoms: C_16  and  C_17 
REMARK    9  A    between atoms: C_17  and  C_18 
ROOT
HETATM    1  H           1     -11.387   6.857 -21.679  0.00  0.00     0.163 HD
HETATM    2  N           1     -10.767   6.664 -20.902  0.00  0.00    -0.345 N 
HETATM    3  C           1     -10.679   5.394 -20.396  0.00  0.00     0.251 C 
HETATM    4  O           1      -9.939   5.163 -19.469  0.00  0.00    -0.271 OA
ENDROOT
BRANCH   2   5
HETATM    5  C           1      -9.972   7.731 -20.326  0.00  0.00     0.186 C 
BRANCH   5   6
HETATM    6  C           1     -10.759   8.409 -19.232  0.00  0.00     0.196 C 
HETATM    7  O           1     -10.162   9.025 -18.323  0.00  0.00    -0.646 OA
HETATM    8  O           1     -12.007   8.355 -19.234  0.00  0.00    -0.646 OA
ENDBRANCH   5   6
BRANCH   5   9
HETATM    9  C           1      -9.625   8.745 -21.408  0.00  0.00     0.046 C 
BRANCH   9  10
HETATM   10  C           1     -10.623   8.630 -22.552  0.00  0.00     0.076 C 
BRANCH  10  11
HETATM   11  S           1     -11.654  10.123 -22.609  0.00  0.00    -0.173 SA
HETATM   12  C           1     -13.251   9.265 -22.507  0.00  0.00     0.089 C 
ENDBRANCH  10  11
ENDBRANCH   9  10
ENDBRANCH   5   9
ENDBRANCH   2   5
BRANCH   3  13
HETATM   13  C           1     -11.506   4.284 -20.995  0.00  0.00     0.297 C 
BRANCH  13  14
HETATM   14  N           1     -10.982   2.960 -20.522  0.00  0.00    -0.064 N 
HETATM   15  H           1     -11.372   2.197 -21.121  0.00  0.00     0.275 HD
HETATM   16  H           1     -11.271   2.806 -19.529  0.00  0.00     0.275 HD
HETATM   17  H           1      -9.939   2.955 -20.585  0.00  0.00     0.275 HD
ENDBRANCH  13  14
BRANCH  13  18
HETATM   18  C           1     -12.957   4.440 -20.561  0.00  0.00     0.206 C 
BRANCH  18  19
HETATM   19  O           1     -13.047   5.433 -19.576  0.00  0.00    -0.398 OA
HETATM   20  H           1     -13.175   6.252 -20.024  0.00  0.00     0.209 HD
ENDBRANCH  18  19
ENDBRANCH  13  18
ENDBRANCH   3  13
TORSDOF 9
ENDMDL
MODEL 7
REMARK VINA RESULT:      -4.4     13.025     15.001
REMARK  9 active torsions:
REMARK  status: ('A' for Active; 'I' for Inactive)
REMARK    1  A    between atoms: C_1  and  C_3 
REMARK    2  A    between atoms: C_3  and  C_9 
REMARK    3  A    between atoms: C_3  and  N_15 
REMARK    4  A    between atoms: S_7  and  C_8 
REMARK    5  A    between atoms: C_8  and  C_9 
REMARK    6  A    between atoms: O_11  and  C_16 
REMARK    7  A    between atoms: N_12  and  C_17 
REMARK       I    between atoms: N_15  and  C_18 
REMARK    8  A    between atoms: C_16  and  C_17 
REMARK    9  A    between atoms: C_17  and  C_18 
ROOT
HETATM    1  H           1     -19.830  -6.249  -4.987  0.00  0.00     0.163 HD
HETATM    2  N           1     -20.840  -6.295  -5.026  0.00  0.00    -0.345 N 
HETATM    3  C           1     -21.534  -5.436  -5.836  0.00  0.00     0.251 C 
HETATM    4  O           1     -22.740  -5.491  -5.883  0.00  0.00    -0.271 OA
ENDROOT
BRANCH   2   5
HETATM    5  C           1     -21.553  -7.273  -4.227  0.00  0.00     0.186 C 
BRANCH   5   6
HETATM    6  C           1     -21.603  -6.809  -2.792  0.00  0.00     0.196 C 
HETATM    7  O           1     -20.824  -7.302  -1.948  0.00  0.00    -0.646 OA
HETATM    8  O           1     -22.424  -5.932  -2.447  0.00  0.00    -0.646 OA
ENDBRANCH   5   6
BRANCH   5   9
HETATM    9  C           1     -20.833  -8.613  -4.304  0.00  0.00     0.046 C 
BRANCH   9  10
HETATM   10  C           1     -19.532  -8.448  -5.076  0.00  0.00     0.076 C 
BRANCH  10  11
HETATM   11  S           1     -18.429  -9.842  -4.711  0.00  0.00    -0.173 SA
HETATM   12  C           1     -18.157  -9.428  -2.965  0.00  0.00     0.089 C 
ENDBRANCH  10  11
ENDBRANCH   9  10
ENDBRANCH   5   9
ENDBRANCH   2   5
BRANCH   3  13
HETATM   13  C           1     -20.793  -4.418  -6.668  0.00  0.00     0.297 C 
BRANCH  13  14
HETATM   14  N           1     -19.374  -4.867  -6.856  0.00  0.00    -0.064 N 
HETATM   15  H           1     -19.180  -5.680  -6.229  0.00  0.00     0.275 HD
HETATM   16  H           1     -18.726  -4.082  -6.619  0.00  0.00     0.275 HD
HETATM   17  H           1     -19.227  -5.150  -7.851  0.00  0.00     0.275 HD
ENDBRANCH  13  14
BRANCH  13  18
HETATM   18  C           1     -21.467  -4.285  -8.027  0.00  0.00     0.206 C 
BRANCH  18  19
HETATM   19  O           1     -22.536  -3.383  -7.932  0.00  0.00    -0.398 OA
HETATM   20  H           1     -23.323  -3.897  -7.868  0.00  0.00     0.209 HD
ENDBRANCH  18  19
ENDBRANCH  13  18
ENDBRANCH   3  13
TORSDOF 9
ENDMDL
MODEL 8
REMARK VINA RESULT:      -4.3     19.227     20.637
REMARK  9 active torsions:
REMARK  status: ('A' for Active; 'I' for Inactive)
REMARK    1  A    between atoms: C_1  and  C_3 
REMARK    2  A    between atoms: C_3  and  C_9 
REMARK    3  A    between atoms: C_3  and  N_15 
REMARK    4  A    between atoms: S_7  and  C_8 
REMARK    5  A    between atoms: C_8  and  C_9 
REMARK    6  A    between atoms: O_11  and  C_16 
REMARK    7  A    between atoms: N_12  and  C_17 
REMARK       I    between atoms: N_15  and  C_18 
REMARK    8  A    between atoms: C_16  and  C_17 
REMARK    9  A    between atoms: C_17  and  C_18 
ROOT
HETATM    1  H           1     -10.854   5.890 -20.608  0.00  0.00     0.163 HD
HETATM    2  N           1     -11.317   6.507 -21.264  0.00  0.00    -0.345 N 
HETATM    3  C           1     -10.874   7.793 -21.423  0.00  0.00     0.251 C 
HETATM    4  O           1     -11.426   8.530 -22.206  0.00  0.00    -0.271 OA
ENDROOT
BRANCH   2   5
HETATM    5  C           1     -12.448   6.029 -22.035  0.00  0.00     0.186 C 
BRANCH   5   6
HETATM    6  C           1     -13.678   6.005 -21.161  0.00  0.00     0.196 C 
HETATM    7  O           1     -14.791   5.725 -21.656  0.00  0.00    -0.646 OA
HETATM    8  O           1     -13.584   6.267 -19.943  0.00  0.00    -0.646 OA
ENDBRANCH   5   6
BRANCH   5   9
HETATM    9  C           1     -12.157   4.623 -22.543  0.00  0.00     0.046 C 
BRANCH   9  10
HETATM   10  C           1     -10.886   4.098 -21.889  0.00  0.00     0.076 C 
BRANCH  10  11
HETATM   11  S           1     -11.307   2.773 -20.723  0.00  0.00    -0.173 SA
HETATM   12  C           1     -13.009   2.530 -21.304  0.00  0.00     0.089 C 
ENDBRANCH  10  11
ENDBRANCH   9  10
ENDBRANCH   5   9
ENDBRANCH   2   5
BRANCH   3  13
HETATM   13  C           1      -9.697   8.291 -20.621  0.00  0.00     0.297 C 
BRANCH  13  14
HETATM   14  N           1      -8.903   9.259 -21.448  0.00  0.00    -0.064 N 
HETATM   15  H           1      -8.893   8.939 -22.443  0.00  0.00     0.275 HD
HETATM   16  H           1      -7.924   9.304 -21.087  0.00  0.00     0.275 HD
HETATM   17  H           1      -9.339  10.207 -21.390  0.00  0.00     0.275 HD
ENDBRANCH  13  14
BRANCH  13  18
HETATM   18  C           1     -10.198   8.990 -19.364  0.00  0.00     0.206 C 
BRANCH  18  19
HETATM   19  O           1     -11.490   8.540 -19.062  0.00  0.00    -0.398 OA
HETATM   20  H           1     -11.706   8.878 -18.209  0.00  0.00     0.209 HD
ENDBRANCH  18  19
ENDBRANCH  13  18
ENDBRANCH   3  13
TORSDOF 9
ENDMDL
MODEL 9
REMARK VINA RESULT:      -4.3     15.423     17.385
REMARK  9 active torsions:
REMARK  status: ('A' for Active; 'I' for Inactive)
REMARK    1  A    between atoms: C_1  and  C_3 
REMARK    2  A    between atoms: C_3  and  C_9 
REMARK    3  A    between atoms: C_3  and  N_15 
REMARK    4  A    between atoms: S_7  and  C_8 
REMARK    5  A    between atoms: C_8  and  C_9 
REMARK    6  A    between atoms: O_11  and  C_16 
REMARK    7  A    between atoms: N_12  and  C_17 
REMARK       I    between atoms: N_15  and  C_18 
REMARK    8  A    between atoms: C_16  and  C_17 
REMARK    9  A    between atoms: C_17  and  C_18 
ROOT
HETATM    1  H           1     -20.217  -7.566  -1.763  0.00  0.00     0.163 HD
HETATM    2  N           1     -20.956  -8.218  -1.994  0.00  0.00    -0.345 N 
HETATM    3  C           1     -21.224  -8.513  -3.305  0.00  0.00     0.251 C 
HETATM    4  O           1     -22.106  -9.292  -3.580  0.00  0.00    -0.271 OA
ENDROOT
BRANCH   2   5
HETATM    5  C           1     -21.732  -8.839  -0.938  0.00  0.00     0.186 C 
BRANCH   5   6
HETATM    6  C           1     -22.672  -7.822  -0.340  0.00  0.00     0.196 C 
HETATM    7  O           1     -22.725  -6.666  -0.812  0.00  0.00    -0.646 OA
HETATM    8  O           1     -23.396  -8.135   0.629  0.00  0.00    -0.646 OA
ENDBRANCH   5   6
BRANCH   5   9
HETATM    9  C           1     -20.792  -9.360   0.141  0.00  0.00     0.046 C 
BRANCH   9  10
HETATM   10  C           1     -21.231 -10.754   0.568  0.00  0.00     0.076 C 
BRANCH  10  11
HETATM   11  S           1     -22.095 -11.565  -0.806  0.00  0.00    -0.173 SA
HETATM   12  C           1     -23.663 -11.826   0.071  0.00  0.00     0.089 C 
ENDBRANCH  10  11
ENDBRANCH   9  10
ENDBRANCH   5   9
ENDBRANCH   2   5
BRANCH   3  13
HETATM   13  C           1     -20.417  -7.867  -4.404  0.00  0.00     0.297 C 
BRANCH  13  14
HETATM   14  N           1     -20.496  -8.710  -5.642  0.00  0.00    -0.064 N 
HETATM   15  H           1     -19.599  -8.631  -6.174  0.00  0.00     0.275 HD
HETATM   16  H           1     -21.286  -8.379  -6.239  0.00  0.00     0.275 HD
HETATM   17  H           1     -20.656  -9.708  -5.375  0.00  0.00     0.275 HD
ENDBRANCH  13  14
BRANCH  13  18
HETATM   18  C           1     -20.977  -6.482  -4.697  0.00  0.00     0.206 C 
BRANCH  18  19
HETATM   19  O           1     -22.039  -6.211  -3.824  0.00  0.00    -0.398 OA
HETATM   20  H           1     -21.814  -6.593  -2.992  0.00  0.00     0.209 HD
ENDBRANCH  18  19
ENDBRANCH  13  18
ENDBRANCH   3  13
TORSDOF 9
ENDMDL
