MODEL 1
REMARK VINA RESULT:      -6.8      0.000      0.000
REMARK  11 active torsions:
REMARK  status: ('A' for Active; 'I' for Inactive)
REMARK    1  A    between atoms: C_1  and  C_13 
REMARK    2  A    between atoms: C_1  and  C_16 
REMARK    3  A    between atoms: C_1  and  N_6 
REMARK    4  A    between atoms: N_4  and  C_23 
REMARK       I    between atoms: N_4  and  C_13 
REMARK    5  A    between atoms: C_5  and  C_21 
REMARK    6  A    between atoms: C_5  and  N_14 
REMARK    7  A    between atoms: C_7  and  C_22 
REMARK    8  A    between atoms: C_7  and  C_23 
REMARK    9  A    between atoms: C_16  and  C_24 
REMARK   10  A    between atoms: C_18  and  C_23 
REMARK   11  A    between atoms: C_21  and  C_24 
ROOT
HETATM    1  C           1     -34.243  -4.023 -12.369  0.00  0.00     0.274 C 
ENDROOT
BRANCH   1   2
HETATM    2  C           1     -34.390  -2.577 -11.963  0.00  0.00     0.249 C 
HETATM    3  N           1     -35.397  -1.816 -12.493  0.00  0.00    -0.344 N 
HETATM    4  H           1     -36.043  -2.224 -13.157  0.00  0.00     0.163 HD
HETATM    5  O           1     -33.620  -2.092 -11.170  0.00  0.00    -0.271 OA
BRANCH   3   6
HETATM    6  C           1     -35.538  -0.427 -12.103  0.00  0.00     0.189 C 
BRANCH   6   7
HETATM    7  C           1     -35.870   0.412 -13.329  0.00  0.00     0.014 C 
HETATM    8  C           1     -34.603   1.090 -13.837  0.00  0.00     0.012 C 
BRANCH   7   9
HETATM    9  C           1     -36.438  -0.485 -14.420  0.00  0.00     0.002 C 
HETATM   10  C           1     -35.635  -0.299 -15.701  0.00  0.00     0.005 C 
ENDBRANCH   7   9
ENDBRANCH   6   7
BRANCH   6  11
HETATM   11  C           1     -36.650  -0.300 -11.090  0.00  0.00     0.197 C 
HETATM   12  O           1     -36.580   0.563 -10.189  0.00  0.00    -0.646 OA
HETATM   13  O           1     -37.643  -1.058 -11.154  0.00  0.00    -0.646 OA
ENDBRANCH   6  11
ENDBRANCH   3   6
ENDBRANCH   1   2
BRANCH   1  14
HETATM   14  C           1     -33.341  -4.742 -11.374  0.00  0.00     0.042 C 
BRANCH  14  15
HETATM   15  C           1     -34.198  -5.492 -10.362  0.00  0.00     0.004 C 
BRANCH  15  16
HETATM   16  C           1     -34.635  -6.824 -10.955  0.00  0.00     0.027 C 
BRANCH  16  17
HETATM   17  C           1     -34.585  -7.902  -9.879  0.00  0.00     0.229 C 
BRANCH  17  18
HETATM   18  N           1     -33.568  -8.937 -10.256  0.00  0.00    -0.079 N 
HETATM   19  H           1     -33.991  -9.888 -10.169  0.00  0.00     0.274 HD
HETATM   20  H           1     -33.262  -8.782 -11.243  0.00  0.00     0.274 HD
HETATM   21  H           1     -32.742  -8.862  -9.620  0.00  0.00     0.274 HD
ENDBRANCH  17  18
ENDBRANCH  16  17
ENDBRANCH  15  16
ENDBRANCH  14  15
ENDBRANCH   1  14
BRANCH   1  22
HETATM   22  N           1     -33.636  -4.098 -13.738  0.00  0.00    -0.067 N 
HETATM   23  H           1     -33.982  -4.954 -14.227  0.00  0.00     0.275 HD
HETATM   24  H           1     -33.907  -3.250 -14.286  0.00  0.00     0.275 HD
HETATM   25  H           1     -32.594  -4.141 -13.655  0.00  0.00     0.275 HD
ENDBRANCH   1  22
TORSDOF 11
ENDMDL
MODEL 2
REMARK VINA RESULT:      -6.3      4.051      6.266
REMARK  11 active torsions:
REMARK  status: ('A' for Active; 'I' for Inactive)
REMARK    1  A    between atoms: C_1  and  C_13 
REMARK    2  A    between atoms: C_1  and  C_16 
REMARK    3  A    between atoms: C_1  and  N_6 
REMARK    4  A    between atoms: N_4  and  C_23 
REMARK       I    between atoms: N_4  and  C_13 
REMARK    5  A    between atoms: C_5  and  C_21 
REMARK    6  A    between atoms: C_5  and  N_14 
REMARK    7  A    between atoms: C_7  and  C_22 
REMARK    8  A    between atoms: C_7  and  C_23 
REMARK    9  A    between atoms: C_16  and  C_24 
REMARK   10  A    between atoms: C_18  and  C_23 
REMARK   11  A    between atoms: C_21  and  C_24 
ROOT
HETATM    1  C           1     -33.332  -4.403 -16.819  0.00  0.00     0.274 C 
ENDROOT
BRANCH   1   2
HETATM    2  C           1     -34.019  -4.481 -15.478  0.00  0.00     0.249 C 
HETATM    3  N           1     -33.465  -3.867 -14.387  0.00  0.00    -0.344 N 
HETATM    4  H           1     -32.594  -3.361 -14.480  0.00  0.00     0.163 HD
HETATM    5  O           1     -35.060  -5.085 -15.368  0.00  0.00    -0.271 OA
BRANCH   3   6
HETATM    6  C           1     -34.126  -3.943 -13.099  0.00  0.00     0.189 C 
BRANCH   6   7
HETATM    7  C           1     -33.083  -4.115 -12.004  0.00  0.00     0.014 C 
HETATM    8  C           1     -33.252  -3.014 -10.964  0.00  0.00     0.012 C 
BRANCH   7   9
HETATM    9  C           1     -33.265  -5.473 -11.339  0.00  0.00     0.002 C 
HETATM   10  C           1     -34.381  -5.388 -10.307  0.00  0.00     0.005 C 
ENDBRANCH   7   9
ENDBRANCH   6   7
BRANCH   6  11
HETATM   11  C           1     -34.903  -2.672 -12.859  0.00  0.00     0.197 C 
HETATM   12  O           1     -34.644  -1.645 -13.522  0.00  0.00    -0.646 OA
HETATM   13  O           1     -35.808  -2.646 -11.996  0.00  0.00    -0.646 OA
ENDBRANCH   6  11
ENDBRANCH   3   6
ENDBRANCH   1   2
BRANCH   1  14
HETATM   14  C           1     -31.834  -4.612 -16.637  0.00  0.00     0.042 C 
BRANCH  14  15
HETATM   15  C           1     -31.075  -3.735 -17.625  0.00  0.00     0.004 C 
BRANCH  15  16
HETATM   16  C           1     -29.640  -4.229 -17.743  0.00  0.00     0.027 C 
BRANCH  16  17
HETATM   17  C           1     -28.689  -3.160 -17.220  0.00  0.00     0.229 C 
BRANCH  17  18
HETATM   18  N           1     -29.335  -1.812 -17.346  0.00  0.00    -0.079 N 
HETATM   19  H           1     -30.369  -1.910 -17.232  0.00  0.00     0.274 HD
HETATM   20  H           1     -28.961  -1.177 -16.606  0.00  0.00     0.274 HD
HETATM   21  H           1     -29.123  -1.411 -18.288  0.00  0.00     0.274 HD
ENDBRANCH  17  18
ENDBRANCH  16  17
ENDBRANCH  15  16
ENDBRANCH  14  15
ENDBRANCH   1  14
BRANCH   1  22
HETATM   22  N           1     -33.578  -3.054 -17.428  0.00  0.00    -0.067 N 
HETATM   23  H           1     -34.009  -2.424 -16.714  0.00  0.00     0.275 HD
HETATM   24  H           1     -32.672  -2.647 -17.750  0.00  0.00     0.275 HD
HETATM   25  H           1     -34.226  -3.153 -18.242  0.00  0.00     0.275 HD
ENDBRANCH   1  22
TORSDOF 11
ENDMDL
MODEL 3
REMARK VINA RESULT:      -5.9      4.148      5.807
REMARK  11 active torsions:
REMARK  status: ('A' for Active; 'I' for Inactive)
REMARK    1  A    between atoms: C_1  and  C_13 
REMARK    2  A    between atoms: C_1  and  C_16 
REMARK    3  A    between atoms: C_1  and  N_6 
REMARK    4  A    between atoms: N_4  and  C_23 
REMARK       I    between atoms: N_4  and  C_13 
REMARK    5  A    between atoms: C_5  and  C_21 
REMARK    6  A    between atoms: C_5  and  N_14 
REMARK    7  A    between atoms: C_7  and  C_22 
REMARK    8  A    between atoms: C_7  and  C_23 
REMARK    9  A    between atoms: C_16  and  C_24 
REMARK   10  A    between atoms: C_18  and  C_23 
REMARK   11  A    between atoms: C_21  and  C_24 
ROOT
HETATM    1  C           1     -33.341  -4.326 -16.779  0.00  0.00     0.274 C 
ENDROOT
BRANCH   1   2
HETATM    2  C           1     -34.028  -4.425 -15.439  0.00  0.00     0.249 C 
HETATM    3  N           1     -33.493  -3.798 -14.346  0.00  0.00    -0.344 N 
HETATM    4  H           1     -32.636  -3.268 -14.438  0.00  0.00     0.163 HD
HETATM    5  O           1     -35.051  -5.058 -15.331  0.00  0.00    -0.271 OA
BRANCH   3   6
HETATM    6  C           1     -34.153  -3.894 -13.060  0.00  0.00     0.189 C 
BRANCH   6   7
HETATM    7  C           1     -33.109  -4.081 -11.967  0.00  0.00     0.014 C 
HETATM    8  C           1     -33.282  -2.998 -10.910  0.00  0.00     0.012 C 
BRANCH   7   9
HETATM    9  C           1     -33.286  -5.451 -11.326  0.00  0.00     0.002 C 
HETATM   10  C           1     -34.460  -5.409 -10.356  0.00  0.00     0.005 C 
ENDBRANCH   7   9
ENDBRANCH   6   7
BRANCH   6  11
HETATM   11  C           1     -34.932  -2.628 -12.799  0.00  0.00     0.197 C 
HETATM   12  O           1     -34.658  -1.584 -13.429  0.00  0.00    -0.646 OA
HETATM   13  O           1     -35.853  -2.624 -11.954  0.00  0.00    -0.646 OA
ENDBRANCH   6  11
ENDBRANCH   3   6
ENDBRANCH   1   2
BRANCH   1  14
HETATM   14  C           1     -31.845  -4.551 -16.603  0.00  0.00     0.042 C 
BRANCH  14  15
HETATM   15  C           1     -31.494  -5.975 -17.018  0.00  0.00     0.004 C 
BRANCH  15  16
HETATM   16  C           1     -29.980  -6.136 -17.046  0.00  0.00     0.027 C 
BRANCH  16  17
HETATM   17  C           1     -29.585  -7.028 -18.216  0.00  0.00     0.229 C 
BRANCH  17  18
HETATM   18  N           1     -29.433  -8.441 -17.738  0.00  0.00    -0.079 N 
HETATM   19  H           1     -30.366  -8.913 -17.745  0.00  0.00     0.274 HD
HETATM   20  H           1     -28.779  -8.954 -18.371  0.00  0.00     0.274 HD
HETATM   21  H           1     -29.049  -8.441 -16.766  0.00  0.00     0.274 HD
ENDBRANCH  17  18
ENDBRANCH  16  17
ENDBRANCH  15  16
ENDBRANCH  14  15
ENDBRANCH   1  14
BRANCH   1  22
HETATM   22  N           1     -33.576  -2.962 -17.360  0.00  0.00    -0.067 N 
HETATM   23  H           1     -32.746  -2.356 -17.171  0.00  0.00     0.275 HD
HETATM   24  H           1     -33.721  -3.043 -18.391  0.00  0.00     0.275 HD
HETATM   25  H           1     -34.425  -2.539 -16.920  0.00  0.00     0.275 HD
ENDBRANCH   1  22
TORSDOF 11
ENDMDL
MODEL 4
REMARK VINA RESULT:      -5.8      2.189      6.737
REMARK  11 active torsions:
REMARK  status: ('A' for Active; 'I' for Inactive)
REMARK    1  A    between atoms: C_1  and  C_13 
REMARK    2  A    between atoms: C_1  and  C_16 
REMARK    3  A    between atoms: C_1  and  N_6 
REMARK    4  A    between atoms: N_4  and  C_23 
REMARK       I    between atoms: N_4  and  C_13 
REMARK    5  A    between atoms: C_5  and  C_21 
REMARK    6  A    between atoms: C_5  and  N_14 
REMARK    7  A    between atoms: C_7  and  C_22 
REMARK    8  A    between atoms: C_7  and  C_23 
REMARK    9  A    between atoms: C_16  and  C_24 
REMARK   10  A    between atoms: C_18  and  C_23 
REMARK   11  A    between atoms: C_21  and  C_24 
ROOT
HETATM    1  C           1     -36.425  -0.630 -11.325  0.00  0.00     0.274 C 
ENDROOT
BRANCH   1   2
HETATM    2  C           1     -35.406  -1.673 -10.938  0.00  0.00     0.249 C 
HETATM    3  N           1     -35.373  -2.875 -11.592  0.00  0.00    -0.344 N 
HETATM    4  H           1     -36.033  -3.064 -12.336  0.00  0.00     0.163 HD
HETATM    5  O           1     -34.618  -1.447 -10.050  0.00  0.00    -0.271 OA
BRANCH   3   6
HETATM    6  C           1     -34.394  -3.877 -11.220  0.00  0.00     0.189 C 
BRANCH   6   7
HETATM    7  C           1     -35.088  -5.219 -11.032  0.00  0.00     0.014 C 
HETATM    8  C           1     -35.089  -5.979 -12.353  0.00  0.00     0.012 C 
BRANCH   7   9
HETATM    9  C           1     -34.346  -6.031  -9.980  0.00  0.00     0.002 C 
HETATM   10  C           1     -34.746  -7.496 -10.092  0.00  0.00     0.005 C 
ENDBRANCH   7   9
ENDBRANCH   6   7
BRANCH   6  11
HETATM   11  C           1     -33.357  -3.995 -12.310  0.00  0.00     0.197 C 
HETATM   12  O           1     -32.214  -4.424 -12.042  0.00  0.00    -0.646 OA
HETATM   13  O           1     -33.641  -3.666 -13.482  0.00  0.00    -0.646 OA
ENDBRANCH   6  11
ENDBRANCH   3   6
ENDBRANCH   1   2
BRANCH   1  14
HETATM   14  C           1     -36.229  -0.245 -12.785  0.00  0.00     0.042 C 
BRANCH  14  15
HETATM   15  C           1     -34.864   0.408 -12.960  0.00  0.00     0.004 C 
BRANCH  15  16
HETATM   16  C           1     -34.882   1.300 -14.195  0.00  0.00     0.027 C 
BRANCH  16  17
HETATM   17  C           1     -35.743   0.656 -15.274  0.00  0.00     0.229 C 
BRANCH  17  18
HETATM   18  N           1     -36.507   1.721 -16.004  0.00  0.00    -0.079 N 
HETATM   19  H           1     -36.701   1.401 -16.980  0.00  0.00     0.274 HD
HETATM   20  H           1     -37.410   1.902 -15.511  0.00  0.00     0.274 HD
HETATM   21  H           1     -35.942   2.600 -16.029  0.00  0.00     0.274 HD
ENDBRANCH  17  18
ENDBRANCH  16  17
ENDBRANCH  15  16
ENDBRANCH  14  15
ENDBRANCH   1  14
BRANCH   1  22
HETATM   22  N           1     -36.250   0.583 -10.460  0.00  0.00    -0.067 N 
HETATM   23  H           1     -35.641   1.276 -10.951  0.00  0.00     0.275 HD
HETATM   24  H           1     -37.183   1.013 -10.270  0.00  0.00     0.275 HD
HETATM   25  H           1     -35.803   0.305  -9.557  0.00  0.00     0.275 HD
ENDBRANCH   1  22
TORSDOF 11
ENDMDL
MODEL 5
REMARK VINA RESULT:      -5.7     13.476     16.288
REMARK  11 active torsions:
REMARK  status: ('A' for Active; 'I' for Inactive)
REMARK    1  A    between atoms: C_1  and  C_13 
REMARK    2  A    between atoms: C_1  and  C_16 
REMARK    3  A    between atoms: C_1  and  N_6 
REMARK    4  A    between atoms: N_4  and  C_23 
REMARK       I    between atoms: N_4  and  C_13 
REMARK    5  A    between atoms: C_5  and  C_21 
REMARK    6  A    between atoms: C_5  and  N_14 
REMARK    7  A    between atoms: C_7  and  C_22 
REMARK    8  A    between atoms: C_7  and  C_23 
REMARK    9  A    between atoms: C_16  and  C_24 
REMARK   10  A    between atoms: C_18  and  C_23 
REMARK   11  A    between atoms: C_21  and  C_24 
ROOT
HETATM    1  C           1     -22.396  -5.032  -7.246  0.00  0.00     0.274 C 
ENDROOT
BRANCH   1   2
HETATM    2  C           1     -21.353  -5.694  -6.380  0.00  0.00     0.249 C 
HETATM    3  N           1     -21.719  -6.665  -5.487  0.00  0.00    -0.344 N 
HETATM    4  H           1     -22.690  -6.938  -5.408  0.00  0.00     0.163 HD
HETATM    5  O           1     -20.193  -5.367  -6.475  0.00  0.00    -0.271 OA
BRANCH   3   6
HETATM    6  C           1     -20.717  -7.301  -4.655  0.00  0.00     0.189 C 
BRANCH   6   7
HETATM    7  C           1     -21.319  -7.625  -3.295  0.00  0.00     0.014 C 
HETATM    8  C           1     -20.265  -8.294  -2.420  0.00  0.00     0.012 C 
BRANCH   7   9
HETATM    9  C           1     -21.790  -6.339  -2.629  0.00  0.00     0.002 C 
HETATM   10  C           1     -22.321  -6.652  -1.237  0.00  0.00     0.005 C 
ENDBRANCH   7   9
ENDBRANCH   6   7
BRANCH   6  11
HETATM   11  C           1     -20.251  -8.575  -5.316  0.00  0.00     0.197 C 
HETATM   12  O           1     -21.074  -9.476  -5.587  0.00  0.00    -0.646 OA
HETATM   13  O           1     -19.042  -8.730  -5.592  0.00  0.00    -0.646 OA
ENDBRANCH   6  11
ENDBRANCH   3   6
ENDBRANCH   1   2
BRANCH   1  14
HETATM   14  C           1     -21.875  -3.685  -7.731  0.00  0.00     0.042 C 
BRANCH  14  15
HETATM   15  C           1     -22.109  -3.561  -9.232  0.00  0.00     0.004 C 
BRANCH  15  16
HETATM   16  C           1     -22.772  -4.831  -9.748  0.00  0.00     0.027 C 
BRANCH  16  17
HETATM   17  C           1     -23.992  -4.465 -10.583  0.00  0.00     0.229 C 
BRANCH  17  18
HETATM   18  N           1     -25.105  -4.028  -9.678  0.00  0.00    -0.079 N 
HETATM   19  H           1     -24.814  -4.157  -8.682  0.00  0.00     0.274 HD
HETATM   20  H           1     -25.318  -3.020  -9.849  0.00  0.00     0.274 HD
HETATM   21  H           1     -25.957  -4.602  -9.871  0.00  0.00     0.274 HD
ENDBRANCH  17  18
ENDBRANCH  16  17
ENDBRANCH  15  16
ENDBRANCH  14  15
ENDBRANCH   1  14
BRANCH   1  22
HETATM   22  N           1     -23.649  -4.824  -6.448  0.00  0.00    -0.067 N 
HETATM   23  H           1     -24.480  -5.054  -7.038  0.00  0.00     0.275 HD
HETATM   24  H           1     -23.635  -5.447  -5.609  0.00  0.00     0.275 HD
HETATM   25  H           1     -23.704  -3.827  -6.140  0.00  0.00     0.275 HD
ENDBRANCH   1  22
TORSDOF 11
ENDMDL
MODEL 6
REMARK VINA RESULT:      -5.7     13.889     16.681
REMARK  11 active torsions:
REMARK  status: ('A' for Active; 'I' for Inactive)
REMARK    1  A    between atoms: C_1  and  C_13 
REMARK    2  A    between atoms: C_1  and  C_16 
REMARK    3  A    between atoms: C_1  and  N_6 
REMARK    4  A    between atoms: N_4  and  C_23 
REMARK       I    between atoms: N_4  and  C_13 
REMARK    5  A    between atoms: C_5  and  C_21 
REMARK    6  A    between atoms: C_5  and  N_14 
REMARK    7  A    between atoms: C_7  and  C_22 
REMARK    8  A    between atoms: C_7  and  C_23 
REMARK    9  A    between atoms: C_16  and  C_24 
REMARK   10  A    between atoms: C_18  and  C_23 
REMARK   11  A    between atoms: C_21  and  C_24 
ROOT
HETATM    1  C           1     -20.740  -5.124  -6.489  0.00  0.00     0.274 C 
ENDROOT
BRANCH   1   2
HETATM    2  C           1     -21.507  -5.968  -5.501  0.00  0.00     0.249 C 
HETATM    3  N           1     -20.836  -6.771  -4.619  0.00  0.00    -0.344 N 
HETATM    4  H           1     -19.825  -6.799  -4.630  0.00  0.00     0.163 HD
HETATM    5  O           1     -22.715  -5.933  -5.488  0.00  0.00    -0.271 OA
BRANCH   3   6
HETATM    6  C           1     -21.574  -7.581  -3.670  0.00  0.00     0.189 C 
BRANCH   6   7
HETATM    7  C           1     -20.905  -8.942  -3.537  0.00  0.00     0.014 C 
HETATM    8  C           1     -21.816 -10.014  -4.125  0.00  0.00     0.012 C 
BRANCH   7   9
HETATM    9  C           1     -19.582  -8.932  -4.289  0.00  0.00     0.002 C 
HETATM   10  C           1     -18.462  -9.366  -3.353  0.00  0.00     0.005 C 
ENDBRANCH   7   9
ENDBRANCH   6   7
BRANCH   6  11
HETATM   11  C           1     -21.587  -6.893  -2.326  0.00  0.00     0.197 C 
HETATM   12  O           1     -20.949  -7.381  -1.369  0.00  0.00    -0.646 OA
HETATM   13  O           1     -22.235  -5.836  -2.171  0.00  0.00    -0.646 OA
ENDBRANCH   6  11
ENDBRANCH   3   6
ENDBRANCH   1   2
BRANCH   1  14
HETATM   14  C           1     -21.715  -4.318  -7.337  0.00  0.00     0.042 C 
BRANCH  14  15
HETATM   15  C           1     -21.279  -4.366  -8.796  0.00  0.00     0.004 C 
BRANCH  15  16
HETATM   16  C           1     -22.501  -4.240  -9.695  0.00  0.00     0.027 C 
BRANCH  16  17
HETATM   17  C           1     -23.741  -4.014  -8.840  0.00  0.00     0.229 C 
BRANCH  17  18
HETATM   18  N           1     -24.970  -4.239  -9.670  0.00  0.00    -0.079 N 
HETATM   19  H           1     -25.155  -5.265  -9.746  0.00  0.00     0.274 HD
HETATM   20  H           1     -25.787  -3.770  -9.218  0.00  0.00     0.274 HD
HETATM   21  H           1     -24.823  -3.839 -10.625  0.00  0.00     0.274 HD
ENDBRANCH  17  18
ENDBRANCH  16  17
ENDBRANCH  15  16
ENDBRANCH  14  15
ENDBRANCH   1  14
BRANCH   1  22
HETATM   22  N           1     -19.924  -6.016  -7.378  0.00  0.00    -0.067 N 
HETATM   23  H           1     -19.836  -6.960  -6.938  0.00  0.00     0.275 HD
HETATM   24  H           1     -20.394  -6.107  -8.307  0.00  0.00     0.275 HD
HETATM   25  H           1     -18.973  -5.602  -7.507  0.00  0.00     0.275 HD
ENDBRANCH   1  22
TORSDOF 11
ENDMDL
MODEL 7
REMARK VINA RESULT:      -5.6      2.332      6.365
REMARK  11 active torsions:
REMARK  status: ('A' for Active; 'I' for Inactive)
REMARK    1  A    between atoms: C_1  and  C_13 
REMARK    2  A    between atoms: C_1  and  C_16 
REMARK    3  A    between atoms: C_1  and  N_6 
REMARK    4  A    between atoms: N_4  and  C_23 
REMARK       I    between atoms: N_4  and  C_13 
REMARK    5  A    between atoms: C_5  and  C_21 
REMARK    6  A    between atoms: C_5  and  N_14 
REMARK    7  A    between atoms: C_7  and  C_22 
REMARK    8  A    between atoms: C_7  and  C_23 
REMARK    9  A    between atoms: C_16  and  C_24 
REMARK   10  A    between atoms: C_18  and  C_23 
REMARK   11  A    between atoms: C_21  and  C_24 
ROOT
HETATM    1  C           1     -36.586  -1.066 -10.427  0.00  0.00     0.274 C 
ENDROOT
BRANCH   1   2
HETATM    2  C           1     -35.392  -1.489 -11.248  0.00  0.00     0.249 C 
HETATM    3  N           1     -35.282  -2.783 -11.680  0.00  0.00    -0.344 N 
HETATM    4  H           1     -36.001  -3.456 -11.449  0.00  0.00     0.163 HD
HETATM    5  O           1     -34.534  -0.684 -11.524  0.00  0.00    -0.271 OA
BRANCH   3   6
HETATM    6  C           1     -34.135  -3.189 -12.468  0.00  0.00     0.189 C 
BRANCH   6   7
HETATM    7  C           1     -33.622  -4.531 -11.962  0.00  0.00     0.014 C 
HETATM    8  C           1     -32.100  -4.555 -12.044  0.00  0.00     0.012 C 
BRANCH   7   9
HETATM    9  C           1     -34.056  -4.727 -10.517  0.00  0.00     0.002 C 
HETATM   10  C           1     -34.549  -6.155 -10.324  0.00  0.00     0.005 C 
ENDBRANCH   7   9
ENDBRANCH   6   7
BRANCH   6  11
HETATM   11  C           1     -34.541  -3.319 -13.916  0.00  0.00     0.197 C 
HETATM   12  O           1     -34.851  -2.301 -14.572  0.00  0.00    -0.646 OA
HETATM   13  O           1     -34.567  -4.444 -14.459  0.00  0.00    -0.646 OA
ENDBRANCH   6  11
ENDBRANCH   3   6
ENDBRANCH   1   2
BRANCH   1  14
HETATM   14  C           1     -37.672  -0.526 -11.349  0.00  0.00     0.042 C 
BRANCH  14  15
HETATM   15  C           1     -37.032   0.032 -12.615  0.00  0.00     0.004 C 
BRANCH  15  16
HETATM   16  C           1     -37.985  -0.154 -13.788  0.00  0.00     0.027 C 
BRANCH  16  17
HETATM   17  C           1     -37.225   0.035 -15.095  0.00  0.00     0.229 C 
BRANCH  17  18
HETATM   18  N           1     -37.794   1.207 -15.839  0.00  0.00    -0.079 N 
HETATM   19  H           1     -37.681   1.054 -16.866  0.00  0.00     0.274 HD
HETATM   20  H           1     -38.809   1.304 -15.611  0.00  0.00     0.274 HD
HETATM   21  H           1     -37.289   2.077 -15.557  0.00  0.00     0.274 HD
ENDBRANCH  17  18
ENDBRANCH  16  17
ENDBRANCH  15  16
ENDBRANCH  14  15
ENDBRANCH   1  14
BRANCH   1  22
HETATM   22  N           1     -36.173   0.005  -9.461  0.00  0.00    -0.067 N 
HETATM   23  H           1     -36.748   0.862  -9.625  0.00  0.00     0.275 HD
HETATM   24  H           1     -36.320  -0.332  -8.484  0.00  0.00     0.275 HD
HETATM   25  H           1     -35.162   0.232  -9.605  0.00  0.00     0.275 HD
ENDBRANCH   1  22
TORSDOF 11
ENDMDL
MODEL 8
REMARK VINA RESULT:      -5.4     14.657     17.564
REMARK  11 active torsions:
REMARK  status: ('A' for Active; 'I' for Inactive)
REMARK    1  A    between atoms: C_1  and  C_13 
REMARK    2  A    between atoms: C_1  and  C_16 
REMARK    3  A    between atoms: C_1  and  N_6 
REMARK    4  A    between atoms: N_4  and  C_23 
REMARK       I    between atoms: N_4  and  C_13 
REMARK    5  A    between atoms: C_5  and  C_21 
REMARK    6  A    between atoms: C_5  and  N_14 
REMARK    7  A    between atoms: C_7  and  C_22 
REMARK    8  A    between atoms: C_7  and  C_23 
REMARK    9  A    between atoms: C_16  and  C_24 
REMARK   10  A    between atoms: C_18  and  C_23 
REMARK   11  A    between atoms: C_21  and  C_24 
ROOT
HETATM    1  C           1     -21.403  -6.842  -5.633  0.00  0.00     0.274 C 
ENDROOT
BRANCH   1   2
HETATM    2  C           1     -20.771  -7.584  -4.481  0.00  0.00     0.249 C 
HETATM    3  N           1     -21.450  -7.721  -3.300  0.00  0.00    -0.344 N 
HETATM    4  H           1     -22.375  -7.324  -3.199  0.00  0.00     0.163 HD
HETATM    5  O           1     -19.667  -8.058  -4.602  0.00  0.00    -0.271 OA
BRANCH   3   6
HETATM    6  C           1     -20.842  -8.434  -2.194  0.00  0.00     0.189 C 
BRANCH   6   7
HETATM    7  C           1     -21.263  -7.786  -0.881  0.00  0.00     0.014 C 
HETATM    8  C           1     -22.257  -6.667  -1.164  0.00  0.00     0.012 C 
BRANCH   7   9
HETATM    9  C           1     -21.915  -8.831   0.014  0.00  0.00     0.002 C 
HETATM   10  C           1     -23.213  -8.274   0.583  0.00  0.00     0.005 C 
ENDBRANCH   7   9
ENDBRANCH   6   7
BRANCH   6  11
HETATM   11  C           1     -21.297  -9.873  -2.213  0.00  0.00     0.197 C 
HETATM   12  O           1     -22.453 -10.158  -2.594  0.00  0.00    -0.646 OA
HETATM   13  O           1     -20.518 -10.780  -1.848  0.00  0.00    -0.646 OA
ENDBRANCH   6  11
ENDBRANCH   3   6
ENDBRANCH   1   2
BRANCH   1  14
HETATM   14  C           1     -20.424  -5.808  -6.171  0.00  0.00     0.042 C 
BRANCH  14  15
HETATM   15  C           1     -20.791  -5.460  -7.608  0.00  0.00     0.004 C 
BRANCH  15  16
HETATM   16  C           1     -21.263  -4.014  -7.676  0.00  0.00     0.027 C 
BRANCH  16  17
HETATM   17  C           1     -22.452  -3.911  -8.622  0.00  0.00     0.229 C 
BRANCH  17  18
HETATM   18  N           1     -23.723  -4.115  -7.851  0.00  0.00    -0.079 N 
HETATM   19  H           1     -24.538  -4.054  -8.502  0.00  0.00     0.274 HD
HETATM   20  H           1     -23.708  -5.056  -7.399  0.00  0.00     0.274 HD
HETATM   21  H           1     -23.807  -3.377  -7.116  0.00  0.00     0.274 HD
ENDBRANCH  17  18
ENDBRANCH  16  17
ENDBRANCH  15  16
ENDBRANCH  14  15
ENDBRANCH   1  14
BRANCH   1  22
HETATM   22  N           1     -22.648  -6.153  -5.159  0.00  0.00    -0.067 N 
HETATM   23  H           1     -23.389  -6.864  -4.968  0.00  0.00     0.275 HD
HETATM   24  H           1     -22.441  -5.622  -4.283  0.00  0.00     0.275 HD
HETATM   25  H           1     -22.982  -5.492  -5.897  0.00  0.00     0.275 HD
ENDBRANCH   1  22
TORSDOF 11
ENDMDL
MODEL 9
REMARK VINA RESULT:      -5.2     15.892     18.450
REMARK  11 active torsions:
REMARK  status: ('A' for Active; 'I' for Inactive)
REMARK    1  A    between atoms: C_1  and  C_13 
REMARK    2  A    between atoms: C_1  and  C_16 
REMARK    3  A    between atoms: C_1  and  N_6 
REMARK    4  A    between atoms: N_4  and  C_23 
REMARK       I    between atoms: N_4  and  C_13 
REMARK    5  A    between atoms: C_5  and  C_21 
REMARK    6  A    between atoms: C_5  and  N_14 
REMARK    7  A    between atoms: C_7  and  C_22 
REMARK    8  A    between atoms: C_7  and  C_23 
REMARK    9  A    between atoms: C_16  and  C_24 
REMARK   10  A    between atoms: C_18  and  C_23 
REMARK   11  A    between atoms: C_21  and  C_24 
ROOT
HETATM    1  C           1     -21.706  -7.490  -4.254  0.00  0.00     0.274 C 
ENDROOT
BRANCH   1   2
HETATM    2  C           1     -21.274  -7.791  -2.840  0.00  0.00     0.249 C 
HETATM    3  N           1     -21.620  -8.980  -2.256  0.00  0.00    -0.344 N 
HETATM    4  H           1     -22.166  -9.657  -2.773  0.00  0.00     0.163 HD
HETATM    5  O           1     -20.622  -6.982  -2.223  0.00  0.00    -0.271 OA
BRANCH   3   6
HETATM    6  C           1     -21.205  -9.268  -0.897  0.00  0.00     0.189 C 
BRANCH   6   7
HETATM    7  C           1     -22.433  -9.550  -0.041  0.00  0.00     0.014 C 
HETATM    8  C           1     -23.106  -8.235   0.329  0.00  0.00     0.012 C 
BRANCH   7   9
HETATM    9  C           1     -23.408 -10.418  -0.825  0.00  0.00     0.002 C 
HETATM   10  C           1     -23.764 -11.651  -0.004  0.00  0.00     0.005 C 
ENDBRANCH   7   9
ENDBRANCH   6   7
BRANCH   6  11
HETATM   11  C           1     -20.301 -10.476  -0.894  0.00  0.00     0.197 C 
HETATM   12  O           1     -19.853 -10.925  -1.971  0.00  0.00    -0.646 OA
HETATM   13  O           1     -19.999 -11.028   0.186  0.00  0.00    -0.646 OA
ENDBRANCH   6  11
ENDBRANCH   3   6
ENDBRANCH   1   2
BRANCH   1  14
HETATM   14  C           1     -20.482  -7.169  -5.102  0.00  0.00     0.042 C 
BRANCH  14  15
HETATM   15  C           1     -20.555  -5.721  -5.571  0.00  0.00     0.004 C 
BRANCH  15  16
HETATM   16  C           1     -20.415  -5.671  -7.087  0.00  0.00     0.027 C 
BRANCH  16  17
HETATM   17  C           1     -20.531  -4.228  -7.561  0.00  0.00     0.229 C 
BRANCH  17  18
HETATM   18  N           1     -21.906  -3.712  -7.259  0.00  0.00    -0.079 N 
HETATM   19  H           1     -21.944  -3.384  -6.268  0.00  0.00     0.274 HD
HETATM   20  H           1     -22.127  -2.915  -7.898  0.00  0.00     0.274 HD
HETATM   21  H           1     -22.604  -4.476  -7.402  0.00  0.00     0.274 HD
ENDBRANCH  17  18
ENDBRANCH  16  17
ENDBRANCH  15  16
ENDBRANCH  14  15
ENDBRANCH   1  14
BRANCH   1  22
HETATM   22  N           1     -22.635  -6.312  -4.252  0.00  0.00    -0.067 N 
HETATM   23  H           1     -22.080  -5.431  -4.173  0.00  0.00     0.275 HD
HETATM   24  H           1     -23.184  -6.300  -5.141  0.00  0.00     0.275 HD
HETATM   25  H           1     -23.288  -6.386  -3.439  0.00  0.00     0.275 HD
ENDBRANCH   1  22
TORSDOF 11
ENDMDL
