MODEL 1
REMARK VINA RESULT:      -7.4      0.000      0.000
REMARK  7 active torsions:
REMARK  status: ('A' for Active; 'I' for Inactive)
REMARK    1  A    between atoms: C_2  and  C_5 
REMARK    2  A    between atoms: C_2  and  N_17 
REMARK    3  A    between atoms: N_4  and  C_11 
REMARK    4  A    between atoms: C_6  and  O_7 
REMARK    5  A    between atoms: C_11  and  C_23 
REMARK    6  A    between atoms: C_11  and  C_16 
REMARK    7  A    between atoms: C_14  and  C_16 
REMARK       I    between atoms: N_17  and  C_23 
ROOT
HETATM    1  C           1     -22.097  -5.174  -6.642  0.00  0.00     0.278 C 
ENDROOT
BRANCH   1   2
HETATM    2  N           1     -23.552  -4.973  -6.333  0.00  0.00    -0.066 N 
HETATM    3  H           1     -23.943  -4.239  -6.964  0.00  0.00     0.275 HD
HETATM    4  H           1     -24.066  -5.870  -6.482  0.00  0.00     0.275 HD
HETATM    5  H           1     -23.657  -4.669  -5.339  0.00  0.00     0.275 HD
ENDBRANCH   1   2
BRANCH   1   6
HETATM    6  C           1     -21.367  -5.570  -5.381  0.00  0.00     0.249 C 
HETATM    7  O           1     -20.183  -5.351  -5.275  0.00  0.00    -0.271 OA
HETATM    8  N           1     -22.045  -6.178  -4.359  0.00  0.00    -0.345 N 
HETATM    9  H           1     -23.037  -6.362  -4.449  0.00  0.00     0.163 HD
BRANCH   8  10
HETATM   10  C           1     -21.343  -6.558  -3.149  0.00  0.00     0.181 C 
HETATM   11  C           1     -22.206  -6.234  -1.937  0.00  0.00     0.043 C 
BRANCH  10  12
HETATM   12  C           1     -21.057  -8.040  -3.180  0.00  0.00     0.196 C 
HETATM   13  O           1     -21.717  -8.789  -3.933  0.00  0.00    -0.646 OA
HETATM   14  O           1     -20.160  -8.519  -2.453  0.00  0.00    -0.646 OA
ENDBRANCH  10  12
ENDBRANCH   8  10
ENDBRANCH   1   6
BRANCH   1  15
HETATM   15  C           1     -21.510  -3.878  -7.184  0.00  0.00     0.081 C 
BRANCH  15  16
HETATM   16  C           1     -21.561  -3.892  -8.680  0.00  0.00    -0.056 A 
HETATM   17  C           1     -22.752  -3.585  -9.339  0.00  0.00     0.010 A 
HETATM   18  C           1     -22.801  -3.598 -10.733  0.00  0.00     0.037 A 
HETATM   19  C           1     -21.659  -3.917 -11.467  0.00  0.00     0.065 A 
HETATM   20  C           1     -20.468  -4.224 -10.808  0.00  0.00     0.037 A 
HETATM   21  C           1     -20.420  -4.211  -9.415  0.00  0.00     0.010 A 
BRANCH  19  22
HETATM   22  O           1     -21.705  -3.930 -12.822  0.00  0.00    -0.361 OA
HETATM   23  H           1     -20.897  -4.360 -13.146  0.00  0.00     0.217 HD
ENDBRANCH  19  22
ENDBRANCH  15  16
ENDBRANCH   1  15
TORSDOF 7
ENDMDL
MODEL 2
REMARK VINA RESULT:      -6.9      2.103      7.329
REMARK  7 active torsions:
REMARK  status: ('A' for Active; 'I' for Inactive)
REMARK    1  A    between atoms: C_2  and  C_5 
REMARK    2  A    between atoms: C_2  and  N_17 
REMARK    3  A    between atoms: N_4  and  C_11 
REMARK    4  A    between atoms: C_6  and  O_7 
REMARK    5  A    between atoms: C_11  and  C_23 
REMARK    6  A    between atoms: C_11  and  C_16 
REMARK    7  A    between atoms: C_14  and  C_16 
REMARK       I    between atoms: N_17  and  C_23 
ROOT
HETATM    1  C           1     -21.058  -5.695  -6.884  0.00  0.00     0.278 C 
ENDROOT
BRANCH   1   2
HETATM    2  N           1     -19.758  -6.198  -7.439  0.00  0.00    -0.066 N 
HETATM    3  H           1     -19.143  -6.512  -6.655  0.00  0.00     0.275 HD
HETATM    4  H           1     -19.942  -7.003  -8.080  0.00  0.00     0.275 HD
HETATM    5  H           1     -19.285  -5.431  -7.966  0.00  0.00     0.275 HD
ENDBRANCH   1   2
BRANCH   1   6
HETATM    6  C           1     -21.554  -4.548  -7.730  0.00  0.00     0.249 C 
HETATM    7  O           1     -21.639  -3.440  -7.255  0.00  0.00    -0.271 OA
HETATM    8  N           1     -21.909  -4.762  -9.035  0.00  0.00    -0.345 N 
HETATM    9  H           1     -21.839  -5.691  -9.432  0.00  0.00     0.163 HD
BRANCH   8  10
HETATM   10  C           1     -22.386  -3.660  -9.847  0.00  0.00     0.181 C 
HETATM   11  C           1     -21.491  -3.504 -11.069  0.00  0.00     0.043 C 
BRANCH  10  12
HETATM   12  C           1     -23.800  -3.940 -10.292  0.00  0.00     0.196 C 
HETATM   13  O           1     -24.543  -3.000 -10.648  0.00  0.00    -0.646 OA
HETATM   14  O           1     -24.230  -5.114 -10.306  0.00  0.00    -0.646 OA
ENDBRANCH  10  12
ENDBRANCH   8  10
ENDBRANCH   1   6
BRANCH   1  15
HETATM   15  C           1     -20.848  -5.219  -5.453  0.00  0.00     0.081 C 
BRANCH  15  16
HETATM   16  C           1     -21.136  -6.340  -4.505  0.00  0.00    -0.056 A 
HETATM   17  C           1     -21.260  -7.645  -4.985  0.00  0.00     0.010 A 
HETATM   18  C           1     -21.527  -8.690  -4.102  0.00  0.00     0.037 A 
HETATM   19  C           1     -21.671  -8.432  -2.739  0.00  0.00     0.065 A 
HETATM   20  C           1     -21.546  -7.129  -2.258  0.00  0.00     0.037 A 
HETATM   21  C           1     -21.279  -6.083  -3.142  0.00  0.00     0.010 A 
BRANCH  19  22
HETATM   22  O           1     -21.931  -9.448  -1.880  0.00  0.00    -0.361 OA
HETATM   23  H           1     -22.354  -9.072  -1.090  0.00  0.00     0.217 HD
ENDBRANCH  19  22
ENDBRANCH  15  16
ENDBRANCH   1  15
TORSDOF 7
ENDMDL
MODEL 3
REMARK VINA RESULT:      -6.8      1.600      2.109
REMARK  7 active torsions:
REMARK  status: ('A' for Active; 'I' for Inactive)
REMARK    1  A    between atoms: C_2  and  C_5 
REMARK    2  A    between atoms: C_2  and  N_17 
REMARK    3  A    between atoms: N_4  and  C_11 
REMARK    4  A    between atoms: C_6  and  O_7 
REMARK    5  A    between atoms: C_11  and  C_23 
REMARK    6  A    between atoms: C_11  and  C_16 
REMARK    7  A    between atoms: C_14  and  C_16 
REMARK       I    between atoms: N_17  and  C_23 
ROOT
HETATM    1  C           1     -20.356  -5.213  -6.507  0.00  0.00     0.278 C 
ENDROOT
BRANCH   1   2
HETATM    2  N           1     -20.057  -6.105  -7.677  0.00  0.00    -0.066 N 
HETATM    3  H           1     -19.423  -5.607  -8.341  0.00  0.00     0.275 HD
HETATM    4  H           1     -19.591  -6.977  -7.339  0.00  0.00     0.275 HD
HETATM    5  H           1     -20.949  -6.350  -8.164  0.00  0.00     0.275 HD
ENDBRANCH   1   2
BRANCH   1   6
HETATM    6  C           1     -21.304  -5.919  -5.568  0.00  0.00     0.249 C 
HETATM    7  O           1     -22.483  -5.655  -5.590  0.00  0.00    -0.271 OA
HETATM    8  N           1     -20.829  -6.857  -4.691  0.00  0.00    -0.345 N 
HETATM    9  H           1     -19.841  -7.077  -4.673  0.00  0.00     0.163 HD
BRANCH   8  10
HETATM   10  C           1     -21.740  -7.534  -3.789  0.00  0.00     0.181 C 
HETATM   11  C           1     -21.373  -9.009  -3.708  0.00  0.00     0.043 C 
BRANCH  10  12
HETATM   12  C           1     -21.639  -6.915  -2.417  0.00  0.00     0.196 C 
HETATM   13  O           1     -22.280  -5.875  -2.150  0.00  0.00    -0.646 OA
HETATM   14  O           1     -20.914  -7.442  -1.545  0.00  0.00    -0.646 OA
ENDBRANCH  10  12
ENDBRANCH   8  10
ENDBRANCH   1   6
BRANCH   1  15
HETATM   15  C           1     -20.996  -3.924  -7.002  0.00  0.00     0.081 C 
BRANCH  15  16
HETATM   16  C           1     -21.347  -4.064  -8.451  0.00  0.00    -0.056 A 
HETATM   17  C           1     -20.358  -3.915  -9.424  0.00  0.00     0.010 A 
HETATM   18  C           1     -20.683  -4.046 -10.774  0.00  0.00     0.037 A 
HETATM   19  C           1     -21.997  -4.325 -11.150  0.00  0.00     0.065 A 
HETATM   20  C           1     -22.985  -4.474 -10.178  0.00  0.00     0.037 A 
HETATM   21  C           1     -22.660  -4.344  -8.828  0.00  0.00     0.010 A 
BRANCH  19  22
HETATM   22  O           1     -22.314  -4.452 -12.463  0.00  0.00    -0.361 OA
HETATM   23  H           1     -21.606  -4.958 -12.895  0.00  0.00     0.217 HD
ENDBRANCH  19  22
ENDBRANCH  15  16
ENDBRANCH   1  15
TORSDOF 7
ENDMDL
MODEL 4
REMARK VINA RESULT:      -6.6      1.718      2.219
REMARK  7 active torsions:
REMARK  status: ('A' for Active; 'I' for Inactive)
REMARK    1  A    between atoms: C_2  and  C_5 
REMARK    2  A    between atoms: C_2  and  N_17 
REMARK    3  A    between atoms: N_4  and  C_11 
REMARK    4  A    between atoms: C_6  and  O_7 
REMARK    5  A    between atoms: C_11  and  C_23 
REMARK    6  A    between atoms: C_11  and  C_16 
REMARK    7  A    between atoms: C_14  and  C_16 
REMARK       I    between atoms: N_17  and  C_23 
ROOT
HETATM    1  C           1     -21.595  -5.894  -6.663  0.00  0.00     0.278 C 
ENDROOT
BRANCH   1   2
HETATM    2  N           1     -22.597  -5.633  -5.578  0.00  0.00    -0.066 N 
HETATM    3  H           1     -23.328  -6.380  -5.592  0.00  0.00     0.275 HD
HETATM    4  H           1     -22.115  -5.635  -4.651  0.00  0.00     0.275 HD
HETATM    5  H           1     -23.048  -4.704  -5.736  0.00  0.00     0.275 HD
ENDBRANCH   1   2
BRANCH   1   6
HETATM    6  C           1     -20.531  -6.833  -6.148  0.00  0.00     0.249 C 
HETATM    7  O           1     -19.427  -6.821  -6.637  0.00  0.00    -0.271 OA
HETATM    8  N           1     -20.819  -7.700  -5.128  0.00  0.00    -0.345 N 
HETATM    9  H           1     -21.745  -7.711  -4.720  0.00  0.00     0.163 HD
BRANCH   8  10
HETATM   10  C           1     -19.797  -8.603  -4.635  0.00  0.00     0.181 C 
HETATM   11  C           1     -19.814  -8.606  -3.112  0.00  0.00     0.043 C 
BRANCH  10  12
HETATM   12  C           1     -20.072  -9.997  -5.142  0.00  0.00     0.196 C 
HETATM   13  O           1     -20.917 -10.179  -6.046  0.00  0.00    -0.646 OA
HETATM   14  O           1     -19.455 -10.971  -4.660  0.00  0.00    -0.646 OA
ENDBRANCH  10  12
ENDBRANCH   8  10
ENDBRANCH   1   6
BRANCH   1  15
HETATM   15  C           1     -20.951  -4.580  -7.085  0.00  0.00     0.081 C 
BRANCH  15  16
HETATM   16  C           1     -21.128  -4.388  -8.559  0.00  0.00    -0.056 A 
HETATM   17  C           1     -20.085  -4.700  -9.433  0.00  0.00     0.010 A 
HETATM   18  C           1     -20.249  -4.522 -10.806  0.00  0.00     0.037 A 
HETATM   19  C           1     -21.455  -4.031 -11.306  0.00  0.00     0.065 A 
HETATM   20  C           1     -22.497  -3.719 -10.434  0.00  0.00     0.037 A 
HETATM   21  C           1     -22.333  -3.897  -9.060  0.00  0.00     0.010 A 
BRANCH  19  22
HETATM   22  O           1     -21.614  -3.857 -12.641  0.00  0.00    -0.361 OA
HETATM   23  H           1     -22.470  -4.243 -12.894  0.00  0.00     0.217 HD
ENDBRANCH  19  22
ENDBRANCH  15  16
ENDBRANCH   1  15
TORSDOF 7
ENDMDL
MODEL 5
REMARK VINA RESULT:      -6.5      1.903      2.389
REMARK  7 active torsions:
REMARK  status: ('A' for Active; 'I' for Inactive)
REMARK    1  A    between atoms: C_2  and  C_5 
REMARK    2  A    between atoms: C_2  and  N_17 
REMARK    3  A    between atoms: N_4  and  C_11 
REMARK    4  A    between atoms: C_6  and  O_7 
REMARK    5  A    between atoms: C_11  and  C_23 
REMARK    6  A    between atoms: C_11  and  C_16 
REMARK    7  A    between atoms: C_14  and  C_16 
REMARK       I    between atoms: N_17  and  C_23 
ROOT
HETATM    1  C           1     -20.934  -5.353  -6.203  0.00  0.00     0.278 C 
ENDROOT
BRANCH   1   2
HETATM    2  N           1     -20.040  -4.544  -5.311  0.00  0.00    -0.066 N 
HETATM    3  H           1     -19.291  -5.158  -4.918  0.00  0.00     0.275 HD
HETATM    4  H           1     -19.602  -3.772  -5.864  0.00  0.00     0.275 HD
HETATM    5  H           1     -20.603  -4.139  -4.529  0.00  0.00     0.275 HD
ENDBRANCH   1   2
BRANCH   1   6
HETATM    6  C           1     -20.909  -6.797  -5.762  0.00  0.00     0.249 C 
HETATM    7  O           1     -21.312  -7.661  -6.503  0.00  0.00    -0.271 OA
HETATM    8  N           1     -20.431  -7.126  -4.522  0.00  0.00    -0.345 N 
HETATM    9  H           1     -20.095  -6.400  -3.901  0.00  0.00     0.163 HD
BRANCH   8  10
HETATM   10  C           1     -20.408  -8.512  -4.099  0.00  0.00     0.181 C 
HETATM   11  C           1     -18.990  -9.054  -4.210  0.00  0.00     0.043 C 
BRANCH  10  12
HETATM   12  C           1     -20.870  -8.606  -2.665  0.00  0.00     0.196 C 
HETATM   13  O           1     -20.342  -7.889  -1.789  0.00  0.00    -0.646 OA
HETATM   14  O           1     -21.783  -9.402  -2.354  0.00  0.00    -0.646 OA
ENDBRANCH  10  12
ENDBRANCH   8  10
ENDBRANCH   1   6
BRANCH   1  15
HETATM   15  C           1     -20.442  -5.252  -7.640  0.00  0.00     0.081 C 
BRANCH  15  16
HETATM   16  C           1     -21.521  -4.669  -8.499  0.00  0.00    -0.056 A 
HETATM   17  C           1     -22.777  -4.400  -7.953  0.00  0.00     0.010 A 
HETATM   18  C           1     -23.782  -3.856  -8.752  0.00  0.00     0.037 A 
HETATM   19  C           1     -23.531  -3.581 -10.096  0.00  0.00     0.065 A 
HETATM   20  C           1     -22.276  -3.849 -10.642  0.00  0.00     0.037 A 
HETATM   21  C           1     -21.271  -4.393  -9.843  0.00  0.00     0.010 A 
BRANCH  19  22
HETATM   22  O           1     -24.508  -3.052 -10.874  0.00  0.00    -0.361 OA
HETATM   23  H           1     -24.789  -3.734 -11.508  0.00  0.00     0.217 HD
ENDBRANCH  19  22
ENDBRANCH  15  16
ENDBRANCH   1  15
TORSDOF 7
ENDMDL
MODEL 6
REMARK VINA RESULT:      -6.3      2.517      7.730
REMARK  7 active torsions:
REMARK  status: ('A' for Active; 'I' for Inactive)
REMARK    1  A    between atoms: C_2  and  C_5 
REMARK    2  A    between atoms: C_2  and  N_17 
REMARK    3  A    between atoms: N_4  and  C_11 
REMARK    4  A    between atoms: C_6  and  O_7 
REMARK    5  A    between atoms: C_11  and  C_23 
REMARK    6  A    between atoms: C_11  and  C_16 
REMARK    7  A    between atoms: C_14  and  C_16 
REMARK       I    between atoms: N_17  and  C_23 
ROOT
HETATM    1  C           1     -21.501  -7.872  -4.978  0.00  0.00     0.278 C 
ENDROOT
BRANCH   1   2
HETATM    2  N           1     -21.148  -8.912  -6.001  0.00  0.00    -0.066 N 
HETATM    3  H           1     -21.142  -8.478  -6.951  0.00  0.00     0.275 HD
HETATM    4  H           1     -20.201  -9.300  -5.790  0.00  0.00     0.275 HD
HETATM    5  H           1     -21.855  -9.681  -5.974  0.00  0.00     0.275 HD
ENDBRANCH   1   2
BRANCH   1   6
HETATM    6  C           1     -21.382  -6.500  -5.597  0.00  0.00     0.249 C 
HETATM    7  O           1     -22.110  -5.608  -5.230  0.00  0.00    -0.271 OA
HETATM    8  N           1     -20.453  -6.267  -6.574  0.00  0.00    -0.345 N 
HETATM    9  H           1     -19.844  -7.016  -6.882  0.00  0.00     0.163 HD
BRANCH   8  10
HETATM   10  C           1     -20.340  -4.950  -7.169  0.00  0.00     0.181 C 
HETATM   11  C           1     -18.872  -4.554  -7.252  0.00  0.00     0.043 C 
BRANCH  10  12
HETATM   12  C           1     -20.933  -4.973  -8.556  0.00  0.00     0.196 C 
HETATM   13  O           1     -22.174  -4.975  -8.706  0.00  0.00    -0.646 OA
HETATM   14  O           1     -20.184  -4.991  -9.556  0.00  0.00    -0.646 OA
ENDBRANCH  10  12
ENDBRANCH   8  10
ENDBRANCH   1   6
BRANCH   1  15
HETATM   15  C           1     -20.549  -7.981  -3.795  0.00  0.00     0.081 C 
BRANCH  15  16
HETATM   16  C           1     -21.334  -7.998  -2.521  0.00  0.00    -0.056 A 
HETATM   17  C           1     -21.747  -6.798  -1.940  0.00  0.00     0.010 A 
HETATM   18  C           1     -22.479  -6.814  -0.753  0.00  0.00     0.037 A 
HETATM   19  C           1     -22.798  -8.029  -0.148  0.00  0.00     0.065 A 
HETATM   20  C           1     -22.387  -9.228  -0.728  0.00  0.00     0.037 A 
HETATM   21  C           1     -21.655  -9.213  -1.915  0.00  0.00     0.010 A 
BRANCH  19  22
HETATM   22  O           1     -23.510  -8.045   1.006  0.00  0.00    -0.361 OA
HETATM   23  H           1     -24.116  -8.804   0.975  0.00  0.00     0.217 HD
ENDBRANCH  19  22
ENDBRANCH  15  16
ENDBRANCH   1  15
TORSDOF 7
ENDMDL
MODEL 7
REMARK VINA RESULT:      -6.3     13.183     14.329
REMARK  7 active torsions:
REMARK  status: ('A' for Active; 'I' for Inactive)
REMARK    1  A    between atoms: C_2  and  C_5 
REMARK    2  A    between atoms: C_2  and  N_17 
REMARK    3  A    between atoms: N_4  and  C_11 
REMARK    4  A    between atoms: C_6  and  O_7 
REMARK    5  A    between atoms: C_11  and  C_23 
REMARK    6  A    between atoms: C_11  and  C_16 
REMARK    7  A    between atoms: C_14  and  C_16 
REMARK       I    between atoms: N_17  and  C_23 
ROOT
HETATM    1  C           1     -28.191  -7.048 -18.452  0.00  0.00     0.278 C 
ENDROOT
BRANCH   1   2
HETATM    2  N           1     -29.228  -8.001 -18.971  0.00  0.00    -0.066 N 
HETATM    3  H           1     -29.607  -7.645 -19.877  0.00  0.00     0.275 HD
HETATM    4  H           1     -28.793  -8.940 -19.120  0.00  0.00     0.275 HD
HETATM    5  H           1     -30.005  -8.082 -18.277  0.00  0.00     0.275 HD
ENDBRANCH   1   2
BRANCH   1   6
HETATM    6  C           1     -28.841  -6.069 -17.504  0.00  0.00     0.249 C 
HETATM    7  O           1     -28.924  -6.332 -16.328  0.00  0.00    -0.271 OA
HETATM    8  N           1     -29.336  -4.883 -17.977  0.00  0.00    -0.345 N 
HETATM    9  H           1     -29.266  -4.663 -18.963  0.00  0.00     0.163 HD
BRANCH   8  10
HETATM   10  C           1     -29.960  -3.944 -17.066  0.00  0.00     0.181 C 
HETATM   11  C           1     -29.411  -2.547 -17.322  0.00  0.00     0.043 C 
BRANCH  10  12
HETATM   12  C           1     -31.452  -3.945 -17.289  0.00  0.00     0.196 C 
HETATM   13  O           1     -32.009  -2.954 -17.808  0.00  0.00    -0.646 OA
HETATM   14  O           1     -32.133  -4.939 -16.954  0.00  0.00    -0.646 OA
ENDBRANCH  10  12
ENDBRANCH   8  10
ENDBRANCH   1   6
BRANCH   1  15
HETATM   15  C           1     -27.570  -6.292 -19.618  0.00  0.00     0.081 C 
BRANCH  15  16
HETATM   16  C           1     -26.235  -6.885 -19.945  0.00  0.00    -0.056 A 
HETATM   17  C           1     -25.175  -6.752 -19.048  0.00  0.00     0.010 A 
HETATM   18  C           1     -23.931  -7.305 -19.352  0.00  0.00     0.037 A 
HETATM   19  C           1     -23.748  -7.991 -20.552  0.00  0.00     0.065 A 
HETATM   20  C           1     -24.808  -8.125 -21.448  0.00  0.00     0.037 A 
HETATM   21  C           1     -26.052  -7.572 -21.145  0.00  0.00     0.010 A 
BRANCH  19  22
HETATM   22  O           1     -22.539  -8.529 -20.848  0.00  0.00    -0.361 OA
HETATM   23  H           1     -22.206  -8.974 -20.051  0.00  0.00     0.217 HD
ENDBRANCH  19  22
ENDBRANCH  15  16
ENDBRANCH   1  15
TORSDOF 7
ENDMDL
MODEL 8
REMARK VINA RESULT:      -6.1      2.761      3.918
REMARK  7 active torsions:
REMARK  status: ('A' for Active; 'I' for Inactive)
REMARK    1  A    between atoms: C_2  and  C_5 
REMARK    2  A    between atoms: C_2  and  N_17 
REMARK    3  A    between atoms: N_4  and  C_11 
REMARK    4  A    between atoms: C_6  and  O_7 
REMARK    5  A    between atoms: C_11  and  C_23 
REMARK    6  A    between atoms: C_11  and  C_16 
REMARK    7  A    between atoms: C_14  and  C_16 
REMARK       I    between atoms: N_17  and  C_23 
ROOT
HETATM    1  C           1     -21.427  -7.257  -3.829  0.00  0.00     0.278 C 
ENDROOT
BRANCH   1   2
HETATM    2  N           1     -21.556  -8.718  -4.146  0.00  0.00    -0.066 N 
HETATM    3  H           1     -22.534  -8.924  -4.449  0.00  0.00     0.275 HD
HETATM    4  H           1     -20.894  -8.966  -4.917  0.00  0.00     0.275 HD
HETATM    5  H           1     -21.329  -9.280  -3.295  0.00  0.00     0.275 HD
ENDBRANCH   1   2
BRANCH   1   6
HETATM    6  C           1     -21.719  -7.035  -2.364  0.00  0.00     0.249 C 
HETATM    7  O           1     -22.080  -5.949  -1.978  0.00  0.00    -0.271 OA
HETATM    8  N           1     -21.572  -8.064  -1.473  0.00  0.00    -0.345 N 
HETATM    9  H           1     -21.268  -8.974  -1.797  0.00  0.00     0.163 HD
BRANCH   8  10
HETATM   10  C           1     -21.851  -7.850  -0.066  0.00  0.00     0.181 C 
HETATM   11  C           1     -23.343  -8.020   0.188  0.00  0.00     0.043 C 
BRANCH  10  12
HETATM   12  C           1     -21.084  -8.857   0.756  0.00  0.00     0.196 C 
HETATM   13  O           1     -20.758  -8.587   1.931  0.00  0.00    -0.646 OA
HETATM   14  O           1     -20.775  -9.962   0.260  0.00  0.00    -0.646 OA
ENDBRANCH  10  12
ENDBRANCH   8  10
ENDBRANCH   1   6
BRANCH   1  15
HETATM   15  C           1     -22.420  -6.466  -4.670  0.00  0.00     0.081 C 
BRANCH  15  16
HETATM   16  C           1     -21.680  -5.668  -5.697  0.00  0.00    -0.056 A 
HETATM   17  C           1     -22.380  -5.039  -6.727  0.00  0.00     0.010 A 
HETATM   18  C           1     -21.692  -4.294  -7.685  0.00  0.00     0.037 A 
HETATM   19  C           1     -20.304  -4.179  -7.613  0.00  0.00     0.065 A 
HETATM   20  C           1     -19.604  -4.808  -6.583  0.00  0.00     0.037 A 
HETATM   21  C           1     -20.292  -5.552  -5.626  0.00  0.00     0.010 A 
BRANCH  19  22
HETATM   22  O           1     -19.634  -3.456  -8.543  0.00  0.00    -0.361 OA
HETATM   23  H           1     -20.039  -2.574  -8.586  0.00  0.00     0.217 HD
ENDBRANCH  19  22
ENDBRANCH  15  16
ENDBRANCH   1  15
TORSDOF 7
ENDMDL
MODEL 9
REMARK VINA RESULT:      -6.0     11.386     13.616
REMARK  7 active torsions:
REMARK  status: ('A' for Active; 'I' for Inactive)
REMARK    1  A    between atoms: C_2  and  C_5 
REMARK    2  A    between atoms: C_2  and  N_17 
REMARK    3  A    between atoms: N_4  and  C_11 
REMARK    4  A    between atoms: C_6  and  O_7 
REMARK    5  A    between atoms: C_11  and  C_23 
REMARK    6  A    between atoms: C_11  and  C_16 
REMARK    7  A    between atoms: C_14  and  C_16 
REMARK       I    between atoms: N_17  and  C_23 
ROOT
HETATM    1  C           1     -27.886  -6.425 -16.127  0.00  0.00     0.278 C 
ENDROOT
BRANCH   1   2
HETATM    2  N           1     -28.326  -5.165 -15.443  0.00  0.00    -0.066 N 
HETATM    3  H           1     -28.148  -4.348 -16.070  0.00  0.00     0.275 HD
HETATM    4  H           1     -29.347  -5.223 -15.229  0.00  0.00     0.275 HD
HETATM    5  H           1     -27.788  -5.045 -14.555  0.00  0.00     0.275 HD
ENDBRANCH   1   2
BRANCH   1   6
HETATM    6  C           1     -26.491  -6.238 -16.675  0.00  0.00     0.249 C 
HETATM    7  O           1     -25.677  -5.603 -16.048  0.00  0.00    -0.271 OA
HETATM    8  N           1     -26.150  -6.786 -17.882  0.00  0.00    -0.345 N 
HETATM    9  H           1     -26.834  -7.317 -18.408  0.00  0.00     0.163 HD
BRANCH   8  10
HETATM   10  C           1     -24.811  -6.605 -18.408  0.00  0.00     0.181 C 
HETATM   11  C           1     -23.839  -7.487 -17.637  0.00  0.00     0.043 C 
BRANCH  10  12
HETATM   12  C           1     -24.790  -6.989 -19.867  0.00  0.00     0.196 C 
HETATM   13  O           1     -25.616  -6.487 -20.659  0.00  0.00    -0.646 OA
HETATM   14  O           1     -23.945  -7.810 -20.285  0.00  0.00    -0.646 OA
ENDBRANCH  10  12
ENDBRANCH   8  10
ENDBRANCH   1   6
BRANCH   1  15
HETATM   15  C           1     -28.842  -6.743 -17.268  0.00  0.00     0.081 C 
BRANCH  15  16
HETATM   16  C           1     -29.907  -5.694 -17.336  0.00  0.00    -0.056 A 
HETATM   17  C           1     -29.616  -4.439 -17.873  0.00  0.00     0.010 A 
HETATM   18  C           1     -30.607  -3.461 -17.937  0.00  0.00     0.037 A 
HETATM   19  C           1     -31.890  -3.737 -17.464  0.00  0.00     0.065 A 
HETATM   20  C           1     -32.182  -4.991 -16.928  0.00  0.00     0.037 A 
HETATM   21  C           1     -31.190  -5.969 -16.864  0.00  0.00     0.010 A 
BRANCH  19  22
HETATM   22  O           1     -32.855  -2.786 -17.526  0.00  0.00    -0.361 OA
HETATM   23  H           1     -32.895  -2.459 -18.440  0.00  0.00     0.217 HD
ENDBRANCH  19  22
ENDBRANCH  15  16
ENDBRANCH   1  15
TORSDOF 7
ENDMDL
