MODEL 1
REMARK VINA RESULT:      -6.1      0.000      0.000
REMARK  9 active torsions:
REMARK  status: ('A' for Active; 'I' for Inactive)
REMARK    1  A    between atoms: C_1  and  C_7 
REMARK    2  A    between atoms: C_1  and  C_11 
REMARK    3  A    between atoms: N_5  and  C_17 
REMARK       I    between atoms: N_5  and  C_6 
REMARK    4  A    between atoms: C_6  and  C_7 
REMARK    5  A    between atoms: C_7  and  N_14 
REMARK    6  A    between atoms: C_9  and  C_18 
REMARK    7  A    between atoms: C_11  and  S_12 
REMARK    8  A    between atoms: C_17  and  C_23 
REMARK    9  A    between atoms: C_17  and  C_18 
ROOT
HETATM    1  N           1     -28.361  -7.449 -17.039  0.00  0.00    -0.344 N 
HETATM    2  C           1     -27.540  -7.155 -15.984  0.00  0.00     0.249 C 
HETATM    3  O           1     -27.789  -7.588 -14.885  0.00  0.00    -0.271 OA
HETATM    4  H           1     -28.186  -8.272 -17.602  0.00  0.00     0.163 HD
ENDROOT
BRANCH   1   5
HETATM    5  C           1     -29.481  -6.582 -17.350  0.00  0.00     0.191 C 
BRANCH   5   6
HETATM    6  C           1     -30.623  -7.410 -17.889  0.00  0.00     0.197 C 
HETATM    7  O           1     -31.793  -7.181 -17.512  0.00  0.00    -0.646 OA
HETATM    8  O           1     -30.399  -8.324 -18.711  0.00  0.00    -0.646 OA
ENDBRANCH   5   6
BRANCH   5   9
HETATM    9  C           1     -29.056  -5.561 -18.397  0.00  0.00     0.094 C 
BRANCH   9  10
HETATM   10  C           1     -29.355  -4.182 -17.897  0.00  0.00     0.028 A 
HETATM   11  N           1     -28.429  -3.336 -17.343  0.00  0.00    -0.354 N 
HETATM   12  C           1     -29.092  -2.243 -17.044  0.00  0.00     0.180 A 
ATOM     13  HN          1     -27.436  -3.517 -17.195  1.00  0.00     0.166 HD
HETATM   14  N           1     -30.410  -2.350 -17.383  0.00  0.00    -0.360 N 
HETATM   15  C           1     -30.594  -3.588 -17.933  0.00  0.00     0.114 A 
HETATM   16  H           1     -31.147  -1.615 -17.248  0.00  0.00     0.166 HD
ENDBRANCH   9  10
ENDBRANCH   5   9
ENDBRANCH   1   5
BRANCH   2  17
HETATM   17  C           1     -26.322  -6.288 -16.195  0.00  0.00     0.275 C 
BRANCH  17  18
HETATM   18  C           1     -25.904  -6.349 -17.659  0.00  0.00     0.053 C 
BRANCH  18  19
HETATM   19  C           1     -24.601  -7.126 -17.783  0.00  0.00     0.076 C 
BRANCH  19  20
HETATM   20  S           1     -24.148  -7.275 -19.534  0.00  0.00    -0.173 SA
HETATM   21  C           1     -25.791  -6.884 -20.199  0.00  0.00     0.089 C 
ENDBRANCH  19  20
ENDBRANCH  18  19
ENDBRANCH  17  18
BRANCH  17  22
HETATM   22  N           1     -25.200  -6.786 -15.334  0.00  0.00    -0.066 N 
HETATM   23  H           1     -24.917  -6.038 -14.662  0.00  0.00     0.275 HD
HETATM   24  H           1     -25.517  -7.629 -14.803  0.00  0.00     0.275 HD
HETATM   25  H           1     -24.385  -7.040 -15.936  0.00  0.00     0.275 HD
ENDBRANCH  17  22
ENDBRANCH   2  17
TORSDOF 9
ENDMDL
MODEL 2
REMARK VINA RESULT:      -6.1      2.039      2.692
REMARK  9 active torsions:
REMARK  status: ('A' for Active; 'I' for Inactive)
REMARK    1  A    between atoms: C_1  and  C_7 
REMARK    2  A    between atoms: C_1  and  C_11 
REMARK    3  A    between atoms: N_5  and  C_17 
REMARK       I    between atoms: N_5  and  C_6 
REMARK    4  A    between atoms: C_6  and  C_7 
REMARK    5  A    between atoms: C_7  and  N_14 
REMARK    6  A    between atoms: C_9  and  C_18 
REMARK    7  A    between atoms: C_11  and  S_12 
REMARK    8  A    between atoms: C_17  and  C_23 
REMARK    9  A    between atoms: C_17  and  C_18 
ROOT
HETATM    1  N           1     -27.134  -7.138 -16.727  0.00  0.00    -0.344 N 
HETATM    2  C           1     -25.840  -6.999 -16.300  0.00  0.00     0.249 C 
HETATM    3  O           1     -25.576  -7.101 -15.127  0.00  0.00    -0.271 OA
HETATM    4  H           1     -27.486  -8.050 -16.988  0.00  0.00     0.163 HD
ENDROOT
BRANCH   1   5
HETATM    5  C           1     -28.000  -5.978 -16.805  0.00  0.00     0.191 C 
BRANCH   5   6
HETATM    6  C           1     -28.430  -5.577 -15.415  0.00  0.00     0.197 C 
HETATM    7  O           1     -29.123  -6.358 -14.726  0.00  0.00    -0.646 OA
HETATM    8  O           1     -28.096  -4.465 -14.953  0.00  0.00    -0.646 OA
ENDBRANCH   5   6
BRANCH   5   9
HETATM    9  C           1     -29.229  -6.318 -17.638  0.00  0.00     0.094 C 
BRANCH   9  10
HETATM   10  C           1     -30.231  -5.212 -17.522  0.00  0.00     0.028 A 
HETATM   11  N           1     -31.451  -5.328 -16.905  0.00  0.00    -0.354 N 
HETATM   12  C           1     -32.012  -4.147 -17.023  0.00  0.00     0.180 A 
ATOM     13  HN          1     -31.839  -6.155 -16.452  1.00  0.00     0.166 HD
HETATM   14  N           1     -31.203  -3.273 -17.690  0.00  0.00    -0.360 N 
HETATM   15  C           1     -30.056  -3.942 -18.017  0.00  0.00     0.114 A 
HETATM   16  H           1     -31.421  -2.270 -17.911  0.00  0.00     0.166 HD
ENDBRANCH   9  10
ENDBRANCH   5   9
ENDBRANCH   1   5
BRANCH   2  17
HETATM   17  C           1     -24.743  -6.719 -17.299  0.00  0.00     0.275 C 
BRANCH  17  18
HETATM   18  C           1     -25.314  -6.782 -18.710  0.00  0.00     0.053 C 
BRANCH  18  19
HETATM   19  C           1     -24.275  -7.375 -19.652  0.00  0.00     0.076 C 
BRANCH  19  20
HETATM   20  S           1     -25.086  -7.925 -21.180  0.00  0.00    -0.173 SA
HETATM   21  C           1     -23.564  -8.144 -22.146  0.00  0.00     0.089 C 
ENDBRANCH  19  20
ENDBRANCH  18  19
ENDBRANCH  17  18
BRANCH  17  22
HETATM   22  N           1     -23.661  -7.746 -17.152  0.00  0.00    -0.066 N 
HETATM   23  H           1     -24.079  -8.653 -16.841  0.00  0.00     0.275 HD
HETATM   24  H           1     -23.183  -7.882 -18.072  0.00  0.00     0.275 HD
HETATM   25  H           1     -22.966  -7.422 -16.443  0.00  0.00     0.275 HD
ENDBRANCH  17  22
ENDBRANCH   2  17
TORSDOF 9
ENDMDL
MODEL 3
REMARK VINA RESULT:      -6.0      9.324     10.488
REMARK  9 active torsions:
REMARK  status: ('A' for Active; 'I' for Inactive)
REMARK    1  A    between atoms: C_1  and  C_7 
REMARK    2  A    between atoms: C_1  and  C_11 
REMARK    3  A    between atoms: N_5  and  C_17 
REMARK       I    between atoms: N_5  and  C_6 
REMARK    4  A    between atoms: C_6  and  C_7 
REMARK    5  A    between atoms: C_7  and  N_14 
REMARK    6  A    between atoms: C_9  and  C_18 
REMARK    7  A    between atoms: C_11  and  S_12 
REMARK    8  A    between atoms: C_17  and  C_23 
REMARK    9  A    between atoms: C_17  and  C_18 
ROOT
HETATM    1  N           1     -35.182  -1.541 -10.528  0.00  0.00    -0.344 N 
HETATM    2  C           1     -34.089  -2.297 -10.855  0.00  0.00     0.249 C 
HETATM    3  O           1     -32.978  -1.883 -10.625  0.00  0.00    -0.271 OA
HETATM    4  H           1     -35.610  -1.638  -9.615  0.00  0.00     0.163 HD
ENDROOT
BRANCH   1   5
HETATM    5  C           1     -35.728  -0.602 -11.488  0.00  0.00     0.191 C 
BRANCH   5   6
HETATM    6  C           1     -37.136  -0.234 -11.087  0.00  0.00     0.197 C 
HETATM    7  O           1     -38.075  -1.033 -11.298  0.00  0.00    -0.646 OA
HETATM    8  O           1     -37.364   0.869 -10.545  0.00  0.00    -0.646 OA
ENDBRANCH   5   6
BRANCH   5   9
HETATM    9  C           1     -35.745  -1.242 -12.870  0.00  0.00     0.094 C 
BRANCH   9  10
HETATM   10  C           1     -35.886  -0.176 -13.911  0.00  0.00     0.028 A 
HETATM   11  N           1     -34.940   0.779 -14.183  0.00  0.00    -0.354 N 
HETATM   12  C           1     -35.449   1.507 -15.150  0.00  0.00     0.180 A 
ATOM     13  HN          1     -34.034   0.898 -13.730  1.00  0.00     0.166 HD
HETATM   14  N           1     -36.687   1.060 -15.513  0.00  0.00    -0.360 N 
HETATM   15  C           1     -36.981  -0.020 -14.728  0.00  0.00     0.114 A 
HETATM   16  H           1     -37.300   1.470 -16.260  0.00  0.00     0.166 HD
ENDBRANCH   9  10
ENDBRANCH   5   9
ENDBRANCH   1   5
BRANCH   2  17
HETATM   17  C           1     -34.273  -3.648 -11.502  0.00  0.00     0.275 C 
BRANCH  17  18
HETATM   18  C           1     -33.929  -4.742 -10.499  0.00  0.00     0.053 C 
BRANCH  18  19
HETATM   19  C           1     -34.303  -6.099 -11.080  0.00  0.00     0.076 C 
BRANCH  19  20
HETATM   20  S           1     -34.965  -7.160  -9.765  0.00  0.00    -0.173 SA
HETATM   21  C           1     -33.898  -8.589 -10.105  0.00  0.00     0.089 C 
ENDBRANCH  19  20
ENDBRANCH  18  19
ENDBRANCH  17  18
BRANCH  17  22
HETATM   22  N           1     -33.367  -3.759 -12.692  0.00  0.00    -0.066 N 
HETATM   23  H           1     -32.822  -2.873 -12.799  0.00  0.00     0.275 HD
HETATM   24  H           1     -32.707  -4.558 -12.554  0.00  0.00     0.275 HD
HETATM   25  H           1     -33.938  -3.923 -13.551  0.00  0.00     0.275 HD
ENDBRANCH  17  22
ENDBRANCH   2  17
TORSDOF 9
ENDMDL
MODEL 4
REMARK VINA RESULT:      -5.9      8.539     10.456
REMARK  9 active torsions:
REMARK  status: ('A' for Active; 'I' for Inactive)
REMARK    1  A    between atoms: C_1  and  C_7 
REMARK    2  A    between atoms: C_1  and  C_11 
REMARK    3  A    between atoms: N_5  and  C_17 
REMARK       I    between atoms: N_5  and  C_6 
REMARK    4  A    between atoms: C_6  and  C_7 
REMARK    5  A    between atoms: C_7  and  N_14 
REMARK    6  A    between atoms: C_9  and  C_18 
REMARK    7  A    between atoms: C_11  and  S_12 
REMARK    8  A    between atoms: C_17  and  C_23 
REMARK    9  A    between atoms: C_17  and  C_18 
ROOT
HETATM    1  N           1     -33.356  -2.879 -11.694  0.00  0.00    -0.344 N 
HETATM    2  C           1     -34.112  -2.069 -10.891  0.00  0.00     0.249 C 
HETATM    3  O           1     -33.825  -1.933  -9.726  0.00  0.00    -0.271 OA
HETATM    4  H           1     -32.564  -2.497 -12.196  0.00  0.00     0.163 HD
ENDROOT
BRANCH   1   5
HETATM    5  C           1     -33.688  -4.285 -11.825  0.00  0.00     0.191 C 
BRANCH   5   6
HETATM    6  C           1     -34.430  -4.507 -13.120  0.00  0.00     0.197 C 
HETATM    7  O           1     -34.314  -3.686 -14.056  0.00  0.00    -0.646 OA
HETATM    8  O           1     -35.161  -5.511 -13.257  0.00  0.00    -0.646 OA
ENDBRANCH   5   6
BRANCH   5   9
HETATM    9  C           1     -34.569  -4.708 -10.656  0.00  0.00     0.094 C 
BRANCH   9  10
HETATM   10  C           1     -34.369  -6.167 -10.385  0.00  0.00     0.028 A 
HETATM   11  N           1     -33.360  -6.928 -10.917  0.00  0.00    -0.354 N 
HETATM   12  C           1     -33.543  -8.135 -10.433  0.00  0.00     0.180 A 
ATOM     13  HN          1     -32.623  -6.621 -11.552  1.00  0.00     0.166 HD
HETATM   14  N           1     -34.631  -8.183  -9.610  0.00  0.00    -0.360 N 
HETATM   15  C           1     -35.172  -6.927  -9.568  0.00  0.00     0.114 A 
HETATM   16  H           1     -34.987  -9.029  -9.101  0.00  0.00     0.166 HD
ENDBRANCH   9  10
ENDBRANCH   5   9
ENDBRANCH   1   5
BRANCH   2  17
HETATM   17  C           1     -35.307  -1.343 -11.462  0.00  0.00     0.275 C 
BRANCH  17  18
HETATM   18  C           1     -34.848  -0.405 -12.572  0.00  0.00     0.053 C 
BRANCH  18  19
HETATM   19  C           1     -36.062   0.132 -13.317  0.00  0.00     0.076 C 
BRANCH  19  20
HETATM   20  S           1     -35.598   0.523 -15.027  0.00  0.00    -0.173 SA
HETATM   21  C           1     -37.055  -0.230 -15.806  0.00  0.00     0.089 C 
ENDBRANCH  19  20
ENDBRANCH  18  19
ENDBRANCH  17  18
BRANCH  17  22
HETATM   22  N           1     -35.973  -0.548 -10.380  0.00  0.00    -0.066 N 
HETATM   23  H           1     -35.327   0.205 -10.051  0.00  0.00     0.275 HD
HETATM   24  H           1     -36.849  -0.116 -10.754  0.00  0.00     0.275 HD
HETATM   25  H           1     -36.209  -1.177  -9.580  0.00  0.00     0.275 HD
ENDBRANCH  17  22
ENDBRANCH   2  17
TORSDOF 9
ENDMDL
MODEL 5
REMARK VINA RESULT:      -5.8     11.040     13.179
REMARK  9 active torsions:
REMARK  status: ('A' for Active; 'I' for Inactive)
REMARK    1  A    between atoms: C_1  and  C_7 
REMARK    2  A    between atoms: C_1  and  C_11 
REMARK    3  A    between atoms: N_5  and  C_17 
REMARK       I    between atoms: N_5  and  C_6 
REMARK    4  A    between atoms: C_6  and  C_7 
REMARK    5  A    between atoms: C_7  and  N_14 
REMARK    6  A    between atoms: C_9  and  C_18 
REMARK    7  A    between atoms: C_11  and  S_12 
REMARK    8  A    between atoms: C_17  and  C_23 
REMARK    9  A    between atoms: C_17  and  C_18 
ROOT
HETATM    1  N           1     -20.702  -5.396  -6.561  0.00  0.00    -0.344 N 
HETATM    2  C           1     -20.571  -6.698  -6.159  0.00  0.00     0.249 C 
HETATM    3  O           1     -19.546  -7.299  -6.378  0.00  0.00    -0.271 OA
HETATM    4  H           1     -20.427  -4.645  -5.941  0.00  0.00     0.163 HD
ENDROOT
BRANCH   1   5
HETATM    5  C           1     -21.235  -5.094  -7.875  0.00  0.00     0.191 C 
BRANCH   5   6
HETATM    6  C           1     -20.154  -4.472  -8.725  0.00  0.00     0.197 C 
HETATM    7  O           1     -20.016  -4.824  -9.917  0.00  0.00    -0.646 OA
HETATM    8  O           1     -19.396  -3.606  -8.238  0.00  0.00    -0.646 OA
ENDBRANCH   5   6
BRANCH   5   9
HETATM    9  C           1     -22.397  -4.119  -7.739  0.00  0.00     0.094 C 
BRANCH   9  10
HETATM   10  C           1     -23.228  -4.156  -8.983  0.00  0.00     0.028 A 
HETATM   11  N           1     -22.996  -4.985 -10.051  0.00  0.00    -0.354 N 
HETATM   12  C           1     -23.940  -4.704 -10.919  0.00  0.00     0.180 A 
ATOM     13  HN          1     -22.250  -5.674 -10.148  1.00  0.00     0.166 HD
HETATM   14  N           1     -24.772  -3.726 -10.455  0.00  0.00    -0.360 N 
HETATM   15  C           1     -24.328  -3.365  -9.213  0.00  0.00     0.114 A 
HETATM   16  H           1     -25.601  -3.327 -10.959  0.00  0.00     0.166 HD
ENDBRANCH   9  10
ENDBRANCH   5   9
ENDBRANCH   1   5
BRANCH   2  17
HETATM   17  C           1     -21.708  -7.383  -5.439  0.00  0.00     0.275 C 
BRANCH  17  18
HETATM   18  C           1     -22.235  -6.471  -4.339  0.00  0.00     0.053 C 
BRANCH  18  19
HETATM   19  C           1     -21.284  -6.507  -3.150  0.00  0.00     0.076 C 
BRANCH  19  20
HETATM   20  S           1     -22.242  -6.563  -1.610  0.00  0.00    -0.173 SA
HETATM   21  C           1     -21.644  -8.188  -1.062  0.00  0.00     0.089 C 
ENDBRANCH  19  20
ENDBRANCH  18  19
ENDBRANCH  17  18
BRANCH  17  22
HETATM   22  N           1     -21.215  -8.663  -4.833  0.00  0.00    -0.066 N 
HETATM   23  H           1     -21.609  -9.475  -5.362  0.00  0.00     0.275 HD
HETATM   24  H           1     -20.170  -8.692  -4.881  0.00  0.00     0.275 HD
HETATM   25  H           1     -21.519  -8.717  -3.835  0.00  0.00     0.275 HD
ENDBRANCH  17  22
ENDBRANCH   2  17
TORSDOF 9
ENDMDL
MODEL 6
REMARK VINA RESULT:      -5.7      2.734      5.699
REMARK  9 active torsions:
REMARK  status: ('A' for Active; 'I' for Inactive)
REMARK    1  A    between atoms: C_1  and  C_7 
REMARK    2  A    between atoms: C_1  and  C_11 
REMARK    3  A    between atoms: N_5  and  C_17 
REMARK       I    between atoms: N_5  and  C_6 
REMARK    4  A    between atoms: C_6  and  C_7 
REMARK    5  A    between atoms: C_7  and  N_14 
REMARK    6  A    between atoms: C_9  and  C_18 
REMARK    7  A    between atoms: C_11  and  S_12 
REMARK    8  A    between atoms: C_17  and  C_23 
REMARK    9  A    between atoms: C_17  and  C_18 
ROOT
HETATM    1  N           1     -27.069  -6.121 -16.767  0.00  0.00    -0.344 N 
HETATM    2  C           1     -28.279  -6.674 -16.446  0.00  0.00     0.249 C 
HETATM    3  O           1     -28.504  -7.017 -15.311  0.00  0.00    -0.271 OA
HETATM    4  H           1     -26.938  -5.118 -16.708  0.00  0.00     0.163 HD
ENDROOT
BRANCH   1   5
HETATM    5  C           1     -25.973  -6.970 -17.193  0.00  0.00     0.191 C 
BRANCH   5   6
HETATM    6  C           1     -25.021  -7.178 -16.041  0.00  0.00     0.197 C 
HETATM    7  O           1     -24.164  -8.087 -16.095  0.00  0.00    -0.646 OA
HETATM    8  O           1     -25.089  -6.443 -15.033  0.00  0.00    -0.646 OA
ENDBRANCH   5   6
BRANCH   5   9
HETATM    9  C           1     -25.236  -6.305 -18.348  0.00  0.00     0.094 C 
BRANCH   9  10
HETATM   10  C           1     -25.403  -7.129 -19.587  0.00  0.00     0.028 A 
HETATM   11  N           1     -26.610  -7.424 -20.169  0.00  0.00    -0.354 N 
HETATM   12  C           1     -26.317  -8.156 -21.219  0.00  0.00     0.180 A 
ATOM     13  HN          1     -27.536  -7.136 -19.854  1.00  0.00     0.166 HD
HETATM   14  N           1     -24.970  -8.345 -21.338  0.00  0.00    -0.360 N 
HETATM   15  C           1     -24.370  -7.691 -20.298  0.00  0.00     0.114 A 
HETATM   16  H           1     -24.485  -8.892 -22.091  0.00  0.00     0.166 HD
ENDBRANCH   9  10
ENDBRANCH   5   9
ENDBRANCH   1   5
BRANCH   2  17
HETATM   17  C           1     -29.333  -6.853 -17.512  0.00  0.00     0.275 C 
BRANCH  17  18
HETATM   18  C           1     -30.686  -6.415 -16.967  0.00  0.00     0.053 C 
BRANCH  18  19
HETATM   19  C           1     -30.635  -4.936 -16.611  0.00  0.00     0.076 C 
BRANCH  19  20
HETATM   20  S           1     -30.069  -3.986 -18.050  0.00  0.00    -0.173 SA
HETATM   21  C           1     -28.828  -3.001 -17.163  0.00  0.00     0.089 C 
ENDBRANCH  19  20
ENDBRANCH  18  19
ENDBRANCH  17  18
BRANCH  17  22
HETATM   22  N           1     -29.399  -8.298 -17.909  0.00  0.00    -0.066 N 
HETATM   23  H           1     -30.268  -8.728 -17.519  0.00  0.00     0.275 HD
HETATM   24  H           1     -29.413  -8.371 -18.953  0.00  0.00     0.275 HD
HETATM   25  H           1     -28.563  -8.801 -17.536  0.00  0.00     0.275 HD
ENDBRANCH  17  22
ENDBRANCH   2  17
TORSDOF 9
ENDMDL
MODEL 7
REMARK VINA RESULT:      -5.5     12.443     14.959
REMARK  9 active torsions:
REMARK  status: ('A' for Active; 'I' for Inactive)
REMARK    1  A    between atoms: C_1  and  C_7 
REMARK    2  A    between atoms: C_1  and  C_11 
REMARK    3  A    between atoms: N_5  and  C_17 
REMARK       I    between atoms: N_5  and  C_6 
REMARK    4  A    between atoms: C_6  and  C_7 
REMARK    5  A    between atoms: C_7  and  N_14 
REMARK    6  A    between atoms: C_9  and  C_18 
REMARK    7  A    between atoms: C_11  and  S_12 
REMARK    8  A    between atoms: C_17  and  C_23 
REMARK    9  A    between atoms: C_17  and  C_18 
ROOT
HETATM    1  N           1     -20.823  -7.618  -5.928  0.00  0.00    -0.344 N 
HETATM    2  C           1     -20.393  -6.474  -6.544  0.00  0.00     0.249 C 
HETATM    3  O           1     -19.492  -6.521  -7.346  0.00  0.00    -0.271 OA
HETATM    4  H           1     -21.563  -8.170  -6.344  0.00  0.00     0.163 HD
ENDROOT
BRANCH   1   5
HETATM    5  C           1     -20.220  -8.040  -4.679  0.00  0.00     0.191 C 
BRANCH   5   6
HETATM    6  C           1     -19.140  -9.056  -4.960  0.00  0.00     0.197 C 
HETATM    7  O           1     -18.230  -9.248  -4.123  0.00  0.00    -0.646 OA
HETATM    8  O           1     -19.154  -9.704  -6.028  0.00  0.00    -0.646 OA
ENDBRANCH   5   6
BRANCH   5   9
HETATM    9  C           1     -21.285  -8.664  -3.787  0.00  0.00     0.094 C 
BRANCH   9  10
HETATM   10  C           1     -21.696  -7.680  -2.736  0.00  0.00     0.028 A 
HETATM   11  N           1     -21.917  -7.993  -1.419  0.00  0.00    -0.354 N 
HETATM   12  C           1     -22.253  -6.860  -0.846  0.00  0.00     0.180 A 
ATOM     13  HN          1     -21.837  -8.909  -0.979  1.00  0.00     0.166 HD
HETATM   14  N           1     -22.258  -5.829  -1.741  0.00  0.00    -0.360 N 
HETATM   15  C           1     -21.901  -6.339  -2.959  0.00  0.00     0.114 A 
HETATM   16  H           1     -22.491  -4.827  -1.532  0.00  0.00     0.166 HD
ENDBRANCH   9  10
ENDBRANCH   5   9
ENDBRANCH   1   5
BRANCH   2  17
HETATM   17  C           1     -21.047  -5.152  -6.221  0.00  0.00     0.275 C 
BRANCH  17  18
HETATM   18  C           1     -21.285  -4.375  -7.509  0.00  0.00     0.053 C 
BRANCH  18  19
HETATM   19  C           1     -22.778  -4.318  -7.800  0.00  0.00     0.076 C 
BRANCH  19  20
HETATM   20  S           1     -23.050  -4.389  -9.593  0.00  0.00    -0.173 SA
HETATM   21  C           1     -24.528  -3.335  -9.612  0.00  0.00     0.089 C 
ENDBRANCH  19  20
ENDBRANCH  18  19
ENDBRANCH  17  18
BRANCH  17  22
HETATM   22  N           1     -20.149  -4.359  -5.318  0.00  0.00    -0.066 N 
HETATM   23  H           1     -19.557  -5.011  -4.755  0.00  0.00     0.275 HD
HETATM   24  H           1     -19.533  -3.741  -5.895  0.00  0.00     0.275 HD
HETATM   25  H           1     -20.728  -3.773  -4.677  0.00  0.00     0.275 HD
ENDBRANCH  17  22
ENDBRANCH   2  17
TORSDOF 9
ENDMDL
MODEL 8
REMARK VINA RESULT:      -5.5     11.931     14.065
REMARK  9 active torsions:
REMARK  status: ('A' for Active; 'I' for Inactive)
REMARK    1  A    between atoms: C_1  and  C_7 
REMARK    2  A    between atoms: C_1  and  C_11 
REMARK    3  A    between atoms: N_5  and  C_17 
REMARK       I    between atoms: N_5  and  C_6 
REMARK    4  A    between atoms: C_6  and  C_7 
REMARK    5  A    between atoms: C_7  and  N_14 
REMARK    6  A    between atoms: C_9  and  C_18 
REMARK    7  A    between atoms: C_11  and  S_12 
REMARK    8  A    between atoms: C_17  and  C_23 
REMARK    9  A    between atoms: C_17  and  C_18 
ROOT
HETATM    1  N           1     -21.863  -6.920  -6.155  0.00  0.00    -0.344 N 
HETATM    2  C           1     -22.362  -6.449  -4.971  0.00  0.00     0.249 C 
HETATM    3  O           1     -23.521  -6.121  -4.890  0.00  0.00    -0.271 OA
HETATM    4  H           1     -21.893  -7.911  -6.358  0.00  0.00     0.163 HD
ENDROOT
BRANCH   1   5
HETATM    5  C           1     -21.293  -5.999  -7.119  0.00  0.00     0.191 C 
BRANCH   5   6
HETATM    6  C           1     -19.795  -5.946  -6.938  0.00  0.00     0.197 C 
HETATM    7  O           1     -19.199  -4.848  -6.990  0.00  0.00    -0.646 OA
HETATM    8  O           1     -19.152  -6.998  -6.738  0.00  0.00    -0.646 OA
ENDBRANCH   5   6
BRANCH   5   9
HETATM    9  C           1     -21.880  -4.611  -6.904  0.00  0.00     0.094 C 
BRANCH   9  10
HETATM   10  C           1     -22.609  -4.181  -8.138  0.00  0.00     0.028 A 
HETATM   11  N           1     -23.961  -3.961  -8.208  0.00  0.00    -0.354 N 
HETATM   12  C           1     -24.190  -3.603  -9.451  0.00  0.00     0.180 A 
ATOM     13  HN          1     -24.643  -4.056  -7.456  1.00  0.00     0.166 HD
HETATM   14  N           1     -23.039  -3.582 -10.185  0.00  0.00    -0.360 N 
HETATM   15  C           1     -22.016  -3.949  -9.356  0.00  0.00     0.114 A 
HETATM   16  H           1     -22.956  -3.328 -11.200  0.00  0.00     0.166 HD
ENDBRANCH   9  10
ENDBRANCH   5   9
ENDBRANCH   1   5
BRANCH   2  17
HETATM   17  C           1     -21.460  -6.338  -3.764  0.00  0.00     0.275 C 
BRANCH  17  18
HETATM   18  C           1     -20.771  -7.675  -3.522  0.00  0.00     0.053 C 
BRANCH  18  19
HETATM   19  C           1     -21.105  -8.172  -2.122  0.00  0.00     0.076 C 
BRANCH  19  20
HETATM   20  S           1     -20.347  -9.800  -1.861  0.00  0.00    -0.173 SA
HETATM   21  C           1     -21.013 -10.065  -0.193  0.00  0.00     0.089 C 
ENDBRANCH  19  20
ENDBRANCH  18  19
ENDBRANCH  17  18
BRANCH  17  22
HETATM   22  N           1     -22.279  -5.973  -2.562  0.00  0.00    -0.066 N 
HETATM   23  H           1     -23.295  -6.061  -2.791  0.00  0.00     0.275 HD
HETATM   24  H           1     -22.044  -6.618  -1.772  0.00  0.00     0.275 HD
HETATM   25  H           1     -22.069  -4.989  -2.282  0.00  0.00     0.275 HD
ENDBRANCH  17  22
ENDBRANCH   2  17
TORSDOF 9
ENDMDL
MODEL 9
REMARK VINA RESULT:      -5.5     11.259     13.331
REMARK  9 active torsions:
REMARK  status: ('A' for Active; 'I' for Inactive)
REMARK    1  A    between atoms: C_1  and  C_7 
REMARK    2  A    between atoms: C_1  and  C_11 
REMARK    3  A    between atoms: N_5  and  C_17 
REMARK       I    between atoms: N_5  and  C_6 
REMARK    4  A    between atoms: C_6  and  C_7 
REMARK    5  A    between atoms: C_7  and  N_14 
REMARK    6  A    between atoms: C_9  and  C_18 
REMARK    7  A    between atoms: C_11  and  S_12 
REMARK    8  A    between atoms: C_17  and  C_23 
REMARK    9  A    between atoms: C_17  and  C_18 
ROOT
HETATM    1  N           1     -22.146  -5.215  -6.037  0.00  0.00    -0.344 N 
HETATM    2  C           1     -21.530  -6.007  -5.105  0.00  0.00     0.249 C 
HETATM    3  O           1     -20.649  -5.554  -4.415  0.00  0.00    -0.271 OA
HETATM    4  H           1     -22.967  -4.680  -5.783  0.00  0.00     0.163 HD
ENDROOT
BRANCH   1   5
HETATM    5  C           1     -21.623  -5.144  -7.387  0.00  0.00     0.191 C 
BRANCH   5   6
HETATM    6  C           1     -20.127  -5.348  -7.359  0.00  0.00     0.197 C 
HETATM    7  O           1     -19.651  -6.496  -7.500  0.00  0.00    -0.646 OA
HETATM    8  O           1     -19.366  -4.372  -7.193  0.00  0.00    -0.646 OA
ENDBRANCH   5   6
BRANCH   5   9
HETATM    9  C           1     -21.936  -3.776  -7.980  0.00  0.00     0.094 C 
BRANCH   9  10
HETATM   10  C           1     -23.055  -3.906  -8.967  0.00  0.00     0.028 A 
HETATM   11  N           1     -24.265  -3.269  -8.861  0.00  0.00    -0.354 N 
HETATM   12  C           1     -24.949  -3.647  -9.917  0.00  0.00     0.180 A 
ATOM     13  HN          1     -24.569  -2.637  -8.121  1.00  0.00     0.166 HD
HETATM   14  N           1     -24.227  -4.501 -10.700  0.00  0.00    -0.360 N 
HETATM   15  C           1     -23.009  -4.677 -10.104  0.00  0.00     0.114 A 
HETATM   16  H           1     -24.549  -4.942 -11.597  0.00  0.00     0.166 HD
ENDBRANCH   9  10
ENDBRANCH   5   9
ENDBRANCH   1   5
BRANCH   2  17
HETATM   17  C           1     -21.954  -7.446  -4.940  0.00  0.00     0.275 C 
BRANCH  17  18
HETATM   18  C           1     -21.654  -7.904  -3.518  0.00  0.00     0.053 C 
BRANCH  18  19
HETATM   19  C           1     -20.931  -9.243  -3.557  0.00  0.00     0.076 C 
BRANCH  19  20
HETATM   20  S           1     -19.411  -9.141  -2.572  0.00  0.00    -0.173 SA
HETATM   21  C           1     -18.262  -9.437  -3.946  0.00  0.00     0.089 C 
ENDBRANCH  19  20
ENDBRANCH  18  19
ENDBRANCH  17  18
BRANCH  17  22
HETATM   22  N           1     -21.197  -8.303  -5.910  0.00  0.00    -0.066 N 
HETATM   23  H           1     -21.837  -9.024  -6.313  0.00  0.00     0.275 HD
HETATM   24  H           1     -20.819  -7.706  -6.680  0.00  0.00     0.275 HD
HETATM   25  H           1     -20.407  -8.776  -5.416  0.00  0.00     0.275 HD
ENDBRANCH  17  22
ENDBRANCH   2  17
TORSDOF 9
ENDMDL
