MODEL 1
REMARK VINA RESULT:      -6.6      0.000      0.000
REMARK  6 active torsions:
REMARK  status: ('A' for Active; 'I' for Inactive)
REMARK    1  A    between atoms: C_2  and  C_17 
REMARK       I    between atoms: C_4  and  N_11 
REMARK    2  A    between atoms: C_4  and  C_5 
REMARK    3  A    between atoms: C_5  and  C_13 
REMARK    4  A    between atoms: C_5  and  N_19 
REMARK    5  A    between atoms: N_11  and  C_17 
REMARK    6  A    between atoms: C_13  and  C_16 
ROOT
HETATM    1  C           1     -35.061  -1.791 -12.685  0.00  0.00     0.278 C 
ENDROOT
BRANCH   1   2
HETATM    2  C           1     -35.080  -0.332 -13.068  0.00  0.00     0.249 C 
HETATM    3  N           1     -35.038   0.031 -14.388  0.00  0.00    -0.349 N 
HETATM    4  H           1     -34.994  -0.681 -15.107  0.00  0.00     0.163 HD
HETATM    5  O           1     -35.132   0.518 -12.210  0.00  0.00    -0.271 OA
BRANCH   3   6
HETATM    6  C           1     -35.057   1.433 -14.756  0.00  0.00     0.235 C 
BRANCH   6   7
HETATM    7  C           1     -36.071   1.652 -15.851  0.00  0.00     0.191 C 
HETATM    8  O           1     -36.069   2.720 -16.500  0.00  0.00    -0.647 OA
HETATM    9  O           1     -36.914   0.765 -16.109  0.00  0.00    -0.647 OA
ENDBRANCH   6   7
ENDBRANCH   3   6
ENDBRANCH   1   2
BRANCH   1  10
HETATM   10  C           1     -34.068  -2.006 -11.550  0.00  0.00     0.081 C 
BRANCH  10  11
HETATM   11  C           1     -33.878  -3.473 -11.324  0.00  0.00    -0.056 A 
HETATM   12  C           1     -32.708  -4.099 -11.754  0.00  0.00     0.007 A 
HETATM   13  C           1     -32.532  -5.467 -11.544  0.00  0.00     0.001 A 
HETATM   14  C           1     -33.525  -6.209 -10.903  0.00  0.00     0.000 A 
HETATM   15  C           1     -34.694  -5.581 -10.473  0.00  0.00     0.001 A 
HETATM   16  C           1     -34.871  -4.214 -10.684  0.00  0.00     0.007 A 
ENDBRANCH  10  11
ENDBRANCH   1  10
BRANCH   1  17
HETATM   17  N           1     -34.651  -2.613 -13.870  0.00  0.00    -0.066 N 
HETATM   18  H           1     -35.105  -3.552 -13.816  0.00  0.00     0.275 HD
HETATM   19  H           1     -33.612  -2.728 -13.872  0.00  0.00     0.275 HD
HETATM   20  H           1     -34.949  -2.133 -14.749  0.00  0.00     0.275 HD
ENDBRANCH   1  17
TORSDOF 6
ENDMDL
MODEL 2
REMARK VINA RESULT:      -6.6     14.094     16.203
REMARK  6 active torsions:
REMARK  status: ('A' for Active; 'I' for Inactive)
REMARK    1  A    between atoms: C_2  and  C_17 
REMARK       I    between atoms: C_4  and  N_11 
REMARK    2  A    between atoms: C_4  and  C_5 
REMARK    3  A    between atoms: C_5  and  C_13 
REMARK    4  A    between atoms: C_5  and  N_19 
REMARK    5  A    between atoms: N_11  and  C_17 
REMARK    6  A    between atoms: C_13  and  C_16 
ROOT
HETATM    1  C           1     -22.257  -5.179  -6.748  0.00  0.00     0.278 C 
ENDROOT
BRANCH   1   2
HETATM    2  C           1     -21.419  -5.603  -5.568  0.00  0.00     0.249 C 
HETATM    3  N           1     -21.834  -6.634  -4.768  0.00  0.00    -0.349 N 
HETATM    4  H           1     -22.703  -7.112  -4.968  0.00  0.00     0.163 HD
HETATM    5  O           1     -20.381  -5.033  -5.328  0.00  0.00    -0.271 OA
BRANCH   3   6
HETATM    6  C           1     -21.027  -7.041  -3.634  0.00  0.00     0.235 C 
BRANCH   6   7
HETATM    7  C           1     -21.814  -6.847  -2.361  0.00  0.00     0.191 C 
HETATM    8  O           1     -21.695  -7.663  -1.422  0.00  0.00    -0.647 OA
HETATM    9  O           1     -22.585  -5.869  -2.246  0.00  0.00    -0.647 OA
ENDBRANCH   6   7
ENDBRANCH   3   6
ENDBRANCH   1   2
BRANCH   1  10
HETATM   10  C           1     -21.664  -3.921  -7.368  0.00  0.00     0.081 C 
BRANCH  10  11
HETATM   11  C           1     -21.630  -4.065  -8.857  0.00  0.00    -0.056 A 
HETATM   12  C           1     -22.821  -4.162  -9.576  0.00  0.00     0.007 A 
HETATM   13  C           1     -22.788  -4.299 -10.964  0.00  0.00     0.001 A 
HETATM   14  C           1     -21.565  -4.337 -11.633  0.00  0.00     0.000 A 
HETATM   15  C           1     -20.374  -4.240 -10.913  0.00  0.00     0.001 A 
HETATM   16  C           1     -20.406  -4.104  -9.526  0.00  0.00     0.007 A 
ENDBRANCH  10  11
ENDBRANCH   1  10
BRANCH   1  17
HETATM   17  N           1     -23.658  -4.898  -6.291  0.00  0.00    -0.066 N 
HETATM   18  H           1     -24.032  -5.731  -5.783  0.00  0.00     0.275 HD
HETATM   19  H           1     -24.261  -4.695  -7.119  0.00  0.00     0.275 HD
HETATM   20  H           1     -23.657  -4.072  -5.651  0.00  0.00     0.275 HD
ENDBRANCH   1  17
TORSDOF 6
ENDMDL
MODEL 3
REMARK VINA RESULT:      -6.5     12.925     14.685
REMARK  6 active torsions:
REMARK  status: ('A' for Active; 'I' for Inactive)
REMARK    1  A    between atoms: C_2  and  C_17 
REMARK       I    between atoms: C_4  and  N_11 
REMARK    2  A    between atoms: C_4  and  C_5 
REMARK    3  A    between atoms: C_5  and  C_13 
REMARK    4  A    between atoms: C_5  and  N_19 
REMARK    5  A    between atoms: N_11  and  C_17 
REMARK    6  A    between atoms: C_13  and  C_16 
ROOT
HETATM    1  C           1     -21.104  -5.419  -7.015  0.00  0.00     0.278 C 
ENDROOT
BRANCH   1   2
HETATM    2  C           1     -22.414  -4.758  -7.362  0.00  0.00     0.249 C 
HETATM    3  N           1     -22.616  -4.256  -8.621  0.00  0.00    -0.349 N 
HETATM    4  H           1     -21.885  -4.328  -9.317  0.00  0.00     0.163 HD
HETATM    5  O           1     -23.287  -4.672  -6.531  0.00  0.00    -0.271 OA
BRANCH   3   6
HETATM    6  C           1     -23.876  -3.622  -8.955  0.00  0.00     0.235 C 
BRANCH   6   7
HETATM    7  C           1     -24.034  -3.576 -10.454  0.00  0.00     0.191 C 
HETATM    8  O           1     -25.118  -3.210 -10.958  0.00  0.00    -0.647 OA
HETATM    9  O           1     -23.081  -3.905 -11.194  0.00  0.00    -0.647 OA
ENDBRANCH   6   7
ENDBRANCH   3   6
ENDBRANCH   1   2
BRANCH   1  10
HETATM   10  C           1     -20.728  -5.080  -5.578  0.00  0.00     0.081 C 
BRANCH  10  11
HETATM   11  C           1     -20.981  -6.267  -4.702  0.00  0.00    -0.056 A 
HETATM   12  C           1     -21.284  -6.086  -3.352  0.00  0.00     0.007 A 
HETATM   13  C           1     -21.518  -7.192  -2.536  0.00  0.00     0.001 A 
HETATM   14  C           1     -21.450  -8.480  -3.069  0.00  0.00     0.000 A 
HETATM   15  C           1     -21.147  -8.660  -4.418  0.00  0.00     0.001 A 
HETATM   16  C           1     -20.912  -7.554  -5.235  0.00  0.00     0.007 A 
ENDBRANCH  10  11
ENDBRANCH   1  10
BRANCH   1  17
HETATM   17  N           1     -20.033  -4.923  -7.941  0.00  0.00    -0.066 N 
HETATM   18  H           1     -19.668  -4.008  -7.592  0.00  0.00     0.275 HD
HETATM   19  H           1     -20.432  -4.797  -8.898  0.00  0.00     0.275 HD
HETATM   20  H           1     -19.254  -5.618  -7.977  0.00  0.00     0.275 HD
ENDBRANCH   1  17
TORSDOF 6
ENDMDL
MODEL 4
REMARK VINA RESULT:      -6.5     14.616     17.106
REMARK  6 active torsions:
REMARK  status: ('A' for Active; 'I' for Inactive)
REMARK    1  A    between atoms: C_2  and  C_17 
REMARK       I    between atoms: C_4  and  N_11 
REMARK    2  A    between atoms: C_4  and  C_5 
REMARK    3  A    between atoms: C_5  and  C_13 
REMARK    4  A    between atoms: C_5  and  N_19 
REMARK    5  A    between atoms: N_11  and  C_17 
REMARK    6  A    between atoms: C_13  and  C_16 
ROOT
HETATM    1  C           1     -20.481  -6.160  -5.404  0.00  0.00     0.278 C 
ENDROOT
BRANCH   1   2
HETATM    2  C           1     -21.559  -6.178  -4.350  0.00  0.00     0.249 C 
HETATM    3  N           1     -21.220  -6.171  -3.022  0.00  0.00    -0.349 N 
HETATM    4  H           1     -20.245  -6.154  -2.750  0.00  0.00     0.163 HD
HETATM    5  O           1     -22.722  -6.199  -4.675  0.00  0.00    -0.271 OA
BRANCH   3   6
HETATM    6  C           1     -22.257  -6.188  -2.009  0.00  0.00     0.235 C 
BRANCH   6   7
HETATM    7  C           1     -21.977  -7.294  -1.022  0.00  0.00     0.191 C 
HETATM    8  O           1     -22.833  -7.597  -0.164  0.00  0.00    -0.647 OA
HETATM    9  O           1     -20.888  -7.908  -1.063  0.00  0.00    -0.647 OA
ENDBRANCH   6   7
ENDBRANCH   3   6
ENDBRANCH   1   2
BRANCH   1  10
HETATM   10  C           1     -20.180  -4.720  -5.800  0.00  0.00     0.081 C 
BRANCH  10  11
HETATM   11  C           1     -20.675  -4.470  -7.190  0.00  0.00    -0.056 A 
HETATM   12  C           1     -19.813  -4.628  -8.276  0.00  0.00     0.007 A 
HETATM   13  C           1     -20.274  -4.394  -9.571  0.00  0.00     0.001 A 
HETATM   14  C           1     -21.596  -4.004  -9.782  0.00  0.00     0.000 A 
HETATM   15  C           1     -22.457  -3.846  -8.696  0.00  0.00     0.001 A 
HETATM   16  C           1     -21.997  -4.079  -7.401  0.00  0.00     0.007 A 
ENDBRANCH  10  11
ENDBRANCH   1  10
BRANCH   1  17
HETATM   17  N           1     -20.948  -6.922  -6.609  0.00  0.00    -0.066 N 
HETATM   18  H           1     -21.960  -6.723  -6.775  0.00  0.00     0.275 HD
HETATM   19  H           1     -20.815  -7.945  -6.446  0.00  0.00     0.275 HD
HETATM   20  H           1     -20.393  -6.627  -7.444  0.00  0.00     0.275 HD
ENDBRANCH   1  17
TORSDOF 6
ENDMDL
MODEL 5
REMARK VINA RESULT:      -6.4     10.296     11.559
REMARK  6 active torsions:
REMARK  status: ('A' for Active; 'I' for Inactive)
REMARK    1  A    between atoms: C_2  and  C_17 
REMARK       I    between atoms: C_4  and  N_11 
REMARK    2  A    between atoms: C_4  and  C_5 
REMARK    3  A    between atoms: C_5  and  C_13 
REMARK    4  A    between atoms: C_5  and  N_19 
REMARK    5  A    between atoms: N_11  and  C_17 
REMARK    6  A    between atoms: C_13  and  C_16 
ROOT
HETATM    1  C           1     -26.396  -6.626 -16.897  0.00  0.00     0.278 C 
ENDROOT
BRANCH   1   2
HETATM    2  C           1     -25.323  -6.807 -17.941  0.00  0.00     0.249 C 
HETATM    3  N           1     -25.668  -6.983 -19.255  0.00  0.00    -0.349 N 
HETATM    4  H           1     -26.643  -6.991 -19.525  0.00  0.00     0.163 HD
HETATM    5  O           1     -24.159  -6.798 -17.619  0.00  0.00    -0.271 OA
BRANCH   3   6
HETATM    6  C           1     -24.636  -7.156 -20.258  0.00  0.00     0.235 C 
BRANCH   6   7
HETATM    7  C           1     -25.180  -7.975 -21.403  0.00  0.00     0.191 C 
HETATM    8  O           1     -26.302  -8.517 -21.306  0.00  0.00    -0.647 OA
HETATM    9  O           1     -24.507  -8.112 -22.448  0.00  0.00    -0.647 OA
ENDBRANCH   6   7
ENDBRANCH   3   6
ENDBRANCH   1   2
BRANCH   1  10
HETATM   10  C           1     -27.202  -5.371 -17.207  0.00  0.00     0.081 C 
BRANCH  10  11
HETATM   11  C           1     -28.659  -5.709 -17.246  0.00  0.00    -0.056 A 
HETATM   12  C           1     -29.071  -6.969 -17.683  0.00  0.00     0.007 A 
HETATM   13  C           1     -30.429  -7.283 -17.721  0.00  0.00     0.001 A 
HETATM   14  C           1     -31.376  -6.340 -17.321  0.00  0.00     0.000 A 
HETATM   15  C           1     -30.963  -5.081 -16.884  0.00  0.00     0.001 A 
HETATM   16  C           1     -29.605  -4.766 -16.847  0.00  0.00     0.007 A 
ENDBRANCH  10  11
ENDBRANCH   1  10
BRANCH   1  17
HETATM   17  N           1     -25.760  -6.489 -15.545  0.00  0.00    -0.066 N 
HETATM   18  H           1     -25.226  -5.592 -15.502  0.00  0.00     0.275 HD
HETATM   19  H           1     -25.109  -7.291 -15.384  0.00  0.00     0.275 HD
HETATM   20  H           1     -26.501  -6.489 -14.809  0.00  0.00     0.275 HD
ENDBRANCH   1  17
TORSDOF 6
ENDMDL
MODEL 6
REMARK VINA RESULT:      -6.4      9.252     10.367
REMARK  6 active torsions:
REMARK  status: ('A' for Active; 'I' for Inactive)
REMARK    1  A    between atoms: C_2  and  C_17 
REMARK       I    between atoms: C_4  and  N_11 
REMARK    2  A    between atoms: C_4  and  C_5 
REMARK    3  A    between atoms: C_5  and  C_13 
REMARK    4  A    between atoms: C_5  and  N_19 
REMARK    5  A    between atoms: N_11  and  C_17 
REMARK    6  A    between atoms: C_13  and  C_16 
ROOT
HETATM    1  C           1     -27.667  -6.077 -17.770  0.00  0.00     0.278 C 
ENDROOT
BRANCH   1   2
HETATM    2  C           1     -28.420  -4.830 -17.379  0.00  0.00     0.249 C 
HETATM    3  N           1     -29.667  -4.593 -17.895  0.00  0.00    -0.349 N 
HETATM    4  H           1     -30.082  -5.255 -18.538  0.00  0.00     0.163 HD
HETATM    5  O           1     -27.924  -4.040 -16.611  0.00  0.00    -0.271 OA
BRANCH   3   6
HETATM    6  C           1     -30.391  -3.395 -17.519  0.00  0.00     0.235 C 
BRANCH   6   7
HETATM    7  C           1     -31.846  -3.732 -17.305  0.00  0.00     0.191 C 
HETATM    8  O           1     -32.165  -4.834 -16.808  0.00  0.00    -0.647 OA
HETATM    9  O           1     -32.732  -2.910 -17.625  0.00  0.00    -0.647 OA
ENDBRANCH   6   7
ENDBRANCH   3   6
ENDBRANCH   1   2
BRANCH   1  10
HETATM   10  C           1     -27.685  -6.230 -19.285  0.00  0.00     0.081 C 
BRANCH  10  11
HETATM   11  C           1     -26.390  -6.822 -19.743  0.00  0.00    -0.056 A 
HETATM   12  C           1     -26.327  -7.508 -20.957  0.00  0.00     0.007 A 
HETATM   13  C           1     -25.120  -8.061 -21.383  0.00  0.00     0.001 A 
HETATM   14  C           1     -23.975  -7.927 -20.598  0.00  0.00     0.000 A 
HETATM   15  C           1     -24.038  -7.241 -19.385  0.00  0.00     0.001 A 
HETATM   16  C           1     -25.245  -6.689 -18.958  0.00  0.00     0.007 A 
ENDBRANCH  10  11
ENDBRANCH   1  10
BRANCH   1  17
HETATM   17  N           1     -28.318  -7.272 -17.139  0.00  0.00    -0.066 N 
HETATM   18  H           1     -27.628  -8.054 -17.080  0.00  0.00     0.275 HD
HETATM   19  H           1     -29.134  -7.571 -17.720  0.00  0.00     0.275 HD
HETATM   20  H           1     -28.647  -7.025 -16.179  0.00  0.00     0.275 HD
ENDBRANCH   1  17
TORSDOF 6
ENDMDL
MODEL 7
REMARK VINA RESULT:      -6.4     14.246     16.622
REMARK  6 active torsions:
REMARK  status: ('A' for Active; 'I' for Inactive)
REMARK    1  A    between atoms: C_2  and  C_17 
REMARK       I    between atoms: C_4  and  N_11 
REMARK    2  A    between atoms: C_4  and  C_5 
REMARK    3  A    between atoms: C_5  and  C_13 
REMARK    4  A    between atoms: C_5  and  N_19 
REMARK    5  A    between atoms: N_11  and  C_17 
REMARK    6  A    between atoms: C_13  and  C_16 
ROOT
HETATM    1  C           1     -20.990  -4.967  -6.336  0.00  0.00     0.278 C 
ENDROOT
BRANCH   1   2
HETATM    2  C           1     -21.689  -5.914  -5.394  0.00  0.00     0.249 C 
HETATM    3  N           1     -20.957  -6.695  -4.539  0.00  0.00    -0.349 N 
HETATM    4  H           1     -19.947  -6.636  -4.539  0.00  0.00     0.163 HD
HETATM    5  O           1     -22.895  -5.985  -5.393  0.00  0.00    -0.271 OA
BRANCH   3   6
HETATM    6  C           1     -21.630  -7.605  -3.633  0.00  0.00     0.235 C 
BRANCH   6   7
HETATM    7  C           1     -21.679  -6.997  -2.253  0.00  0.00     0.191 C 
HETATM    8  O           1     -22.353  -5.964  -2.048  0.00  0.00    -0.647 OA
HETATM    9  O           1     -21.044  -7.526  -1.314  0.00  0.00    -0.647 OA
ENDBRANCH   6   7
ENDBRANCH   3   6
ENDBRANCH   1   2
BRANCH   1  10
HETATM   10  C           1     -20.628  -5.701  -7.621  0.00  0.00     0.081 C 
BRANCH  10  11
HETATM   11  C           1     -21.048  -4.881  -8.800  0.00  0.00    -0.056 A 
HETATM   12  C           1     -22.348  -4.382  -8.875  0.00  0.00     0.007 A 
HETATM   13  C           1     -22.739  -3.619  -9.976  0.00  0.00     0.001 A 
HETATM   14  C           1     -21.831  -3.354 -11.000  0.00  0.00     0.000 A 
HETATM   15  C           1     -20.531  -3.854 -10.924  0.00  0.00     0.001 A 
HETATM   16  C           1     -20.139  -4.617  -9.825  0.00  0.00     0.007 A 
ENDBRANCH  10  11
ENDBRANCH   1  10
BRANCH   1  17
HETATM   17  N           1     -19.740  -4.449  -5.688  0.00  0.00    -0.066 N 
HETATM   18  H           1     -19.495  -3.520  -6.098  0.00  0.00     0.275 HD
HETATM   19  H           1     -18.958  -5.121  -5.854  0.00  0.00     0.275 HD
HETATM   20  H           1     -19.898  -4.346  -4.660  0.00  0.00     0.275 HD
ENDBRANCH   1  17
TORSDOF 6
ENDMDL
MODEL 8
REMARK VINA RESULT:      -6.1     14.854     16.853
REMARK  6 active torsions:
REMARK  status: ('A' for Active; 'I' for Inactive)
REMARK    1  A    between atoms: C_2  and  C_17 
REMARK       I    between atoms: C_4  and  N_11 
REMARK    2  A    between atoms: C_4  and  C_5 
REMARK    3  A    between atoms: C_5  and  C_13 
REMARK    4  A    between atoms: C_5  and  N_19 
REMARK    5  A    between atoms: N_11  and  C_17 
REMARK    6  A    between atoms: C_13  and  C_16 
ROOT
HETATM    1  C           1     -21.110  -8.082  -4.917  0.00  0.00     0.278 C 
ENDROOT
BRANCH   1   2
HETATM    2  C           1     -20.713  -6.917  -5.790  0.00  0.00     0.249 C 
HETATM    3  N           1     -21.388  -5.729  -5.696  0.00  0.00    -0.349 N 
HETATM    4  H           1     -22.153  -5.633  -5.041  0.00  0.00     0.163 HD
HETATM    5  O           1     -19.800  -7.032  -6.573  0.00  0.00    -0.271 OA
BRANCH   3   6
HETATM    6  C           1     -21.006  -4.610  -6.535  0.00  0.00     0.235 C 
BRANCH   6   7
HETATM    7  C           1     -22.113  -4.317  -7.517  0.00  0.00     0.191 C 
HETATM    8  O           1     -21.836  -3.955  -8.681  0.00  0.00    -0.647 OA
HETATM    9  O           1     -23.308  -4.435  -7.167  0.00  0.00    -0.647 OA
ENDBRANCH   6   7
ENDBRANCH   3   6
ENDBRANCH   1   2
BRANCH   1  10
HETATM   10  C           1     -20.145  -8.189  -3.743  0.00  0.00     0.081 C 
BRANCH  10  11
HETATM   11  C           1     -20.891  -7.977  -2.463  0.00  0.00    -0.056 A 
HETATM   12  C           1     -20.802  -8.922  -1.440  0.00  0.00     0.007 A 
HETATM   13  C           1     -21.498  -8.724  -0.247  0.00  0.00     0.001 A 
HETATM   14  C           1     -22.281  -7.583  -0.076  0.00  0.00     0.000 A 
HETATM   15  C           1     -22.370  -6.639  -1.100  0.00  0.00     0.001 A 
HETATM   16  C           1     -21.675  -6.837  -2.293  0.00  0.00     0.007 A 
ENDBRANCH  10  11
ENDBRANCH   1  10
BRANCH   1  17
HETATM   17  N           1     -21.061  -9.347  -5.721  0.00  0.00    -0.066 N 
HETATM   18  H           1     -21.039  -9.112  -6.739  0.00  0.00     0.275 HD
HETATM   19  H           1     -21.908  -9.923  -5.515  0.00  0.00     0.275 HD
HETATM   20  H           1     -20.203  -9.888  -5.470  0.00  0.00     0.275 HD
ENDBRANCH   1  17
TORSDOF 6
ENDMDL
MODEL 9
REMARK VINA RESULT:      -6.1      9.894     11.104
REMARK  6 active torsions:
REMARK  status: ('A' for Active; 'I' for Inactive)
REMARK    1  A    between atoms: C_2  and  C_17 
REMARK       I    between atoms: C_4  and  N_11 
REMARK    2  A    between atoms: C_4  and  C_5 
REMARK    3  A    between atoms: C_5  and  C_13 
REMARK    4  A    between atoms: C_5  and  N_19 
REMARK    5  A    between atoms: N_11  and  C_17 
REMARK    6  A    between atoms: C_13  and  C_16 
ROOT
HETATM    1  C           1     -27.348  -6.432 -17.295  0.00  0.00     0.278 C 
ENDROOT
BRANCH   1   2
HETATM    2  C           1     -26.929  -6.331 -18.740  0.00  0.00     0.249 C 
HETATM    3  N           1     -25.653  -6.665 -19.109  0.00  0.00    -0.349 N 
HETATM    4  H           1     -24.991  -6.980 -18.411  0.00  0.00     0.163 HD
HETATM    5  O           1     -27.719  -5.954 -19.573  0.00  0.00    -0.271 OA
BRANCH   3   6
HETATM    6  C           1     -25.251  -6.568 -20.498  0.00  0.00     0.235 C 
BRANCH   6   7
HETATM    7  C           1     -25.125  -7.952 -21.084  0.00  0.00     0.191 C 
HETATM    8  O           1     -23.998  -8.479 -21.208  0.00  0.00    -0.647 OA
HETATM    9  O           1     -26.149  -8.573 -21.446  0.00  0.00    -0.647 OA
ENDBRANCH   6   7
ENDBRANCH   3   6
ENDBRANCH   1   2
BRANCH   1  10
HETATM   10  C           1     -27.668  -5.043 -16.758  0.00  0.00     0.081 C 
BRANCH  10  11
HETATM   11  C           1     -29.130  -4.768 -16.921  0.00  0.00    -0.056 A 
HETATM   12  C           1     -29.554  -3.575 -17.507  0.00  0.00     0.007 A 
HETATM   13  C           1     -30.917  -3.319 -17.657  0.00  0.00     0.001 A 
HETATM   14  C           1     -31.856  -4.256 -17.225  0.00  0.00     0.000 A 
HETATM   15  C           1     -31.430  -5.449 -16.640  0.00  0.00     0.001 A 
HETATM   16  C           1     -30.068  -5.705 -16.488  0.00  0.00     0.007 A 
ENDBRANCH  10  11
ENDBRANCH   1  10
BRANCH   1  17
HETATM   17  N           1     -26.232  -7.033 -16.492  0.00  0.00    -0.066 N 
HETATM   18  H           1     -25.905  -7.911 -16.955  0.00  0.00     0.275 HD
HETATM   19  H           1     -26.575  -7.253 -15.530  0.00  0.00     0.275 HD
HETATM   20  H           1     -25.440  -6.354 -16.433  0.00  0.00     0.275 HD
ENDBRANCH   1  17
TORSDOF 6
ENDMDL
