MODEL 1
REMARK VINA RESULT:      -6.6      0.000      0.000
REMARK  13 active torsions:
REMARK  status: ('A' for Active; 'I' for Inactive)
REMARK    1  A    between atoms: N_6  and  C_7 
REMARK    2  A    between atoms: C_7  and  C_8 
REMARK    3  A    between atoms: C_8  and  C_9 
REMARK    4  A    between atoms: C_9  and  C_10 
REMARK    5  A    between atoms: C_10  and  C_11 
REMARK    6  A    between atoms: C_11  and  C_12 
REMARK    7  A    between atoms: C_11  and  N_15 
REMARK       I    between atoms: N_15  and  C_16 
REMARK    8  A    between atoms: C_16  and  C_17 
REMARK    9  A    between atoms: C_17  and  C_18 
REMARK   10  A    between atoms: C_17  and  N_24 
REMARK   11  A    between atoms: C_18  and  O_19 
REMARK   12  A    between atoms: O_19  and  P_20 
REMARK   13  A    between atoms: P_20  and  O_21 
ROOT
HETATM    1  O           1     -34.665  -0.353 -11.746  0.00  0.00    -0.271 OA
HETATM    2  N           1     -35.354  -2.475 -11.636  0.00  0.00    -0.345 N 
HETATM    3  C           1     -35.592  -1.128 -11.690  0.00  0.00     0.251 C 
HETATM    4  H           1     -36.130  -3.123 -11.589  0.00  0.00     0.163 HD
ENDROOT
BRANCH   2   5
HETATM    5  C           1     -33.993  -2.973 -11.647  0.00  0.00     0.185 C 
BRANCH   5   6
HETATM    6  C           1     -33.809  -3.969 -10.510  0.00  0.00     0.036 C 
BRANCH   6   7
HETATM    7  C           1     -34.851  -5.073 -10.628  0.00  0.00     0.004 C 
BRANCH   7   8
HETATM    8  C           1     -34.163  -6.431 -10.574  0.00  0.00     0.027 C 
BRANCH   8   9
HETATM    9  C           1     -35.004  -7.395  -9.749  0.00  0.00     0.229 C 
BRANCH   9  10
HETATM   10  N           1     -34.220  -8.646  -9.485  0.00  0.00    -0.079 N 
HETATM   11  H           1     -34.845  -9.477  -9.590  0.00  0.00     0.274 HD
HETATM   12  H           1     -33.433  -8.713 -10.170  0.00  0.00     0.274 HD
HETATM   13  H           1     -33.837  -8.619  -8.514  0.00  0.00     0.274 HD
ENDBRANCH   9  10
ENDBRANCH   8   9
ENDBRANCH   7   8
ENDBRANCH   6   7
ENDBRANCH   5   6
BRANCH   5  14
HETATM   14  C           1     -33.718  -3.655 -12.964  0.00  0.00     0.196 C 
HETATM   15  O           1     -32.721  -4.400 -13.086  0.00  0.00    -0.646 OA
HETATM   16  O           1     -34.487  -3.475 -13.934  0.00  0.00    -0.646 OA
ENDBRANCH   5  14
ENDBRANCH   2   5
BRANCH   3  17
HETATM   17  C           1     -37.009  -0.609 -11.679  0.00  0.00     0.298 C 
BRANCH  17  18
HETATM   18  C           1     -37.343  -0.016 -13.041  0.00  0.00     0.224 C 
BRANCH  18  19
HETATM   19  O           1     -36.985  -0.926 -14.047  0.00  0.00    -0.287 OA
BRANCH  19  20
HETATM   20  P           1     -36.388  -0.282 -15.403  0.00  0.00     0.406 P 
HETATM   21  O           1     -34.919  -0.161 -15.285  0.00  0.00    -0.624 OA
HETATM   22  O           1     -36.722  -1.154 -16.552  0.00  0.00    -0.624 OA
BRANCH  20  23
HETATM   23  O           1     -37.032   1.181 -15.635  0.00  0.00    -0.300 OA
HETATM   24  H           1     -36.960   1.336 -16.561  0.00  0.00     0.223 HD
ENDBRANCH  20  23
ENDBRANCH  19  20
ENDBRANCH  18  19
ENDBRANCH  17  18
BRANCH  17  25
HETATM   25  N           1     -37.145   0.450 -10.626  0.00  0.00    -0.064 N 
HETATM   26  H           1     -37.867   0.157  -9.930  0.00  0.00     0.275 HD
HETATM   27  H           1     -36.226   0.580 -10.143  0.00  0.00     0.275 HD
HETATM   28  H           1     -37.434   1.350 -11.072  0.00  0.00     0.275 HD
ENDBRANCH  17  25
ENDBRANCH   3  17
TORSDOF 13
ENDMDL
MODEL 2
REMARK VINA RESULT:      -6.4      2.610      5.859
REMARK  13 active torsions:
REMARK  status: ('A' for Active; 'I' for Inactive)
REMARK    1  A    between atoms: N_6  and  C_7 
REMARK    2  A    between atoms: C_7  and  C_8 
REMARK    3  A    between atoms: C_8  and  C_9 
REMARK    4  A    between atoms: C_9  and  C_10 
REMARK    5  A    between atoms: C_10  and  C_11 
REMARK    6  A    between atoms: C_11  and  C_12 
REMARK    7  A    between atoms: C_11  and  N_15 
REMARK       I    between atoms: N_15  and  C_16 
REMARK    8  A    between atoms: C_16  and  C_17 
REMARK    9  A    between atoms: C_17  and  C_18 
REMARK   10  A    between atoms: C_17  and  N_24 
REMARK   11  A    between atoms: C_18  and  O_19 
REMARK   12  A    between atoms: O_19  and  P_20 
REMARK   13  A    between atoms: P_20  and  O_21 
ROOT
HETATM    1  O           1     -33.356  -1.831 -10.723  0.00  0.00    -0.271 OA
HETATM    2  N           1     -35.174  -2.048 -12.001  0.00  0.00    -0.345 N 
HETATM    3  C           1     -34.034  -2.542 -11.426  0.00  0.00     0.251 C 
HETATM    4  H           1     -35.742  -2.643 -12.591  0.00  0.00     0.163 HD
ENDROOT
BRANCH   2   5
HETATM    5  C           1     -35.567  -0.672 -11.767  0.00  0.00     0.185 C 
BRANCH   5   6
HETATM    6  C           1     -36.079  -0.063 -13.066  0.00  0.00     0.036 C 
BRANCH   6   7
HETATM    7  C           1     -34.974   0.765 -13.709  0.00  0.00     0.004 C 
BRANCH   7   8
HETATM    8  C           1     -35.170   0.789 -15.219  0.00  0.00     0.027 C 
BRANCH   8   9
HETATM    9  C           1     -36.492   0.118 -15.571  0.00  0.00     0.229 C 
BRANCH   9  10
HETATM   10  N           1     -36.392  -0.504 -16.932  0.00  0.00    -0.079 N 
HETATM   11  H           1     -35.943  -1.443 -16.853  0.00  0.00     0.274 HD
HETATM   12  H           1     -37.350  -0.608 -17.337  0.00  0.00     0.274 HD
HETATM   13  H           1     -35.815   0.107 -17.552  0.00  0.00     0.274 HD
ENDBRANCH   9  10
ENDBRANCH   8   9
ENDBRANCH   7   8
ENDBRANCH   6   7
ENDBRANCH   5   6
BRANCH   5  14
HETATM   14  C           1     -36.660  -0.632 -10.728  0.00  0.00     0.196 C 
HETATM   15  O           1     -37.814  -1.014 -11.019  0.00  0.00    -0.646 OA
HETATM   16  O           1     -36.411  -0.217  -9.575  0.00  0.00    -0.646 OA
ENDBRANCH   5  14
ENDBRANCH   2   5
BRANCH   3  17
HETATM   17  C           1     -33.625  -3.974 -11.670  0.00  0.00     0.298 C 
BRANCH  17  18
HETATM   18  C           1     -34.183  -4.441 -13.008  0.00  0.00     0.224 C 
BRANCH  18  19
HETATM   19  O           1     -33.700  -3.613 -14.031  0.00  0.00    -0.287 OA
BRANCH  19  20
HETATM   20  P           1     -34.110  -4.034 -15.536  0.00  0.00     0.406 P 
HETATM   21  O           1     -34.907  -2.949 -16.150  0.00  0.00    -0.624 OA
HETATM   22  O           1     -32.885  -4.262 -16.335  0.00  0.00    -0.624 OA
BRANCH  20  23
HETATM   23  O           1     -34.986  -5.390 -15.496  0.00  0.00    -0.300 OA
HETATM   24  H           1     -34.721  -5.829 -14.707  0.00  0.00     0.223 HD
ENDBRANCH  20  23
ENDBRANCH  19  20
ENDBRANCH  18  19
ENDBRANCH  17  18
BRANCH  17  25
HETATM   25  N           1     -34.165  -4.841 -10.573  0.00  0.00    -0.064 N 
HETATM   26  H           1     -33.397  -5.072  -9.903  0.00  0.00     0.275 HD
HETATM   27  H           1     -34.926  -4.331 -10.069  0.00  0.00     0.275 HD
HETATM   28  H           1     -34.548  -5.723 -10.982  0.00  0.00     0.275 HD
ENDBRANCH  17  25
ENDBRANCH   3  17
TORSDOF 13
ENDMDL
MODEL 3
REMARK VINA RESULT:      -6.3      9.022     11.389
REMARK  13 active torsions:
REMARK  status: ('A' for Active; 'I' for Inactive)
REMARK    1  A    between atoms: N_6  and  C_7 
REMARK    2  A    between atoms: C_7  and  C_8 
REMARK    3  A    between atoms: C_8  and  C_9 
REMARK    4  A    between atoms: C_9  and  C_10 
REMARK    5  A    between atoms: C_10  and  C_11 
REMARK    6  A    between atoms: C_11  and  C_12 
REMARK    7  A    between atoms: C_11  and  N_15 
REMARK       I    between atoms: N_15  and  C_16 
REMARK    8  A    between atoms: C_16  and  C_17 
REMARK    9  A    between atoms: C_17  and  C_18 
REMARK   10  A    between atoms: C_17  and  N_24 
REMARK   11  A    between atoms: C_18  and  O_19 
REMARK   12  A    between atoms: O_19  and  P_20 
REMARK   13  A    between atoms: P_20  and  O_21 
ROOT
HETATM    1  O           1     -27.346  -5.535 -15.758  0.00  0.00    -0.271 OA
HETATM    2  N           1     -27.567  -6.435 -17.790  0.00  0.00    -0.345 N 
HETATM    3  C           1     -26.814  -6.049 -16.714  0.00  0.00     0.251 C 
HETATM    4  H           1     -27.121  -6.866 -18.590  0.00  0.00     0.163 HD
ENDROOT
BRANCH   2   5
HETATM    5  C           1     -29.002  -6.227 -17.784  0.00  0.00     0.185 C 
BRANCH   5   6
HETATM    6  C           1     -29.332  -4.950 -18.545  0.00  0.00     0.036 C 
BRANCH   6   7
HETATM    7  C           1     -29.899  -3.915 -17.582  0.00  0.00     0.004 C 
BRANCH   7   8
HETATM    8  C           1     -30.746  -4.614 -16.527  0.00  0.00     0.027 C 
BRANCH   8   9
HETATM    9  C           1     -32.220  -4.467 -16.879  0.00  0.00     0.229 C 
BRANCH   9  10
HETATM   10  N           1     -32.865  -5.820 -16.909  0.00  0.00    -0.079 N 
HETATM   11  H           1     -33.592  -5.843 -17.660  0.00  0.00     0.274 HD
HETATM   12  H           1     -32.140  -6.547 -17.105  0.00  0.00     0.274 HD
HETATM   13  H           1     -33.313  -6.013 -15.986  0.00  0.00     0.274 HD
ENDBRANCH   9  10
ENDBRANCH   8   9
ENDBRANCH   7   8
ENDBRANCH   6   7
ENDBRANCH   5   6
BRANCH   5  14
HETATM   14  C           1     -29.681  -7.398 -18.448  0.00  0.00     0.196 C 
HETATM   15  O           1     -29.035  -8.144 -19.215  0.00  0.00    -0.646 OA
HETATM   16  O           1     -30.892  -7.624 -18.231  0.00  0.00    -0.646 OA
ENDBRANCH   5  14
ENDBRANCH   2   5
BRANCH   3  17
HETATM   17  C           1     -25.321  -6.266 -16.719  0.00  0.00     0.298 C 
BRANCH  17  18
HETATM   18  C           1     -24.948  -7.205 -17.860  0.00  0.00     0.224 C 
BRANCH  18  19
HETATM   19  O           1     -24.633  -6.453 -19.001  0.00  0.00    -0.287 OA
BRANCH  19  20
HETATM   20  P           1     -25.044  -7.111 -20.417  0.00  0.00     0.406 P 
HETATM   21  O           1     -25.052  -6.063 -21.462  0.00  0.00    -0.624 OA
HETATM   22  O           1     -24.063  -8.160 -20.776  0.00  0.00    -0.624 OA
BRANCH  20  23
HETATM   23  O           1     -26.514  -7.767 -20.301  0.00  0.00    -0.300 OA
HETATM   24  H           1     -26.369  -8.697 -20.320  0.00  0.00     0.223 HD
ENDBRANCH  20  23
ENDBRANCH  19  20
ENDBRANCH  18  19
ENDBRANCH  17  18
BRANCH  17  25
HETATM   25  N           1     -24.899  -6.872 -15.414  0.00  0.00    -0.064 N 
HETATM   26  H           1     -23.934  -6.550 -15.177  0.00  0.00     0.275 HD
HETATM   27  H           1     -25.561  -6.574 -14.662  0.00  0.00     0.275 HD
HETATM   28  H           1     -24.910  -7.914 -15.494  0.00  0.00     0.275 HD
ENDBRANCH  17  25
ENDBRANCH   3  17
TORSDOF 13
ENDMDL
MODEL 4
REMARK VINA RESULT:      -6.1     13.530     15.451
REMARK  13 active torsions:
REMARK  status: ('A' for Active; 'I' for Inactive)
REMARK    1  A    between atoms: N_6  and  C_7 
REMARK    2  A    between atoms: C_7  and  C_8 
REMARK    3  A    between atoms: C_8  and  C_9 
REMARK    4  A    between atoms: C_9  and  C_10 
REMARK    5  A    between atoms: C_10  and  C_11 
REMARK    6  A    between atoms: C_11  and  C_12 
REMARK    7  A    between atoms: C_11  and  N_15 
REMARK       I    between atoms: N_15  and  C_16 
REMARK    8  A    between atoms: C_16  and  C_17 
REMARK    9  A    between atoms: C_17  and  C_18 
REMARK   10  A    between atoms: C_17  and  N_24 
REMARK   11  A    between atoms: C_18  and  O_19 
REMARK   12  A    between atoms: O_19  and  P_20 
REMARK   13  A    between atoms: P_20  and  O_21 
ROOT
HETATM    1  O           1     -19.775  -4.488  -5.993  0.00  0.00    -0.271 OA
HETATM    2  N           1     -21.674  -5.637  -5.741  0.00  0.00    -0.345 N 
HETATM    3  C           1     -20.891  -4.723  -6.393  0.00  0.00     0.251 C 
HETATM    4  H           1     -22.609  -5.834  -6.076  0.00  0.00     0.163 HD
ENDROOT
BRANCH   2   5
HETATM    5  C           1     -21.165  -6.323  -4.569  0.00  0.00     0.185 C 
BRANCH   5   6
HETATM    6  C           1     -22.262  -6.414  -3.518  0.00  0.00     0.036 C 
BRANCH   6   7
HETATM    7  C           1     -21.684  -6.080  -2.149  0.00  0.00     0.004 C 
BRANCH   7   8
HETATM    8  C           1     -22.191  -7.086  -1.124  0.00  0.00     0.027 C 
BRANCH   8   9
HETATM    9  C           1     -21.093  -8.095  -0.816  0.00  0.00     0.229 C 
BRANCH   9  10
HETATM   10  N           1     -21.335  -9.353  -1.598  0.00  0.00    -0.079 N 
HETATM   11  H           1     -20.719  -9.361  -2.442  0.00  0.00     0.274 HD
HETATM   12  H           1     -21.117 -10.181  -0.999  0.00  0.00     0.274 HD
HETATM   13  H           1     -22.335  -9.390  -1.896  0.00  0.00     0.274 HD
ENDBRANCH   9  10
ENDBRANCH   8   9
ENDBRANCH   7   8
ENDBRANCH   6   7
ENDBRANCH   5   6
BRANCH   5  14
HETATM   14  C           1     -20.721  -7.713  -4.955  0.00  0.00     0.196 C 
HETATM   15  O           1     -19.957  -8.356  -4.203  0.00  0.00    -0.646 OA
HETATM   16  O           1     -21.116  -8.220  -6.027  0.00  0.00    -0.646 OA
ENDBRANCH   5  14
ENDBRANCH   2   5
BRANCH   3  17
HETATM   17  C           1     -21.421  -4.009  -7.612  0.00  0.00     0.298 C 
BRANCH  17  18
HETATM   18  C           1     -22.702  -4.687  -8.081  0.00  0.00     0.224 C 
BRANCH  18  19
HETATM   19  O           1     -23.556  -3.730  -8.650  0.00  0.00    -0.287 OA
BRANCH  19  20
HETATM   20  P           1     -23.792  -3.850 -10.243  0.00  0.00     0.406 P 
HETATM   21  O           1     -23.906  -5.277 -10.618  0.00  0.00    -0.624 OA
HETATM   22  O           1     -25.038  -3.141 -10.612  0.00  0.00    -0.624 OA
BRANCH  20  23
HETATM   23  O           1     -22.545  -3.187 -11.025  0.00  0.00    -0.300 OA
HETATM   24  H           1     -22.886  -2.943 -11.868  0.00  0.00     0.223 HD
ENDBRANCH  20  23
ENDBRANCH  19  20
ENDBRANCH  18  19
ENDBRANCH  17  18
BRANCH  17  25
HETATM   25  N           1     -20.398  -4.063  -8.707  0.00  0.00    -0.064 N 
HETATM   26  H           1     -20.417  -5.006  -9.155  0.00  0.00     0.275 HD
HETATM   27  H           1     -20.614  -3.331  -9.422  0.00  0.00     0.275 HD
HETATM   28  H           1     -19.449  -3.887  -8.305  0.00  0.00     0.275 HD
ENDBRANCH  17  25
ENDBRANCH   3  17
TORSDOF 13
ENDMDL
MODEL 5
REMARK VINA RESULT:      -5.7     14.801     17.438
REMARK  13 active torsions:
REMARK  status: ('A' for Active; 'I' for Inactive)
REMARK    1  A    between atoms: N_6  and  C_7 
REMARK    2  A    between atoms: C_7  and  C_8 
REMARK    3  A    between atoms: C_8  and  C_9 
REMARK    4  A    between atoms: C_9  and  C_10 
REMARK    5  A    between atoms: C_10  and  C_11 
REMARK    6  A    between atoms: C_11  and  C_12 
REMARK    7  A    between atoms: C_11  and  N_15 
REMARK       I    between atoms: N_15  and  C_16 
REMARK    8  A    between atoms: C_16  and  C_17 
REMARK    9  A    between atoms: C_17  and  C_18 
REMARK   10  A    between atoms: C_17  and  N_24 
REMARK   11  A    between atoms: C_18  and  O_19 
REMARK   12  A    between atoms: O_19  and  P_20 
REMARK   13  A    between atoms: P_20  and  O_21 
ROOT
HETATM    1  O           1     -22.040  -7.460  -4.958  0.00  0.00    -0.271 OA
HETATM    2  N           1     -21.136  -5.427  -5.151  0.00  0.00    -0.345 N 
HETATM    3  C           1     -21.535  -6.507  -4.412  0.00  0.00     0.251 C 
HETATM    4  H           1     -20.712  -4.629  -4.693  0.00  0.00     0.163 HD
ENDROOT
BRANCH   2   5
HETATM    5  C           1     -21.318  -5.424  -6.589  0.00  0.00     0.185 C 
BRANCH   5   6
HETATM    6  C           1     -21.852  -4.068  -7.030  0.00  0.00     0.036 C 
BRANCH   6   7
HETATM    7  C           1     -23.033  -4.267  -7.971  0.00  0.00     0.004 C 
BRANCH   7   8
HETATM    8  C           1     -22.610  -3.934  -9.396  0.00  0.00     0.027 C 
BRANCH   8   9
HETATM    9  C           1     -23.826  -3.979 -10.310  0.00  0.00     0.229 C 
BRANCH   9  10
HETATM   10  N           1     -25.022  -4.443  -9.533  0.00  0.00    -0.079 N 
HETATM   11  H           1     -25.631  -3.625  -9.310  0.00  0.00     0.274 HD
HETATM   12  H           1     -25.561  -5.133 -10.103  0.00  0.00     0.274 HD
HETATM   13  H           1     -24.706  -4.894  -8.645  0.00  0.00     0.274 HD
ENDBRANCH   9  10
ENDBRANCH   8   9
ENDBRANCH   7   8
ENDBRANCH   6   7
ENDBRANCH   5   6
BRANCH   5  14
HETATM   14  C           1     -19.995  -5.688  -7.264  0.00  0.00     0.196 C 
HETATM   15  O           1     -19.450  -4.791  -7.943  0.00  0.00    -0.646 OA
HETATM   16  O           1     -19.444  -6.804  -7.144  0.00  0.00    -0.646 OA
ENDBRANCH   5  14
ENDBRANCH   2   5
BRANCH   3  17
HETATM   17  C           1     -21.344  -6.510  -2.915  0.00  0.00     0.298 C 
BRANCH  17  18
HETATM   18  C           1     -21.318  -7.947  -2.409  0.00  0.00     0.224 C 
BRANCH  18  19
HETATM   19  O           1     -20.861  -7.967  -1.083  0.00  0.00    -0.287 OA
BRANCH  19  20
HETATM   20  P           1     -21.920  -8.480   0.023  0.00  0.00     0.406 P 
HETATM   21  O           1     -22.389  -9.837  -0.336  0.00  0.00    -0.624 OA
HETATM   22  O           1     -21.266  -8.518   1.351  0.00  0.00    -0.624 OA
BRANCH  20  23
HETATM   23  O           1     -23.179  -7.471   0.073  0.00  0.00    -0.300 OA
HETATM   24  H           1     -22.894  -6.750   0.608  0.00  0.00     0.223 HD
ENDBRANCH  20  23
ENDBRANCH  19  20
ENDBRANCH  18  19
ENDBRANCH  17  18
BRANCH  17  25
HETATM   25  N           1     -22.477  -5.772  -2.266  0.00  0.00    -0.064 N 
HETATM   26  H           1     -22.325  -5.740  -1.233  0.00  0.00     0.275 HD
HETATM   27  H           1     -22.519  -4.798  -2.643  0.00  0.00     0.275 HD
HETATM   28  H           1     -23.376  -6.263  -2.472  0.00  0.00     0.275 HD
ENDBRANCH  17  25
ENDBRANCH   3  17
TORSDOF 13
ENDMDL
MODEL 6
REMARK VINA RESULT:      -5.7     13.417     15.434
REMARK  13 active torsions:
REMARK  status: ('A' for Active; 'I' for Inactive)
REMARK    1  A    between atoms: N_6  and  C_7 
REMARK    2  A    between atoms: C_7  and  C_8 
REMARK    3  A    between atoms: C_8  and  C_9 
REMARK    4  A    between atoms: C_9  and  C_10 
REMARK    5  A    between atoms: C_10  and  C_11 
REMARK    6  A    between atoms: C_11  and  C_12 
REMARK    7  A    between atoms: C_11  and  N_15 
REMARK       I    between atoms: N_15  and  C_16 
REMARK    8  A    between atoms: C_16  and  C_17 
REMARK    9  A    between atoms: C_17  and  C_18 
REMARK   10  A    between atoms: C_17  and  N_24 
REMARK   11  A    between atoms: C_18  and  O_19 
REMARK   12  A    between atoms: O_19  and  P_20 
REMARK   13  A    between atoms: P_20  and  O_21 
ROOT
HETATM    1  O           1     -20.173  -6.299  -7.086  0.00  0.00    -0.271 OA
HETATM    2  N           1     -21.457  -6.382  -5.260  0.00  0.00    -0.345 N 
HETATM    3  C           1     -21.128  -5.866  -6.485  0.00  0.00     0.251 C 
HETATM    4  H           1     -22.257  -6.018  -4.757  0.00  0.00     0.163 HD
ENDROOT
BRANCH   2   5
HETATM    5  C           1     -20.661  -7.448  -4.684  0.00  0.00     0.185 C 
BRANCH   5   6
HETATM    6  C           1     -20.559  -7.247  -3.178  0.00  0.00     0.036 C 
BRANCH   6   7
HETATM    7  C           1     -21.414  -6.056  -2.764  0.00  0.00     0.004 C 
BRANCH   7   8
HETATM    8  C           1     -22.341  -6.466  -1.627  0.00  0.00     0.027 C 
BRANCH   8   9
HETATM    9  C           1     -21.735  -7.645  -0.878  0.00  0.00     0.229 C 
BRANCH   9  10
HETATM   10  N           1     -22.766  -8.245   0.031  0.00  0.00    -0.079 N 
HETATM   11  H           1     -22.756  -7.743   0.948  0.00  0.00     0.274 HD
HETATM   12  H           1     -23.710  -8.152  -0.406  0.00  0.00     0.274 HD
HETATM   13  H           1     -22.549  -9.255   0.185  0.00  0.00     0.274 HD
ENDBRANCH   9  10
ENDBRANCH   8   9
ENDBRANCH   7   8
ENDBRANCH   6   7
ENDBRANCH   5   6
BRANCH   5  14
HETATM   14  C           1     -21.316  -8.775  -4.972  0.00  0.00     0.196 C 
HETATM   15  O           1     -22.030  -9.322  -4.103  0.00  0.00    -0.646 OA
HETATM   16  O           1     -21.145  -9.330  -6.080  0.00  0.00    -0.646 OA
ENDBRANCH   5  14
ENDBRANCH   2   5
BRANCH   3  17
HETATM   17  C           1     -21.956  -4.756  -7.085  0.00  0.00     0.298 C 
BRANCH  17  18
HETATM   18  C           1     -22.203  -5.047  -8.559  0.00  0.00     0.224 C 
BRANCH  18  19
HETATM   19  O           1     -22.736  -3.907  -9.178  0.00  0.00    -0.287 OA
BRANCH  19  20
HETATM   20  P           1     -23.943  -4.166 -10.220  0.00  0.00     0.406 P 
HETATM   21  O           1     -24.374  -2.876 -10.803  0.00  0.00    -0.624 OA
HETATM   22  O           1     -23.477  -5.066 -11.299  0.00  0.00    -0.624 OA
BRANCH  20  23
HETATM   23  O           1     -25.185  -4.850  -9.448  0.00  0.00    -0.300 OA
HETATM   24  H           1     -25.847  -4.969 -10.108  0.00  0.00     0.223 HD
ENDBRANCH  20  23
ENDBRANCH  19  20
ENDBRANCH  18  19
ENDBRANCH  17  18
BRANCH  17  25
HETATM   25  N           1     -21.223  -3.456  -6.948  0.00  0.00    -0.064 N 
HETATM   26  H           1     -20.907  -3.337  -5.959  0.00  0.00     0.275 HD
HETATM   27  H           1     -20.391  -3.457  -7.582  0.00  0.00     0.275 HD
HETATM   28  H           1     -21.858  -2.668  -7.208  0.00  0.00     0.275 HD
ENDBRANCH  17  25
ENDBRANCH   3  17
TORSDOF 13
ENDMDL
MODEL 7
REMARK VINA RESULT:      -5.4     14.730     17.405
REMARK  13 active torsions:
REMARK  status: ('A' for Active; 'I' for Inactive)
REMARK    1  A    between atoms: N_6  and  C_7 
REMARK    2  A    between atoms: C_7  and  C_8 
REMARK    3  A    between atoms: C_8  and  C_9 
REMARK    4  A    between atoms: C_9  and  C_10 
REMARK    5  A    between atoms: C_10  and  C_11 
REMARK    6  A    between atoms: C_11  and  C_12 
REMARK    7  A    between atoms: C_11  and  N_15 
REMARK       I    between atoms: N_15  and  C_16 
REMARK    8  A    between atoms: C_16  and  C_17 
REMARK    9  A    between atoms: C_17  and  C_18 
REMARK   10  A    between atoms: C_17  and  N_24 
REMARK   11  A    between atoms: C_18  and  O_19 
REMARK   12  A    between atoms: O_19  and  P_20 
REMARK   13  A    between atoms: P_20  and  O_21 
ROOT
HETATM    1  O           1     -22.432  -7.275  -4.921  0.00  0.00    -0.271 OA
HETATM    2  N           1     -21.111  -5.501  -5.232  0.00  0.00    -0.345 N 
HETATM    3  C           1     -21.682  -6.459  -4.438  0.00  0.00     0.251 C 
HETATM    4  H           1     -20.483  -4.818  -4.827  0.00  0.00     0.163 HD
ENDROOT
BRANCH   2   5
HETATM    5  C           1     -21.405  -5.464  -6.651  0.00  0.00     0.185 C 
BRANCH   5   6
HETATM    6  C           1     -21.911  -4.078  -7.028  0.00  0.00     0.036 C 
BRANCH   6   7
HETATM    7  C           1     -23.205  -4.207  -7.821  0.00  0.00     0.004 C 
BRANCH   7   8
HETATM    8  C           1     -22.956  -3.808  -9.269  0.00  0.00     0.027 C 
BRANCH   8   9
HETATM    9  C           1     -24.156  -4.205 -10.119  0.00  0.00     0.229 C 
BRANCH   9  10
HETATM   10  N           1     -25.387  -3.526  -9.595  0.00  0.00    -0.079 N 
HETATM   11  H           1     -25.850  -4.141  -8.889  0.00  0.00     0.274 HD
HETATM   12  H           1     -25.120  -2.621  -9.147  0.00  0.00     0.274 HD
HETATM   13  H           1     -26.047  -3.345 -10.384  0.00  0.00     0.274 HD
ENDBRANCH   9  10
ENDBRANCH   8   9
ENDBRANCH   7   8
ENDBRANCH   6   7
ENDBRANCH   5   6
BRANCH   5  14
HETATM   14  C           1     -20.152  -5.773  -7.432  0.00  0.00     0.196 C 
HETATM   15  O           1     -19.471  -6.782  -7.148  0.00  0.00    -0.646 OA
HETATM   16  O           1     -19.794  -5.019  -8.363  0.00  0.00    -0.646 OA
ENDBRANCH   5  14
ENDBRANCH   2   5
BRANCH   3  17
HETATM   17  C           1     -21.376  -6.498  -2.961  0.00  0.00     0.298 C 
BRANCH  17  18
HETATM   18  C           1     -21.247  -7.946  -2.506  0.00  0.00     0.224 C 
BRANCH  18  19
HETATM   19  O           1     -19.904  -8.229  -2.221  0.00  0.00    -0.287 OA
BRANCH  19  20
HETATM   20  P           1     -19.178  -9.282  -3.208  0.00  0.00     0.406 P 
HETATM   21  O           1     -17.816  -9.569  -2.705  0.00  0.00    -0.624 OA
HETATM   22  O           1     -19.963 -10.536  -3.254  0.00  0.00    -0.624 OA
BRANCH  20  23
HETATM   23  O           1     -19.082  -8.653  -4.692  0.00  0.00    -0.300 OA
HETATM   24  H           1     -18.812  -9.368  -5.243  0.00  0.00     0.223 HD
ENDBRANCH  20  23
ENDBRANCH  19  20
ENDBRANCH  18  19
ENDBRANCH  17  18
BRANCH  17  25
HETATM   25  N           1     -22.486  -5.832  -2.204  0.00  0.00    -0.064 N 
HETATM   26  H           1     -22.256  -4.822  -2.067  0.00  0.00     0.275 HD
HETATM   27  H           1     -23.376  -5.917  -2.745  0.00  0.00     0.275 HD
HETATM   28  H           1     -22.599  -6.294  -1.273  0.00  0.00     0.275 HD
ENDBRANCH  17  25
ENDBRANCH   3  17
TORSDOF 13
ENDMDL
MODEL 8
REMARK VINA RESULT:      -5.4     13.801     15.773
REMARK  13 active torsions:
REMARK  status: ('A' for Active; 'I' for Inactive)
REMARK    1  A    between atoms: N_6  and  C_7 
REMARK    2  A    between atoms: C_7  and  C_8 
REMARK    3  A    between atoms: C_8  and  C_9 
REMARK    4  A    between atoms: C_9  and  C_10 
REMARK    5  A    between atoms: C_10  and  C_11 
REMARK    6  A    between atoms: C_11  and  C_12 
REMARK    7  A    between atoms: C_11  and  N_15 
REMARK       I    between atoms: N_15  and  C_16 
REMARK    8  A    between atoms: C_16  and  C_17 
REMARK    9  A    between atoms: C_17  and  C_18 
REMARK   10  A    between atoms: C_17  and  N_24 
REMARK   11  A    between atoms: C_18  and  O_19 
REMARK   12  A    between atoms: O_19  and  P_20 
REMARK   13  A    between atoms: P_20  and  O_21 
ROOT
HETATM    1  O           1     -22.971  -5.953  -5.540  0.00  0.00    -0.271 OA
HETATM    2  N           1     -20.951  -6.594  -4.837  0.00  0.00    -0.345 N 
HETATM    3  C           1     -21.771  -5.833  -5.624  0.00  0.00     0.251 C 
HETATM    4  H           1     -19.946  -6.494  -4.907  0.00  0.00     0.163 HD
ENDROOT
BRANCH   2   5
HETATM    5  C           1     -21.520  -7.545  -3.901  0.00  0.00     0.185 C 
BRANCH   5   6
HETATM    6  C           1     -20.674  -8.811  -3.886  0.00  0.00     0.036 C 
BRANCH   6   7
HETATM    7  C           1     -21.508  -9.987  -4.377  0.00  0.00     0.004 C 
BRANCH   7   8
HETATM    8  C           1     -22.362 -10.517  -3.233  0.00  0.00     0.027 C 
BRANCH   8   9
HETATM    9  C           1     -21.465 -10.882  -2.057  0.00  0.00     0.229 C 
BRANCH   9  10
HETATM   10  N           1     -21.968 -10.206  -0.815  0.00  0.00    -0.079 N 
HETATM   11  H           1     -21.698  -9.197  -0.835  0.00  0.00     0.274 HD
HETATM   12  H           1     -23.008 -10.288  -0.772  0.00  0.00     0.274 HD
HETATM   13  H           1     -21.545 -10.662   0.024  0.00  0.00     0.274 HD
ENDBRANCH   9  10
ENDBRANCH   8   9
ENDBRANCH   7   8
ENDBRANCH   6   7
ENDBRANCH   5   6
BRANCH   5  14
HETATM   14  C           1     -21.543  -6.938  -2.520  0.00  0.00     0.196 C 
HETATM   15  O           1     -20.817  -7.409  -1.618  0.00  0.00    -0.646 OA
HETATM   16  O           1     -22.289  -5.964  -2.277  0.00  0.00    -0.646 OA
ENDBRANCH   5  14
ENDBRANCH   2   5
BRANCH   3  17
HETATM   17  C           1     -21.179  -4.844  -6.598  0.00  0.00     0.298 C 
BRANCH  17  18
HETATM   18  C           1     -22.293  -4.216  -7.425  0.00  0.00     0.224 C 
BRANCH  18  19
HETATM   19  O           1     -22.198  -4.662  -8.752  0.00  0.00    -0.287 OA
BRANCH  19  20
HETATM   20  P           1     -23.360  -4.156  -9.753  0.00  0.00     0.406 P 
HETATM   21  O           1     -22.782  -3.225 -10.747  0.00  0.00    -0.624 OA
HETATM   22  O           1     -23.950  -5.321 -10.451  0.00  0.00    -0.624 OA
BRANCH  20  23
HETATM   23  O           1     -24.507  -3.397  -8.908  0.00  0.00    -0.300 OA
HETATM   24  H           1     -24.094  -3.157  -8.096  0.00  0.00     0.223 HD
ENDBRANCH  20  23
ENDBRANCH  19  20
ENDBRANCH  18  19
ENDBRANCH  17  18
BRANCH  17  25
HETATM   25  N           1     -20.219  -5.552  -7.506  0.00  0.00    -0.064 N 
HETATM   26  H           1     -19.243  -5.412  -7.158  0.00  0.00     0.275 HD
HETATM   27  H           1     -20.442  -6.573  -7.520  0.00  0.00     0.275 HD
HETATM   28  H           1     -20.303  -5.164  -8.473  0.00  0.00     0.275 HD
ENDBRANCH  17  25
ENDBRANCH   3  17
TORSDOF 13
ENDMDL
MODEL 9
REMARK VINA RESULT:      -5.3     14.144     16.208
REMARK  13 active torsions:
REMARK  status: ('A' for Active; 'I' for Inactive)
REMARK    1  A    between atoms: N_6  and  C_7 
REMARK    2  A    between atoms: C_7  and  C_8 
REMARK    3  A    between atoms: C_8  and  C_9 
REMARK    4  A    between atoms: C_9  and  C_10 
REMARK    5  A    between atoms: C_10  and  C_11 
REMARK    6  A    between atoms: C_11  and  C_12 
REMARK    7  A    between atoms: C_11  and  N_15 
REMARK       I    between atoms: N_15  and  C_16 
REMARK    8  A    between atoms: C_16  and  C_17 
REMARK    9  A    between atoms: C_17  and  C_18 
REMARK   10  A    between atoms: C_17  and  N_24 
REMARK   11  A    between atoms: C_18  and  O_19 
REMARK   12  A    between atoms: O_19  and  P_20 
REMARK   13  A    between atoms: P_20  and  O_21 
ROOT
HETATM    1  O           1     -20.881  -5.286  -4.717  0.00  0.00    -0.271 OA
HETATM    2  N           1     -20.127  -6.917  -6.043  0.00  0.00    -0.345 N 
HETATM    3  C           1     -20.576  -5.641  -5.831  0.00  0.00     0.251 C 
HETATM    4  H           1     -19.871  -7.215  -6.976  0.00  0.00     0.163 HD
ENDROOT
BRANCH   2   5
HETATM    5  C           1     -20.019  -7.842  -4.932  0.00  0.00     0.185 C 
BRANCH   5   6
HETATM    6  C           1     -21.332  -8.597  -4.770  0.00  0.00     0.036 C 
BRANCH   6   7
HETATM    7  C           1     -21.566  -8.900  -3.297  0.00  0.00     0.004 C 
BRANCH   7   8
HETATM    8  C           1     -20.926  -7.812  -2.445  0.00  0.00     0.027 C 
BRANCH   8   9
HETATM    9  C           1     -21.990  -7.152  -1.579  0.00  0.00     0.229 C 
BRANCH   9  10
HETATM   10  N           1     -22.295  -5.785  -2.116  0.00  0.00    -0.079 N 
HETATM   11  H           1     -22.360  -5.106  -1.325  0.00  0.00     0.274 HD
HETATM   12  H           1     -21.533  -5.489  -2.767  0.00  0.00     0.274 HD
HETATM   13  H           1     -23.204  -5.808  -2.630  0.00  0.00     0.274 HD
ENDBRANCH   9  10
ENDBRANCH   8   9
ENDBRANCH   7   8
ENDBRANCH   6   7
ENDBRANCH   5   6
BRANCH   5  14
HETATM   14  C           1     -18.905  -8.823  -5.202  0.00  0.00     0.196 C 
HETATM   15  O           1     -18.406  -9.477  -4.261  0.00  0.00    -0.646 OA
HETATM   16  O           1     -18.480  -8.981  -6.367  0.00  0.00    -0.646 OA
ENDBRANCH   5  14
ENDBRANCH   2   5
BRANCH   3  17
HETATM   17  C           1     -20.688  -4.678  -6.987  0.00  0.00     0.298 C 
BRANCH  17  18
HETATM   18  C           1     -22.093  -4.750  -7.572  0.00  0.00     0.224 C 
BRANCH  18  19
HETATM   19  O           1     -22.012  -4.959  -8.957  0.00  0.00    -0.287 OA
BRANCH  19  20
HETATM   20  P           1     -23.160  -4.253  -9.847  0.00  0.00     0.406 P 
HETATM   21  O           1     -23.895  -5.286 -10.612  0.00  0.00    -0.624 OA
HETATM   22  O           1     -24.100  -3.533  -8.959  0.00  0.00    -0.624 OA
BRANCH  20  23
HETATM   23  O           1     -22.480  -3.207 -10.872  0.00  0.00    -0.300 OA
HETATM   24  H           1     -23.198  -2.842 -11.361  0.00  0.00     0.223 HD
ENDBRANCH  20  23
ENDBRANCH  19  20
ENDBRANCH  18  19
ENDBRANCH  17  18
BRANCH  17  25
HETATM   25  N           1     -19.688  -5.046  -8.042  0.00  0.00    -0.064 N 
HETATM   26  H           1     -18.857  -5.492  -7.592  0.00  0.00     0.275 HD
HETATM   27  H           1     -20.123  -5.717  -8.715  0.00  0.00     0.275 HD
HETATM   28  H           1     -19.388  -4.185  -8.553  0.00  0.00     0.275 HD
ENDBRANCH  17  25
ENDBRANCH   3  17
TORSDOF 13
ENDMDL
