MODEL 1
REMARK VINA RESULT:      -7.0      0.000      0.000
REMARK  7 active torsions:
REMARK  status: ('A' for Active; 'I' for Inactive)
REMARK    1  A    between atoms: C_3  and  C_5 
REMARK    2  A    between atoms: C_3  and  C_13 
REMARK    3  A    between atoms: C_3  and  N_17 
REMARK       I    between atoms: C_5  and  N_8 
REMARK    4  A    between atoms: C_6  and  O_20 
REMARK    5  A    between atoms: N_8  and  C_16 
REMARK    6  A    between atoms: C_13  and  C_18 
REMARK    7  A    between atoms: C_15  and  C_16 
ROOT
HETATM    1  C           1     -22.241  -5.355  -6.735  0.00  0.00     0.278 C 
ENDROOT
BRANCH   1   2
HETATM    2  C           1     -21.411  -6.039  -5.678  0.00  0.00     0.249 C 
HETATM    3  N           1     -21.962  -6.336  -4.460  0.00  0.00    -0.349 N 
HETATM    4  H           1     -22.926  -6.095  -4.270  0.00  0.00     0.163 HD
HETATM    5  O           1     -20.259  -6.326  -5.906  0.00  0.00    -0.271 OA
BRANCH   3   6
HETATM    6  C           1     -21.164  -6.994  -3.445  0.00  0.00     0.235 C 
BRANCH   6   7
HETATM    7  C           1     -21.797  -6.781  -2.091  0.00  0.00     0.191 C 
HETATM    8  O           1     -22.608  -5.846  -1.921  0.00  0.00    -0.647 OA
HETATM    9  O           1     -21.509  -7.541  -1.141  0.00  0.00    -0.647 OA
ENDBRANCH   6   7
ENDBRANCH   3   6
ENDBRANCH   1   2
BRANCH   1  10
HETATM   10  C           1     -21.537  -4.083  -7.191  0.00  0.00     0.081 C 
BRANCH  10  11
HETATM   11  C           1     -21.564  -4.005  -8.686  0.00  0.00    -0.056 A 
HETATM   12  C           1     -22.749  -3.675  -9.345  0.00  0.00     0.010 A 
HETATM   13  C           1     -22.775  -3.602 -10.737  0.00  0.00     0.037 A 
HETATM   14  C           1     -21.615  -3.858 -11.471  0.00  0.00     0.065 A 
HETATM   15  C           1     -20.431  -4.186 -10.811  0.00  0.00     0.037 A 
HETATM   16  C           1     -20.406  -4.261  -9.419  0.00  0.00     0.010 A 
BRANCH  14  17
HETATM   17  O           1     -21.641  -3.786 -12.824  0.00  0.00    -0.361 OA
HETATM   18  H           1     -21.945  -2.897 -13.072  0.00  0.00     0.217 HD
ENDBRANCH  14  17
ENDBRANCH  10  11
ENDBRANCH   1  10
BRANCH   1  19
HETATM   19  N           1     -23.584  -5.005  -6.167  0.00  0.00    -0.066 N 
HETATM   20  H           1     -23.952  -5.816  -5.619  0.00  0.00     0.275 HD
HETATM   21  H           1     -24.245  -4.783  -6.946  0.00  0.00     0.275 HD
HETATM   22  H           1     -23.493  -4.174  -5.540  0.00  0.00     0.275 HD
ENDBRANCH   1  19
TORSDOF 7
ENDMDL
MODEL 2
REMARK VINA RESULT:      -6.8     12.329     14.554
REMARK  7 active torsions:
REMARK  status: ('A' for Active; 'I' for Inactive)
REMARK    1  A    between atoms: C_3  and  C_5 
REMARK    2  A    between atoms: C_3  and  C_13 
REMARK    3  A    between atoms: C_3  and  N_17 
REMARK       I    between atoms: C_5  and  N_8 
REMARK    4  A    between atoms: C_6  and  O_20 
REMARK    5  A    between atoms: N_8  and  C_16 
REMARK    6  A    between atoms: C_13  and  C_18 
REMARK    7  A    between atoms: C_15  and  C_16 
ROOT
HETATM    1  C           1     -27.335  -6.149 -17.623  0.00  0.00     0.278 C 
ENDROOT
BRANCH   1   2
HETATM    2  C           1     -26.030  -6.542 -18.269  0.00  0.00     0.249 C 
HETATM    3  N           1     -26.003  -6.919 -19.584  0.00  0.00    -0.349 N 
HETATM    4  H           1     -26.859  -6.935 -20.123  0.00  0.00     0.163 HD
HETATM    5  O           1     -25.007  -6.523 -17.625  0.00  0.00    -0.271 OA
BRANCH   3   6
HETATM    6  C           1     -24.748  -7.295 -20.205  0.00  0.00     0.235 C 
BRANCH   6   7
HETATM    7  C           1     -25.025  -8.067 -21.472  0.00  0.00     0.191 C 
HETATM    8  O           1     -24.151  -8.139 -22.363  0.00  0.00    -0.647 OA
HETATM    9  O           1     -26.128  -8.634 -21.630  0.00  0.00    -0.647 OA
ENDBRANCH   6   7
ENDBRANCH   3   6
ENDBRANCH   1   2
BRANCH   1  10
HETATM   10  C           1     -28.266  -5.558 -18.673  0.00  0.00     0.081 C 
BRANCH  10  11
HETATM   11  C           1     -29.589  -5.243 -18.048  0.00  0.00    -0.056 A 
HETATM   12  C           1     -30.383  -6.271 -17.540  0.00  0.00     0.010 A 
HETATM   13  C           1     -31.616  -5.977 -16.958  0.00  0.00     0.037 A 
HETATM   14  C           1     -32.055  -4.654 -16.884  0.00  0.00     0.065 A 
HETATM   15  C           1     -31.260  -3.627 -17.391  0.00  0.00     0.037 A 
HETATM   16  C           1     -30.028  -3.921 -17.974  0.00  0.00     0.010 A 
BRANCH  14  17
HETATM   17  O           1     -33.253  -4.369 -16.317  0.00  0.00    -0.361 OA
HETATM   18  H           1     -33.562  -5.165 -15.853  0.00  0.00     0.217 HD
ENDBRANCH  14  17
ENDBRANCH  10  11
ENDBRANCH   1  10
BRANCH   1  19
HETATM   19  N           1     -27.076  -5.129 -16.554  0.00  0.00    -0.066 N 
HETATM   20  H           1     -27.748  -4.336 -16.661  0.00  0.00     0.275 HD
HETATM   21  H           1     -26.098  -4.771 -16.644  0.00  0.00     0.275 HD
HETATM   22  H           1     -27.201  -5.568 -15.614  0.00  0.00     0.275 HD
ENDBRANCH   1  19
TORSDOF 7
ENDMDL
MODEL 3
REMARK VINA RESULT:      -6.7     12.557     13.979
REMARK  7 active torsions:
REMARK  status: ('A' for Active; 'I' for Inactive)
REMARK    1  A    between atoms: C_3  and  C_5 
REMARK    2  A    between atoms: C_3  and  C_13 
REMARK    3  A    between atoms: C_3  and  N_17 
REMARK       I    between atoms: C_5  and  N_8 
REMARK    4  A    between atoms: C_6  and  O_20 
REMARK    5  A    between atoms: N_8  and  C_16 
REMARK    6  A    between atoms: C_13  and  C_18 
REMARK    7  A    between atoms: C_15  and  C_16 
ROOT
HETATM    1  C           1     -27.547  -5.906 -17.679  0.00  0.00     0.278 C 
ENDROOT
BRANCH   1   2
HETATM    2  C           1     -28.381  -4.707 -17.302  0.00  0.00     0.249 C 
HETATM    3  N           1     -29.570  -4.473 -17.938  0.00  0.00    -0.349 N 
HETATM    4  H           1     -29.889  -5.104 -18.662  0.00  0.00     0.163 HD
HETATM    5  O           1     -28.000  -3.954 -16.437  0.00  0.00    -0.271 OA
BRANCH   3   6
HETATM    6  C           1     -30.372  -3.321 -17.574  0.00  0.00     0.235 C 
BRANCH   6   7
HETATM    7  C           1     -31.800  -3.754 -17.343  0.00  0.00     0.191 C 
HETATM    8  O           1     -32.041  -4.893 -16.890  0.00  0.00    -0.647 OA
HETATM    9  O           1     -32.739  -2.972 -17.606  0.00  0.00    -0.647 OA
ENDBRANCH   6   7
ENDBRANCH   3   6
ENDBRANCH   1   2
BRANCH   1  10
HETATM   10  C           1     -27.678  -6.168 -19.173  0.00  0.00     0.081 C 
BRANCH  10  11
HETATM   11  C           1     -26.429  -6.821 -19.678  0.00  0.00    -0.056 A 
HETATM   12  C           1     -26.446  -7.518 -20.887  0.00  0.00     0.010 A 
HETATM   13  C           1     -25.283  -8.126 -21.357  0.00  0.00     0.037 A 
HETATM   14  C           1     -24.102  -8.039 -20.618  0.00  0.00     0.065 A 
HETATM   15  C           1     -24.086  -7.342 -19.410  0.00  0.00     0.037 A 
HETATM   16  C           1     -25.249  -6.734 -18.940  0.00  0.00     0.010 A 
BRANCH  14  17
HETATM   17  O           1     -22.971  -8.630 -21.076  0.00  0.00    -0.361 OA
HETATM   18  H           1     -23.193  -9.539 -21.337  0.00  0.00     0.217 HD
ENDBRANCH  14  17
ENDBRANCH  10  11
ENDBRANCH   1  10
BRANCH   1  19
HETATM   19  N           1     -28.026  -7.107 -16.918  0.00  0.00    -0.066 N 
HETATM   20  H           1     -27.456  -7.940 -17.189  0.00  0.00     0.275 HD
HETATM   21  H           1     -29.031  -7.284 -17.142  0.00  0.00     0.275 HD
HETATM   22  H           1     -27.924  -6.934 -15.893  0.00  0.00     0.275 HD
ENDBRANCH   1  19
TORSDOF 7
ENDMDL
MODEL 4
REMARK VINA RESULT:      -6.6      1.714      2.528
REMARK  7 active torsions:
REMARK  status: ('A' for Active; 'I' for Inactive)
REMARK    1  A    between atoms: C_3  and  C_5 
REMARK    2  A    between atoms: C_3  and  C_13 
REMARK    3  A    between atoms: C_3  and  N_17 
REMARK       I    between atoms: C_5  and  N_8 
REMARK    4  A    between atoms: C_6  and  O_20 
REMARK    5  A    between atoms: N_8  and  C_16 
REMARK    6  A    between atoms: C_13  and  C_18 
REMARK    7  A    between atoms: C_15  and  C_16 
ROOT
HETATM    1  C           1     -22.339  -5.411  -6.741  0.00  0.00     0.278 C 
ENDROOT
BRANCH   1   2
HETATM    2  C           1     -21.599  -6.167  -5.666  0.00  0.00     0.249 C 
HETATM    3  N           1     -20.779  -7.210  -6.003  0.00  0.00    -0.349 N 
HETATM    4  H           1     -20.670  -7.474  -6.974  0.00  0.00     0.163 HD
HETATM    5  O           1     -21.729  -5.851  -4.507  0.00  0.00    -0.271 OA
BRANCH   3   6
HETATM    6  C           1     -20.067  -7.936  -4.969  0.00  0.00     0.235 C 
BRANCH   6   7
HETATM    7  C           1     -20.534  -9.371  -4.950  0.00  0.00     0.191 C 
HETATM    8  O           1     -20.457 -10.038  -3.895  0.00  0.00    -0.647 OA
HETATM    9  O           1     -20.996  -9.892  -5.988  0.00  0.00    -0.647 OA
ENDBRANCH   6   7
ENDBRANCH   3   6
ENDBRANCH   1   2
BRANCH   1  10
HETATM   10  C           1     -21.517  -4.203  -7.171  0.00  0.00     0.081 C 
BRANCH  10  11
HETATM   11  C           1     -21.543  -4.086  -8.664  0.00  0.00    -0.056 A 
HETATM   12  C           1     -20.400  -4.383  -9.407  0.00  0.00     0.010 A 
HETATM   13  C           1     -20.425  -4.274 -10.797  0.00  0.00     0.037 A 
HETATM   14  C           1     -21.592  -3.869 -11.444  0.00  0.00     0.065 A 
HETATM   15  C           1     -22.735  -3.573 -10.701  0.00  0.00     0.037 A 
HETATM   16  C           1     -22.710  -3.681  -9.311  0.00  0.00     0.010 A 
BRANCH  14  17
HETATM   17  O           1     -21.616  -3.764 -12.796  0.00  0.00    -0.361 OA
HETATM   18  H           1     -20.697  -3.730 -13.110  0.00  0.00     0.217 HD
ENDBRANCH  14  17
ENDBRANCH  10  11
ENDBRANCH   1  10
BRANCH   1  19
HETATM   19  N           1     -23.662  -4.950  -6.206  0.00  0.00    -0.066 N 
HETATM   20  H           1     -24.423  -5.546  -6.601  0.00  0.00     0.275 HD
HETATM   21  H           1     -23.821  -3.954  -6.481  0.00  0.00     0.275 HD
HETATM   22  H           1     -23.663  -5.027  -5.164  0.00  0.00     0.275 HD
ENDBRANCH   1  19
TORSDOF 7
ENDMDL
MODEL 5
REMARK VINA RESULT:      -6.6     12.202     13.844
REMARK  7 active torsions:
REMARK  status: ('A' for Active; 'I' for Inactive)
REMARK    1  A    between atoms: C_3  and  C_5 
REMARK    2  A    between atoms: C_3  and  C_13 
REMARK    3  A    between atoms: C_3  and  N_17 
REMARK       I    between atoms: C_5  and  N_8 
REMARK    4  A    between atoms: C_6  and  O_20 
REMARK    5  A    between atoms: N_8  and  C_16 
REMARK    6  A    between atoms: C_13  and  C_18 
REMARK    7  A    between atoms: C_15  and  C_16 
ROOT
HETATM    1  C           1     -31.077  -4.179 -17.503  0.00  0.00     0.278 C 
ENDROOT
BRANCH   1   2
HETATM    2  C           1     -32.456  -3.827 -17.004  0.00  0.00     0.249 C 
HETATM    3  N           1     -32.965  -4.453 -15.898  0.00  0.00    -0.349 N 
HETATM    4  H           1     -32.416  -5.153 -15.416  0.00  0.00     0.163 HD
HETATM    5  O           1     -33.111  -2.990 -17.580  0.00  0.00    -0.271 OA
BRANCH   3   6
HETATM    6  C           1     -34.290  -4.113 -15.418  0.00  0.00     0.235 C 
BRANCH   6   7
HETATM    7  C           1     -34.329  -4.238 -13.915  0.00  0.00     0.191 C 
HETATM    8  O           1     -35.038  -5.117 -13.379  0.00  0.00    -0.647 OA
HETATM    9  O           1     -33.652  -3.462 -13.206  0.00  0.00    -0.647 OA
ENDBRANCH   6   7
ENDBRANCH   3   6
ENDBRANCH   1   2
BRANCH   1  10
HETATM   10  C           1     -30.404  -5.125 -16.516  0.00  0.00     0.081 C 
BRANCH  10  11
HETATM   11  C           1     -29.066  -5.535 -17.049  0.00  0.00    -0.056 A 
HETATM   12  C           1     -27.955  -5.552 -16.206  0.00  0.00     0.010 A 
HETATM   13  C           1     -26.710  -5.934 -16.702  0.00  0.00     0.037 A 
HETATM   14  C           1     -26.575  -6.300 -18.042  0.00  0.00     0.065 A 
HETATM   15  C           1     -27.687  -6.284 -18.884  0.00  0.00     0.037 A 
HETATM   16  C           1     -28.932  -5.901 -18.388  0.00  0.00     0.010 A 
BRANCH  14  17
HETATM   17  O           1     -25.364  -6.673 -18.524  0.00  0.00    -0.361 OA
HETATM   18  H           1     -24.955  -5.897 -18.942  0.00  0.00     0.217 HD
ENDBRANCH  14  17
ENDBRANCH  10  11
ENDBRANCH   1  10
BRANCH   1  19
HETATM   19  N           1     -30.258  -2.929 -17.634  0.00  0.00    -0.066 N 
HETATM   20  H           1     -29.982  -2.593 -16.684  0.00  0.00     0.275 HD
HETATM   21  H           1     -30.823  -2.192 -18.113  0.00  0.00     0.275 HD
HETATM   22  H           1     -29.400  -3.131 -18.195  0.00  0.00     0.275 HD
ENDBRANCH   1  19
TORSDOF 7
ENDMDL
MODEL 6
REMARK VINA RESULT:      -6.6      1.585      2.173
REMARK  7 active torsions:
REMARK  status: ('A' for Active; 'I' for Inactive)
REMARK    1  A    between atoms: C_3  and  C_5 
REMARK    2  A    between atoms: C_3  and  C_13 
REMARK    3  A    between atoms: C_3  and  N_17 
REMARK       I    between atoms: C_5  and  N_8 
REMARK    4  A    between atoms: C_6  and  O_20 
REMARK    5  A    between atoms: N_8  and  C_16 
REMARK    6  A    between atoms: C_13  and  C_18 
REMARK    7  A    between atoms: C_15  and  C_16 
ROOT
HETATM    1  C           1     -20.479  -6.100  -5.612  0.00  0.00     0.278 C 
ENDROOT
BRANCH   1   2
HETATM    2  C           1     -21.554  -6.134  -4.554  0.00  0.00     0.249 C 
HETATM    3  N           1     -21.212  -6.100  -3.229  0.00  0.00    -0.349 N 
HETATM    4  H           1     -20.238  -6.053  -2.959  0.00  0.00     0.163 HD
HETATM    5  O           1     -22.718  -6.191  -4.877  0.00  0.00    -0.271 OA
BRANCH   3   6
HETATM    6  C           1     -22.246  -6.132  -2.213  0.00  0.00     0.235 C 
BRANCH   6   7
HETATM    7  C           1     -21.939  -7.224  -1.216  0.00  0.00     0.191 C 
HETATM    8  O           1     -22.688  -7.399  -0.231  0.00  0.00    -0.647 OA
HETATM    9  O           1     -20.935  -7.952  -1.377  0.00  0.00    -0.647 OA
ENDBRANCH   6   7
ENDBRANCH   3   6
ENDBRANCH   1   2
BRANCH   1  10
HETATM   10  C           1     -20.189  -4.656  -5.996  0.00  0.00     0.081 C 
BRANCH  10  11
HETATM   11  C           1     -20.745  -4.379  -7.359  0.00  0.00    -0.056 A 
HETATM   12  C           1     -19.927  -4.497  -8.482  0.00  0.00     0.010 A 
HETATM   13  C           1     -20.445  -4.239  -9.751  0.00  0.00     0.037 A 
HETATM   14  C           1     -21.781  -3.864  -9.897  0.00  0.00     0.065 A 
HETATM   15  C           1     -22.598  -3.747  -8.773  0.00  0.00     0.037 A 
HETATM   16  C           1     -22.080  -4.003  -7.504  0.00  0.00     0.010 A 
BRANCH  14  17
HETATM   17  O           1     -22.284  -3.614 -11.131  0.00  0.00    -0.361 OA
HETATM   18  H           1     -23.204  -3.321 -11.026  0.00  0.00     0.217 HD
ENDBRANCH  14  17
ENDBRANCH  10  11
ENDBRANCH   1  10
BRANCH   1  19
HETATM   19  N           1     -20.946  -6.855  -6.822  0.00  0.00    -0.066 N 
HETATM   20  H           1     -20.705  -7.866  -6.715  0.00  0.00     0.275 HD
HETATM   21  H           1     -20.475  -6.473  -7.673  0.00  0.00     0.275 HD
HETATM   22  H           1     -21.981  -6.752  -6.920  0.00  0.00     0.275 HD
ENDBRANCH   1  19
TORSDOF 7
ENDMDL
MODEL 7
REMARK VINA RESULT:      -6.6     11.778     13.597
REMARK  7 active torsions:
REMARK  status: ('A' for Active; 'I' for Inactive)
REMARK    1  A    between atoms: C_3  and  C_5 
REMARK    2  A    between atoms: C_3  and  C_13 
REMARK    3  A    between atoms: C_3  and  N_17 
REMARK       I    between atoms: C_5  and  N_8 
REMARK    4  A    between atoms: C_6  and  O_20 
REMARK    5  A    between atoms: N_8  and  C_16 
REMARK    6  A    between atoms: C_13  and  C_18 
REMARK    7  A    between atoms: C_15  and  C_16 
ROOT
HETATM    1  C           1     -28.961  -6.808 -17.145  0.00  0.00     0.278 C 
ENDROOT
BRANCH   1   2
HETATM    2  C           1     -30.038  -5.950 -16.531  0.00  0.00     0.249 C 
HETATM    3  N           1     -31.187  -5.690 -17.229  0.00  0.00    -0.349 N 
HETATM    4  H           1     -31.314  -6.074 -18.156  0.00  0.00     0.163 HD
HETATM    5  O           1     -29.887  -5.492 -15.423  0.00  0.00    -0.271 OA
BRANCH   3   6
HETATM    6  C           1     -32.223  -4.866 -16.638  0.00  0.00     0.235 C 
BRANCH   6   7
HETATM    7  C           1     -32.230  -3.511 -17.304  0.00  0.00     0.191 C 
HETATM    8  O           1     -33.315  -2.946 -17.558  0.00  0.00    -0.647 OA
HETATM    9  O           1     -31.150  -2.956 -17.600  0.00  0.00    -0.647 OA
ENDBRANCH   6   7
ENDBRANCH   3   6
ENDBRANCH   1   2
BRANCH   1  10
HETATM   10  C           1     -28.263  -6.033 -18.255  0.00  0.00     0.081 C 
BRANCH  10  11
HETATM   11  C           1     -26.807  -6.384 -18.272  0.00  0.00    -0.056 A 
HETATM   12  C           1     -26.151  -6.580 -19.487  0.00  0.00     0.010 A 
HETATM   13  C           1     -24.796  -6.906 -19.503  0.00  0.00     0.037 A 
HETATM   14  C           1     -24.096  -7.037 -18.302  0.00  0.00     0.065 A 
HETATM   15  C           1     -24.753  -6.840 -17.088  0.00  0.00     0.037 A 
HETATM   16  C           1     -26.108  -6.515 -17.072  0.00  0.00     0.010 A 
BRANCH  14  17
HETATM   17  O           1     -22.778  -7.354 -18.318  0.00  0.00    -0.361 OA
HETATM   18  H           1     -22.409  -7.146 -17.444  0.00  0.00     0.217 HD
ENDBRANCH  14  17
ENDBRANCH  10  11
ENDBRANCH   1  10
BRANCH   1  19
HETATM   19  N           1     -29.577  -8.051 -17.716  0.00  0.00    -0.066 N 
HETATM   20  H           1     -29.968  -8.633 -16.941  0.00  0.00     0.275 HD
HETATM   21  H           1     -28.848  -8.598 -18.228  0.00  0.00     0.275 HD
HETATM   22  H           1     -30.344  -7.790 -18.376  0.00  0.00     0.275 HD
ENDBRANCH   1  19
TORSDOF 7
ENDMDL
MODEL 8
REMARK VINA RESULT:      -6.5      2.458      7.278
REMARK  7 active torsions:
REMARK  status: ('A' for Active; 'I' for Inactive)
REMARK    1  A    between atoms: C_3  and  C_5 
REMARK    2  A    between atoms: C_3  and  C_13 
REMARK    3  A    between atoms: C_3  and  N_17 
REMARK       I    between atoms: C_5  and  N_8 
REMARK    4  A    between atoms: C_6  and  O_20 
REMARK    5  A    between atoms: N_8  and  C_16 
REMARK    6  A    between atoms: C_13  and  C_18 
REMARK    7  A    between atoms: C_15  and  C_16 
ROOT
HETATM    1  C           1     -21.289  -5.798  -6.890  0.00  0.00     0.278 C 
ENDROOT
BRANCH   1   2
HETATM    2  C           1     -22.368  -4.857  -7.365  0.00  0.00     0.249 C 
HETATM    3  N           1     -22.312  -4.333  -8.628  0.00  0.00    -0.349 N 
HETATM    4  H           1     -21.546  -4.576  -9.243  0.00  0.00     0.163 HD
HETATM    5  O           1     -23.283  -4.567  -6.630  0.00  0.00    -0.271 OA
BRANCH   3   6
HETATM    6  C           1     -23.350  -3.429  -9.085  0.00  0.00     0.235 C 
BRANCH   6   7
HETATM    7  C           1     -24.081  -4.050 -10.251  0.00  0.00     0.191 C 
HETATM    8  O           1     -23.850  -5.235 -10.573  0.00  0.00    -0.647 OA
HETATM    9  O           1     -24.916  -3.377 -10.893  0.00  0.00    -0.647 OA
ENDBRANCH   6   7
ENDBRANCH   3   6
ENDBRANCH   1   2
BRANCH   1  10
HETATM   10  C           1     -20.786  -5.346  -5.525  0.00  0.00     0.081 C 
BRANCH  10  11
HETATM   11  C           1     -21.065  -6.412  -4.511  0.00  0.00    -0.056 A 
HETATM   12  C           1     -21.317  -6.064  -3.184  0.00  0.00     0.010 A 
HETATM   13  C           1     -21.577  -7.056  -2.240  0.00  0.00     0.037 A 
HETATM   14  C           1     -21.584  -8.398  -2.623  0.00  0.00     0.065 A 
HETATM   15  C           1     -21.332  -8.746  -3.950  0.00  0.00     0.037 A 
HETATM   16  C           1     -21.071  -7.753  -4.893  0.00  0.00     0.010 A 
BRANCH  14  17
HETATM   17  O           1     -21.838  -9.363  -1.705  0.00  0.00    -0.361 OA
HETATM   18  H           1     -22.744  -9.235  -1.377  0.00  0.00     0.217 HD
ENDBRANCH  14  17
ENDBRANCH  10  11
ENDBRANCH   1  10
BRANCH   1  19
HETATM   19  N           1     -20.153  -5.790  -7.869  0.00  0.00    -0.066 N 
HETATM   20  H           1     -20.312  -5.041  -8.579  0.00  0.00     0.275 HD
HETATM   21  H           1     -20.099  -6.718  -8.347  0.00  0.00     0.275 HD
HETATM   22  H           1     -19.258  -5.607  -7.363  0.00  0.00     0.275 HD
ENDBRANCH   1  19
TORSDOF 7
ENDMDL
MODEL 9
REMARK VINA RESULT:      -6.4     13.559     14.357
REMARK  7 active torsions:
REMARK  status: ('A' for Active; 'I' for Inactive)
REMARK    1  A    between atoms: C_3  and  C_5 
REMARK    2  A    between atoms: C_3  and  C_13 
REMARK    3  A    between atoms: C_3  and  N_17 
REMARK       I    between atoms: C_5  and  N_8 
REMARK    4  A    between atoms: C_6  and  O_20 
REMARK    5  A    between atoms: N_8  and  C_16 
REMARK    6  A    between atoms: C_13  and  C_18 
REMARK    7  A    between atoms: C_15  and  C_16 
ROOT
HETATM    1  C           1     -32.877  -4.485 -16.722  0.00  0.00     0.278 C 
ENDROOT
BRANCH   1   2
HETATM    2  C           1     -33.829  -4.458 -15.552  0.00  0.00     0.249 C 
HETATM    3  N           1     -33.366  -4.159 -14.299  0.00  0.00    -0.349 N 
HETATM    4  H           1     -32.384  -3.957 -14.157  0.00  0.00     0.163 HD
HETATM    5  O           1     -35.001  -4.701 -15.721  0.00  0.00    -0.271 OA
BRANCH   3   6
HETATM    6  C           1     -34.281  -4.133 -13.175  0.00  0.00     0.235 C 
BRANCH   6   7
HETATM    7  C           1     -34.499  -2.705 -12.736  0.00  0.00     0.191 C 
HETATM    8  O           1     -35.061  -1.895 -13.504  0.00  0.00    -0.647 OA
HETATM    9  O           1     -34.117  -2.334 -11.605  0.00  0.00    -0.647 OA
ENDBRANCH   6   7
ENDBRANCH   3   6
ENDBRANCH   1   2
BRANCH   1  10
HETATM   10  C           1     -31.442  -4.475 -16.211  0.00  0.00     0.081 C 
BRANCH  10  11
HETATM   11  C           1     -30.588  -5.324 -17.102  0.00  0.00    -0.056 A 
HETATM   12  C           1     -30.930  -6.656 -17.334  0.00  0.00     0.010 A 
HETATM   13  C           1     -30.135  -7.445 -18.164  0.00  0.00     0.037 A 
HETATM   14  C           1     -28.997  -6.902 -18.762  0.00  0.00     0.065 A 
HETATM   15  C           1     -28.656  -5.570 -18.530  0.00  0.00     0.037 A 
HETATM   16  C           1     -29.451  -4.781 -17.699  0.00  0.00     0.010 A 
BRANCH  14  17
HETATM   17  O           1     -28.225  -7.670 -19.570  0.00  0.00    -0.361 OA
HETATM   18  H           1     -28.749  -7.903 -20.354  0.00  0.00     0.217 HD
ENDBRANCH  14  17
ENDBRANCH  10  11
ENDBRANCH   1  10
BRANCH   1  19
HETATM   19  N           1     -33.109  -3.278 -17.582  0.00  0.00    -0.066 N 
HETATM   20  H           1     -32.939  -3.526 -18.582  0.00  0.00     0.275 HD
HETATM   21  H           1     -32.454  -2.515 -17.296  0.00  0.00     0.275 HD
HETATM   22  H           1     -34.094  -2.952 -17.466  0.00  0.00     0.275 HD
ENDBRANCH   1  19
TORSDOF 7
ENDMDL
