MODEL 1
REMARK VINA RESULT:      -5.6      0.000      0.000
REMARK  8 active torsions:
REMARK  status: ('A' for Active; 'I' for Inactive)
REMARK       I    between atoms: C_2  and  N_3 
REMARK    1  A    between atoms: C_2  and  C_4 
REMARK    2  A    between atoms: C_4  and  C_5 
REMARK    3  A    between atoms: C_5  and  C_6 
REMARK    4  A    between atoms: C_5  and  N_9 
REMARK       I    between atoms: N_9  and  C_10 
REMARK    5  A    between atoms: C_10  and  C_11 
REMARK    6  A    between atoms: C_11  and  C_12 
REMARK    7  A    between atoms: C_11  and  N_14 
REMARK    8  A    between atoms: C_12  and  Se_13 
ROOT
HETATM    1  N           1     -22.295  -4.927  -8.776  0.00  0.00    -0.344 N 
HETATM    2  C           1     -21.663  -4.621  -7.601  0.00  0.00     0.249 C 
HETATM    3  O           1     -21.501  -3.467  -7.285  0.00  0.00    -0.271 OA
HETATM    4  H           1     -22.431  -5.894  -9.041  0.00  0.00     0.163 HD
ENDROOT
BRANCH   1   5
HETATM    5  C           1     -22.772  -3.865  -9.640  0.00  0.00     0.194 C 
BRANCH   5   6
HETATM    6  C           1     -22.249  -4.087 -11.053  0.00  0.00     0.138 C 
BRANCH   6   7
HETATM    7  C           1     -20.753  -3.890 -11.073  0.00  0.00     0.217 C 
HETATM    8  O           1     -20.021  -4.784 -10.721  0.00  0.00    -0.274 OA
HETATM    9  N           1     -20.225  -2.696 -11.489  0.00  0.00    -0.370 N 
HETATM   10  H           1     -20.838  -1.947 -11.783  0.00  0.00     0.159 HD
HETATM   11  H           1     -19.222  -2.564 -11.502  0.00  0.00     0.159 HD
ENDBRANCH   6   7
ENDBRANCH   5   6
BRANCH   5  12
HETATM   12  C           1     -24.281  -3.868  -9.655  0.00  0.00     0.197 C 
HETATM   13  O           1     -24.910  -2.799  -9.502  0.00  0.00    -0.646 OA
HETATM   14  O           1     -24.902  -4.941  -9.821  0.00  0.00    -0.646 OA
ENDBRANCH   5  12
ENDBRANCH   1   5
BRANCH   2  15
HETATM   15  C           1     -21.166  -5.726  -6.702  0.00  0.00     0.274 C 
BRANCH  15  16
HETATM   16  C           1     -20.779  -5.146  -5.349  0.00  0.00     0.045 C 
BRANCH  16  17
HETATM   17 Se           1     -21.414  -6.322  -3.931  0.00  0.00     0.000 Se
HETATM   18  H           1     -22.825  -6.249  -4.342  0.00  0.00     0.000 HD
ENDBRANCH  16  17
ENDBRANCH  15  16
BRANCH  15  19
HETATM   19  N           1     -19.969  -6.379  -7.326  0.00  0.00    -0.067 N 
HETATM   20  H           1     -19.984  -7.403  -7.122  0.00  0.00     0.275 HD
HETATM   21  H           1     -19.990  -6.229  -8.360  0.00  0.00     0.275 HD
HETATM   22  H           1     -19.098  -5.957  -6.930  0.00  0.00     0.275 HD
ENDBRANCH  15  19
ENDBRANCH   2  15
TORSDOF 8
ENDMDL
MODEL 2
REMARK VINA RESULT:      -5.2      1.747      3.216
REMARK  8 active torsions:
REMARK  status: ('A' for Active; 'I' for Inactive)
REMARK       I    between atoms: C_2  and  N_3 
REMARK    1  A    between atoms: C_2  and  C_4 
REMARK    2  A    between atoms: C_4  and  C_5 
REMARK    3  A    between atoms: C_5  and  C_6 
REMARK    4  A    between atoms: C_5  and  N_9 
REMARK       I    between atoms: N_9  and  C_10 
REMARK    5  A    between atoms: C_10  and  C_11 
REMARK    6  A    between atoms: C_11  and  C_12 
REMARK    7  A    between atoms: C_11  and  N_14 
REMARK    8  A    between atoms: C_12  and  Se_13 
ROOT
HETATM    1  N           1     -22.206  -4.180  -9.210  0.00  0.00    -0.344 N 
HETATM    2  C           1     -21.351  -4.628  -8.241  0.00  0.00     0.249 C 
HETATM    3  O           1     -20.433  -5.357  -8.535  0.00  0.00    -0.271 OA
HETATM    4  H           1     -22.975  -3.569  -8.964  0.00  0.00     0.163 HD
ENDROOT
BRANCH   1   5
HETATM    5  C           1     -22.010  -4.577 -10.591  0.00  0.00     0.194 C 
BRANCH   5   6
HETATM    6  C           1     -23.361  -4.688 -11.284  0.00  0.00     0.138 C 
BRANCH   6   7
HETATM    7  C           1     -24.421  -4.037 -10.429  0.00  0.00     0.217 C 
HETATM    8  O           1     -24.639  -2.854 -10.534  0.00  0.00    -0.274 OA
HETATM    9  N           1     -25.134  -4.789  -9.533  0.00  0.00    -0.370 N 
HETATM   10  H           1     -24.952  -5.780  -9.445  0.00  0.00     0.159 HD
HETATM   11  H           1     -25.845  -4.352  -8.960  0.00  0.00     0.159 HD
ENDBRANCH   6   7
ENDBRANCH   5   6
BRANCH   5  12
HETATM   12  C           1     -21.166  -3.545 -11.296  0.00  0.00     0.197 C 
HETATM   13  O           1     -21.687  -2.488 -11.712  0.00  0.00    -0.646 OA
HETATM   14  O           1     -19.943  -3.746 -11.466  0.00  0.00    -0.646 OA
ENDBRANCH   5  12
ENDBRANCH   1   5
BRANCH   2  15
HETATM   15  C           1     -21.555  -4.215  -6.804  0.00  0.00     0.274 C 
BRANCH  15  16
HETATM   16  C           1     -20.408  -4.744  -5.954  0.00  0.00     0.045 C 
BRANCH  16  17
HETATM   17 Se           1     -21.032  -6.245  -4.880  0.00  0.00     0.000 Se
HETATM   18  H           1     -22.258  -5.565  -4.432  0.00  0.00     0.000 HD
ENDBRANCH  16  17
ENDBRANCH  15  16
BRANCH  15  19
HETATM   19  N           1     -22.850  -4.779  -6.301  0.00  0.00    -0.067 N 
HETATM   20  H           1     -23.283  -4.110  -5.626  0.00  0.00     0.275 HD
HETATM   21  H           1     -23.499  -4.932  -7.105  0.00  0.00     0.275 HD
HETATM   22  H           1     -22.669  -5.690  -5.821  0.00  0.00     0.275 HD
ENDBRANCH  15  19
ENDBRANCH   2  15
TORSDOF 8
ENDMDL
MODEL 3
REMARK VINA RESULT:      -4.8      2.103      3.484
REMARK  8 active torsions:
REMARK  status: ('A' for Active; 'I' for Inactive)
REMARK       I    between atoms: C_2  and  N_3 
REMARK    1  A    between atoms: C_2  and  C_4 
REMARK    2  A    between atoms: C_4  and  C_5 
REMARK    3  A    between atoms: C_5  and  C_6 
REMARK    4  A    between atoms: C_5  and  N_9 
REMARK       I    between atoms: N_9  and  C_10 
REMARK    5  A    between atoms: C_10  and  C_11 
REMARK    6  A    between atoms: C_11  and  C_12 
REMARK    7  A    between atoms: C_11  and  N_14 
REMARK    8  A    between atoms: C_12  and  Se_13 
ROOT
HETATM    1  N           1     -21.749  -4.764  -7.064  0.00  0.00    -0.344 N 
HETATM    2  C           1     -21.330  -5.920  -6.463  0.00  0.00     0.249 C 
HETATM    3  O           1     -21.029  -6.876  -7.138  0.00  0.00    -0.271 OA
HETATM    4  H           1     -22.002  -3.963  -6.499  0.00  0.00     0.163 HD
ENDROOT
BRANCH   1   5
HETATM    5  C           1     -21.830  -4.686  -8.509  0.00  0.00     0.194 C 
BRANCH   5   6
HETATM    6  C           1     -22.865  -3.641  -8.904  0.00  0.00     0.138 C 
BRANCH   6   7
HETATM    7  C           1     -23.955  -4.294  -9.718  0.00  0.00     0.217 C 
HETATM    8  O           1     -23.694  -5.231 -10.436  0.00  0.00    -0.274 OA
HETATM    9  N           1     -25.240  -3.826  -9.643  0.00  0.00    -0.370 N 
HETATM   10  H           1     -25.458  -3.041  -9.042  0.00  0.00     0.159 HD
HETATM   11  H           1     -25.970  -4.263 -10.189  0.00  0.00     0.159 HD
ENDBRANCH   6   7
ENDBRANCH   5   6
BRANCH   5  12
HETATM   12  C           1     -20.483  -4.297  -9.068  0.00  0.00     0.197 C 
HETATM   13  O           1     -20.200  -4.558 -10.257  0.00  0.00    -0.646 OA
HETATM   14  O           1     -19.650  -3.714  -8.341  0.00  0.00    -0.646 OA
ENDBRANCH   5  12
ENDBRANCH   1   5
BRANCH   2  15
HETATM   15  C           1     -21.247  -6.002  -4.959  0.00  0.00     0.274 C 
BRANCH  15  16
HETATM   16  C           1     -20.399  -7.203  -4.561  0.00  0.00     0.045 C 
BRANCH  16  17
HETATM   17 Se           1     -21.232  -8.115  -3.053  0.00  0.00     0.000 Se
HETATM   18  H           1     -21.970  -9.074  -3.892  0.00  0.00     0.000 HD
ENDBRANCH  16  17
ENDBRANCH  15  16
BRANCH  15  19
HETATM   19  N           1     -22.625  -6.153  -4.389  0.00  0.00    -0.067 N 
HETATM   20  H           1     -22.638  -6.946  -3.710  0.00  0.00     0.275 HD
HETATM   21  H           1     -22.898  -5.271  -3.900  0.00  0.00     0.275 HD
HETATM   22  H           1     -23.302  -6.346  -5.163  0.00  0.00     0.275 HD
ENDBRANCH  15  19
ENDBRANCH   2  15
TORSDOF 8
ENDMDL
MODEL 4
REMARK VINA RESULT:      -4.6      4.164      6.725
REMARK  8 active torsions:
REMARK  status: ('A' for Active; 'I' for Inactive)
REMARK       I    between atoms: C_2  and  N_3 
REMARK    1  A    between atoms: C_2  and  C_4 
REMARK    2  A    between atoms: C_4  and  C_5 
REMARK    3  A    between atoms: C_5  and  C_6 
REMARK    4  A    between atoms: C_5  and  N_9 
REMARK       I    between atoms: N_9  and  C_10 
REMARK    5  A    between atoms: C_10  and  C_11 
REMARK    6  A    between atoms: C_11  and  C_12 
REMARK    7  A    between atoms: C_11  and  N_14 
REMARK    8  A    between atoms: C_12  and  Se_13 
ROOT
HETATM    1  N           1     -20.963  -6.835  -6.204  0.00  0.00    -0.344 N 
HETATM    2  C           1     -20.887  -5.490  -6.443  0.00  0.00     0.249 C 
HETATM    3  O           1     -20.472  -4.747  -5.585  0.00  0.00    -0.271 OA
HETATM    4  H           1     -21.310  -7.458  -6.922  0.00  0.00     0.163 HD
ENDROOT
BRANCH   1   5
HETATM    5  C           1     -20.543  -7.369  -4.923  0.00  0.00     0.194 C 
BRANCH   5   6
HETATM    6  C           1     -21.767  -7.608  -4.048  0.00  0.00     0.138 C 
BRANCH   6   7
HETATM    7  C           1     -21.557  -6.959  -2.701  0.00  0.00     0.217 C 
HETATM    8  O           1     -20.695  -7.368  -1.960  0.00  0.00    -0.274 OA
HETATM    9  N           1     -22.344  -5.905  -2.320  0.00  0.00    -0.370 N 
HETATM   10  H           1     -23.066  -5.562  -2.940  0.00  0.00     0.159 HD
HETATM   11  H           1     -22.204  -5.470  -1.417  0.00  0.00     0.159 HD
ENDBRANCH   6   7
ENDBRANCH   5   6
BRANCH   5  12
HETATM   12  C           1     -19.814  -8.672  -5.135  0.00  0.00     0.197 C 
HETATM   13  O           1     -18.873  -8.736  -5.956  0.00  0.00    -0.646 OA
HETATM   14  O           1     -20.150  -9.690  -4.490  0.00  0.00    -0.646 OA
ENDBRANCH   5  12
ENDBRANCH   1   5
BRANCH   2  15
HETATM   15  C           1     -21.323  -4.934  -7.776  0.00  0.00     0.274 C 
BRANCH  15  16
HETATM   16  C           1     -20.098  -4.572  -8.603  0.00  0.00     0.045 C 
BRANCH  16  17
HETATM   17 Se           1     -20.637  -4.205 -10.439  0.00  0.00     0.000 Se
HETATM   18  H           1     -19.436  -4.813 -11.036  0.00  0.00     0.000 HD
ENDBRANCH  16  17
ENDBRANCH  15  16
BRANCH  15  19
HETATM   19  N           1     -22.158  -3.708  -7.557  0.00  0.00    -0.067 N 
HETATM   20  H           1     -22.125  -3.106  -8.410  0.00  0.00     0.275 HD
HETATM   21  H           1     -23.147  -3.989  -7.368  0.00  0.00     0.275 HD
HETATM   22  H           1     -21.784  -3.175  -6.739  0.00  0.00     0.275 HD
ENDBRANCH  15  19
ENDBRANCH   2  15
TORSDOF 8
ENDMDL
MODEL 5
REMARK VINA RESULT:      -4.6      3.996      6.497
REMARK  8 active torsions:
REMARK  status: ('A' for Active; 'I' for Inactive)
REMARK       I    between atoms: C_2  and  N_3 
REMARK    1  A    between atoms: C_2  and  C_4 
REMARK    2  A    between atoms: C_4  and  C_5 
REMARK    3  A    between atoms: C_5  and  C_6 
REMARK    4  A    between atoms: C_5  and  N_9 
REMARK       I    between atoms: N_9  and  C_10 
REMARK    5  A    between atoms: C_10  and  C_11 
REMARK    6  A    between atoms: C_11  and  C_12 
REMARK    7  A    between atoms: C_11  and  N_14 
REMARK    8  A    between atoms: C_12  and  Se_13 
ROOT
HETATM    1  N           1     -20.874  -6.662  -4.840  0.00  0.00    -0.344 N 
HETATM    2  C           1     -21.405  -5.739  -5.699  0.00  0.00     0.249 C 
HETATM    3  O           1     -22.598  -5.554  -5.724  0.00  0.00    -0.271 OA
HETATM    4  H           1     -19.874  -6.817  -4.819  0.00  0.00     0.163 HD
ENDROOT
BRANCH   1   5
HETATM    5  C           1     -21.742  -7.417  -3.958  0.00  0.00     0.194 C 
BRANCH   5   6
HETATM    6  C           1     -21.339  -8.885  -3.982  0.00  0.00     0.138 C 
BRANCH   6   7
HETATM    7  C           1     -19.929  -9.011  -4.505  0.00  0.00     0.217 C 
HETATM    8  O           1     -19.729  -9.071  -5.695  0.00  0.00    -0.274 OA
HETATM    9  N           1     -18.876  -9.057  -3.631  0.00  0.00    -0.370 N 
HETATM   10  H           1     -19.043  -9.006  -2.634  0.00  0.00     0.159 HD
HETATM   11  H           1     -17.931  -9.141  -3.982  0.00  0.00     0.159 HD
ENDBRANCH   6   7
ENDBRANCH   5   6
BRANCH   5  12
HETATM   12  C           1     -21.618  -6.883  -2.553  0.00  0.00     0.197 C 
HETATM   13  O           1     -22.291  -5.891  -2.198  0.00  0.00    -0.646 OA
HETATM   14  O           1     -20.841  -7.433  -1.741  0.00  0.00    -0.646 OA
ENDBRANCH   5  12
ENDBRANCH   1   5
BRANCH   2  15
HETATM   15  C           1     -20.501  -4.954  -6.617  0.00  0.00     0.274 C 
BRANCH  15  16
HETATM   16  C           1     -21.279  -3.799  -7.232  0.00  0.00     0.045 C 
BRANCH  16  17
HETATM   17 Se           1     -21.794  -4.257  -9.055  0.00  0.00     0.000 Se
HETATM   18  H           1     -21.879  -5.703  -8.790  0.00  0.00     0.000 HD
ENDBRANCH  16  17
ENDBRANCH  15  16
BRANCH  15  19
HETATM   19  N           1     -19.995  -5.851  -7.707  0.00  0.00    -0.067 N 
HETATM   20  H           1     -18.981  -5.662  -7.872  0.00  0.00     0.275 HD
HETATM   21  H           1     -20.122  -6.849  -7.425  0.00  0.00     0.275 HD
HETATM   22  H           1     -20.530  -5.666  -8.586  0.00  0.00     0.275 HD
ENDBRANCH  15  19
ENDBRANCH   2  15
TORSDOF 8
ENDMDL
MODEL 6
REMARK VINA RESULT:      -4.6      3.034      5.955
REMARK  8 active torsions:
REMARK  status: ('A' for Active; 'I' for Inactive)
REMARK       I    between atoms: C_2  and  N_3 
REMARK    1  A    between atoms: C_2  and  C_4 
REMARK    2  A    between atoms: C_4  and  C_5 
REMARK    3  A    between atoms: C_5  and  C_6 
REMARK    4  A    between atoms: C_5  and  N_9 
REMARK       I    between atoms: N_9  and  C_10 
REMARK    5  A    between atoms: C_10  and  C_11 
REMARK    6  A    between atoms: C_11  and  C_12 
REMARK    7  A    between atoms: C_11  and  N_14 
REMARK    8  A    between atoms: C_12  and  Se_13 
ROOT
HETATM    1  N           1     -22.308  -5.471  -7.197  0.00  0.00    -0.344 N 
HETATM    2  C           1     -22.394  -4.266  -7.841  0.00  0.00     0.249 C 
HETATM    3  O           1     -21.889  -3.283  -7.353  0.00  0.00    -0.271 OA
HETATM    4  H           1     -22.731  -6.294  -7.606  0.00  0.00     0.163 HD
ENDROOT
BRANCH   1   5
HETATM    5  C           1     -21.609  -5.568  -5.931  0.00  0.00     0.194 C 
BRANCH   5   6
HETATM    6  C           1     -22.202  -6.706  -5.111  0.00  0.00     0.138 C 
BRANCH   6   7
HETATM    7  C           1     -21.602  -6.694  -3.726  0.00  0.00     0.217 C 
HETATM    8  O           1     -21.902  -5.824  -2.944  0.00  0.00    -0.274 OA
HETATM    9  N           1     -20.716  -7.671  -3.355  0.00  0.00    -0.370 N 
HETATM   10  H           1     -20.464  -8.401  -4.010  0.00  0.00     0.159 HD
HETATM   11  H           1     -20.314  -7.664  -2.427  0.00  0.00     0.159 HD
ENDBRANCH   6   7
ENDBRANCH   5   6
BRANCH   5  12
HETATM   12  C           1     -20.147  -5.838  -6.183  0.00  0.00     0.197 C 
HETATM   13  O           1     -19.760  -6.997  -6.447  0.00  0.00    -0.646 OA
HETATM   14  O           1     -19.320  -4.901  -6.127  0.00  0.00    -0.646 OA
ENDBRANCH   5  12
ENDBRANCH   1   5
BRANCH   2  15
HETATM   15  C           1     -23.122  -4.164  -9.159  0.00  0.00     0.274 C 
BRANCH  15  16
HETATM   16  C           1     -22.244  -3.440 -10.170  0.00  0.00     0.045 C 
BRANCH  16  17
HETATM   17 Se           1     -20.575  -4.419 -10.403  0.00  0.00     0.000 Se
HETATM   18  H           1     -21.025  -5.597  -9.643  0.00  0.00     0.000 HD
ENDBRANCH  16  17
ENDBRANCH  15  16
BRANCH  15  19
HETATM   19  N           1     -24.398  -3.401  -8.968  0.00  0.00    -0.067 N 
HETATM   20  H           1     -24.355  -2.507  -9.506  0.00  0.00     0.275 HD
HETATM   21  H           1     -25.202  -3.975  -9.310  0.00  0.00     0.275 HD
HETATM   22  H           1     -24.528  -3.190  -7.952  0.00  0.00     0.275 HD
ENDBRANCH  15  19
ENDBRANCH   2  15
TORSDOF 8
ENDMDL
MODEL 7
REMARK VINA RESULT:      -4.5      6.289      8.930
REMARK  8 active torsions:
REMARK  status: ('A' for Active; 'I' for Inactive)
REMARK       I    between atoms: C_2  and  N_3 
REMARK    1  A    between atoms: C_2  and  C_4 
REMARK    2  A    between atoms: C_4  and  C_5 
REMARK    3  A    between atoms: C_5  and  C_6 
REMARK    4  A    between atoms: C_5  and  N_9 
REMARK       I    between atoms: N_9  and  C_10 
REMARK    5  A    between atoms: C_10  and  C_11 
REMARK    6  A    between atoms: C_11  and  C_12 
REMARK    7  A    between atoms: C_11  and  N_14 
REMARK    8  A    between atoms: C_12  and  Se_13 
ROOT
HETATM    1  N           1     -21.832  -8.628  -2.642  0.00  0.00    -0.344 N 
HETATM    2  C           1     -20.962  -8.217  -3.615  0.00  0.00     0.249 C 
HETATM    3  O           1     -19.784  -8.465  -3.516  0.00  0.00    -0.271 OA
HETATM    4  H           1     -22.819  -8.420  -2.725  0.00  0.00     0.163 HD
ENDROOT
BRANCH   1   5
HETATM    5  C           1     -21.341  -9.364  -1.494  0.00  0.00     0.194 C 
BRANCH   5   6
HETATM    6  C           1     -21.263  -8.434  -0.291  0.00  0.00     0.138 C 
BRANCH   6   7
HETATM    7  C           1     -22.511  -7.588  -0.226  0.00  0.00     0.217 C 
HETATM    8  O           1     -22.602  -6.592  -0.904  0.00  0.00    -0.274 OA
HETATM    9  N           1     -23.541  -7.949   0.601  0.00  0.00    -0.370 N 
HETATM   10  H           1     -23.465  -8.783   1.169  0.00  0.00     0.159 HD
HETATM   11  H           1     -24.378  -7.382   0.644  0.00  0.00     0.159 HD
ENDBRANCH   6   7
ENDBRANCH   5   6
BRANCH   5  12
HETATM   12  C           1     -22.280 -10.504  -1.188  0.00  0.00     0.197 C 
HETATM   13  O           1     -22.351 -10.963  -0.027  0.00  0.00    -0.646 OA
HETATM   14  O           1     -22.988 -10.992  -2.096  0.00  0.00    -0.646 OA
ENDBRANCH   5  12
ENDBRANCH   1   5
BRANCH   2  15
HETATM   15  C           1     -21.473  -7.451  -4.810  0.00  0.00     0.274 C 
BRANCH  15  16
HETATM   16  C           1     -20.295  -6.931  -5.623  0.00  0.00     0.045 C 
BRANCH  16  17
HETATM   17 Se           1     -20.389  -4.988  -5.736  0.00  0.00     0.000 Se
HETATM   18  H           1     -19.643  -4.764  -4.486  0.00  0.00     0.000 HD
ENDBRANCH  16  17
ENDBRANCH  15  16
BRANCH  15  19
HETATM   19  N           1     -22.307  -6.295  -4.345  0.00  0.00    -0.067 N 
HETATM   20  H           1     -21.821  -5.807  -3.559  0.00  0.00     0.275 HD
HETATM   21  H           1     -22.449  -5.627  -5.135  0.00  0.00     0.275 HD
HETATM   22  H           1     -23.234  -6.647  -4.015  0.00  0.00     0.275 HD
ENDBRANCH  15  19
ENDBRANCH   2  15
TORSDOF 8
ENDMDL
MODEL 8
REMARK VINA RESULT:      -4.3      2.948      5.295
REMARK  8 active torsions:
REMARK  status: ('A' for Active; 'I' for Inactive)
REMARK       I    between atoms: C_2  and  N_3 
REMARK    1  A    between atoms: C_2  and  C_4 
REMARK    2  A    between atoms: C_4  and  C_5 
REMARK    3  A    between atoms: C_5  and  C_6 
REMARK    4  A    between atoms: C_5  and  N_9 
REMARK       I    between atoms: N_9  and  C_10 
REMARK    5  A    between atoms: C_10  and  C_11 
REMARK    6  A    between atoms: C_11  and  C_12 
REMARK    7  A    between atoms: C_11  and  N_14 
REMARK    8  A    between atoms: C_12  and  Se_13 
ROOT
HETATM    1  N           1     -22.103  -4.810  -8.051  0.00  0.00    -0.344 N 
HETATM    2  C           1     -22.967  -4.041  -8.783  0.00  0.00     0.249 C 
HETATM    3  O           1     -22.790  -2.849  -8.869  0.00  0.00    -0.271 OA
HETATM    4  H           1     -22.251  -5.808  -7.979  0.00  0.00     0.163 HD
ENDROOT
BRANCH   1   5
HETATM    5  C           1     -20.974  -4.194  -7.381  0.00  0.00     0.194 C 
BRANCH   5   6
HETATM    6  C           1     -20.870  -4.737  -5.962  0.00  0.00     0.138 C 
BRANCH   6   7
HETATM    7  C           1     -21.563  -6.075  -5.882  0.00  0.00     0.217 C 
HETATM    8  O           1     -21.153  -7.008  -6.530  0.00  0.00    -0.274 OA
HETATM    9  N           1     -22.658  -6.231  -5.074  0.00  0.00    -0.370 N 
HETATM   10  H           1     -23.002  -5.450  -4.530  0.00  0.00     0.159 HD
HETATM   11  H           1     -23.123  -7.128  -5.020  0.00  0.00     0.159 HD
ENDBRANCH   6   7
ENDBRANCH   5   6
BRANCH   5  12
HETATM   12  C           1     -19.707  -4.511  -8.136  0.00  0.00     0.197 C 
HETATM   13  O           1     -19.767  -4.917  -9.316  0.00  0.00    -0.646 OA
HETATM   14  O           1     -18.596  -4.368  -7.580  0.00  0.00    -0.646 OA
ENDBRANCH   5  12
ENDBRANCH   1   5
BRANCH   2  15
HETATM   15  C           1     -24.142  -4.680  -9.480  0.00  0.00     0.274 C 
BRANCH  15  16
HETATM   16  C           1     -23.672  -5.338 -10.770  0.00  0.00     0.045 C 
BRANCH  16  17
HETATM   17 Se           1     -22.278  -4.247 -11.587  0.00  0.00     0.000 Se
HETATM   18  H           1     -21.181  -5.143 -11.187  0.00  0.00     0.000 HD
ENDBRANCH  16  17
ENDBRANCH  15  16
BRANCH  15  19
HETATM   19  N           1     -25.166  -3.632  -9.799  0.00  0.00    -0.067 N 
HETATM   20  H           1     -25.474  -3.735 -10.791  0.00  0.00     0.275 HD
HETATM   21  H           1     -25.989  -3.746  -9.165  0.00  0.00     0.275 HD
HETATM   22  H           1     -24.747  -2.685  -9.660  0.00  0.00     0.275 HD
ENDBRANCH  15  19
ENDBRANCH   2  15
TORSDOF 8
ENDMDL
MODEL 9
REMARK VINA RESULT:      -4.3      5.024      7.157
REMARK  8 active torsions:
REMARK  status: ('A' for Active; 'I' for Inactive)
REMARK       I    between atoms: C_2  and  N_3 
REMARK    1  A    between atoms: C_2  and  C_4 
REMARK    2  A    between atoms: C_4  and  C_5 
REMARK    3  A    between atoms: C_5  and  C_6 
REMARK    4  A    between atoms: C_5  and  N_9 
REMARK       I    between atoms: N_9  and  C_10 
REMARK    5  A    between atoms: C_10  and  C_11 
REMARK    6  A    between atoms: C_11  and  C_12 
REMARK    7  A    between atoms: C_11  and  N_14 
REMARK    8  A    between atoms: C_12  and  Se_13 
ROOT
HETATM    1  N           1     -20.672  -7.948  -3.430  0.00  0.00    -0.344 N 
HETATM    2  C           1     -21.456  -8.176  -2.331  0.00  0.00     0.249 C 
HETATM    3  O           1     -21.974  -9.255  -2.173  0.00  0.00    -0.271 OA
HETATM    4  H           1     -20.237  -7.044  -3.563  0.00  0.00     0.163 HD
ENDROOT
BRANCH   1   5
HETATM    5  C           1     -20.462  -9.003  -4.402  0.00  0.00     0.194 C 
BRANCH   5   6
HETATM    6  C           1     -21.249  -8.690  -5.668  0.00  0.00     0.138 C 
BRANCH   6   7
HETATM    7  C           1     -21.342  -7.194  -5.846  0.00  0.00     0.217 C 
HETATM    8  O           1     -22.214  -6.572  -5.288  0.00  0.00    -0.274 OA
HETATM    9  N           1     -20.436  -6.542  -6.640  0.00  0.00    -0.370 N 
HETATM   10  H           1     -19.705  -7.063  -7.107  0.00  0.00     0.159 HD
HETATM   11  H           1     -20.498  -5.539  -6.759  0.00  0.00     0.159 HD
ENDBRANCH   6   7
ENDBRANCH   5   6
BRANCH   5  12
HETATM   12  C           1     -18.994  -9.098  -4.733  0.00  0.00     0.197 C 
HETATM   13  O           1     -18.620  -9.109  -5.925  0.00  0.00    -0.646 OA
HETATM   14  O           1     -18.149  -9.167  -3.813  0.00  0.00    -0.646 OA
ENDBRANCH   5  12
ENDBRANCH   1   5
BRANCH   2  15
HETATM   15  C           1     -21.674  -7.079  -1.319  0.00  0.00     0.274 C 
BRANCH  15  16
HETATM   16  C           1     -22.562  -7.592  -0.194  0.00  0.00     0.045 C 
BRANCH  16  17
HETATM   17 Se           1     -21.457  -8.429   1.176  0.00  0.00     0.000 Se
HETATM   18  H           1     -21.878  -9.800   0.843  0.00  0.00     0.000 HD
ENDBRANCH  16  17
ENDBRANCH  15  16
BRANCH  15  19
HETATM   19  N           1     -22.337  -5.909  -1.984  0.00  0.00    -0.067 N 
HETATM   20  H           1     -21.701  -5.082  -1.952  0.00  0.00     0.275 HD
HETATM   21  H           1     -22.548  -6.148  -2.980  0.00  0.00     0.275 HD
HETATM   22  H           1     -23.227  -5.684  -1.484  0.00  0.00     0.275 HD
ENDBRANCH  15  19
ENDBRANCH   2  15
TORSDOF 8
ENDMDL
