MODEL 1
REMARK VINA RESULT:      -7.1      0.000      0.000
REMARK  10 active torsions:
REMARK  status: ('A' for Active; 'I' for Inactive)
REMARK    1  A    between atoms: C_1  and  C_3 
REMARK    2  A    between atoms: C_2  and  C_14 
REMARK    3  A    between atoms: C_2  and  N_25 
REMARK    4  A    between atoms: C_3  and  C_12 
REMARK    5  A    between atoms: N_6  and  C_12 
REMARK       I    between atoms: N_6  and  C_9 
REMARK    6  A    between atoms: C_9  and  C_20 
REMARK    7  A    between atoms: C_12  and  C_22 
REMARK    8  A    between atoms: C_14  and  C_15 
REMARK    9  A    between atoms: C_15  and  C_20 
REMARK   10  A    between atoms: C_20  and  N_24 
ROOT
HETATM    1  N           1     -35.832  -1.332 -10.058  0.00  0.00    -0.344 N 
HETATM    2  C           1     -34.746  -1.999 -10.557  0.00  0.00     0.249 C 
HETATM    3  O           1     -33.638  -1.736 -10.154  0.00  0.00    -0.271 OA
HETATM    4  H           1     -36.318  -1.692  -9.246  0.00  0.00     0.163 HD
ENDROOT
BRANCH   2   5
HETATM    5  C           1     -34.933  -3.062 -11.611  0.00  0.00     0.274 C 
BRANCH   5   6
HETATM    6  C           1     -35.402  -4.353 -10.954  0.00  0.00     0.044 C 
BRANCH   6   7
HETATM    7  C           1     -34.274  -5.375 -10.979  0.00  0.00     0.030 C 
BRANCH   7   8
HETATM    8  C           1     -34.662  -6.582 -10.133  0.00  0.00     0.230 C 
BRANCH   8   9
HETATM    9  N           1     -34.809  -7.786 -11.016  0.00  0.00    -0.079 N 
HETATM   10  H           1     -34.980  -7.478 -11.999  0.00  0.00     0.274 HD
HETATM   11  H           1     -33.934  -8.355 -10.977  0.00  0.00     0.274 HD
HETATM   12  H           1     -35.615  -8.364 -10.686  0.00  0.00     0.274 HD
ENDBRANCH   8   9
ENDBRANCH   7   8
ENDBRANCH   6   7
ENDBRANCH   5   6
BRANCH   5  13
HETATM   13  N           1     -33.630  -3.304 -12.313  0.00  0.00    -0.067 N 
HETATM   14  H           1     -33.565  -2.683 -13.152  0.00  0.00     0.275 HD
HETATM   15  H           1     -32.839  -3.093 -11.662  0.00  0.00     0.275 HD
HETATM   16  H           1     -33.578  -4.303 -12.615  0.00  0.00     0.275 HD
ENDBRANCH   5  13
ENDBRANCH   2   5
BRANCH   1  17
HETATM   17  C           1     -36.286  -0.109 -10.691  0.00  0.00     0.189 C 
BRANCH  17  18
HETATM   18  C           1     -37.287  -0.448 -11.788  0.00  0.00     0.074 C 
BRANCH  18  19
HETATM   19  C           1     -36.746  -0.010 -13.113  0.00  0.00    -0.056 A 
HETATM   20  C           1     -37.548  -0.085 -14.252  0.00  0.00     0.007 A 
HETATM   21  C           1     -37.045   0.323 -15.487  0.00  0.00     0.001 A 
HETATM   22  C           1     -35.740   0.806 -15.582  0.00  0.00     0.000 A 
HETATM   23  C           1     -34.939   0.883 -14.444  0.00  0.00     0.001 A 
HETATM   24  C           1     -35.442   0.474 -13.209  0.00  0.00     0.007 A 
ENDBRANCH  18  19
ENDBRANCH  17  18
BRANCH  17  25
HETATM   25  C           1     -36.947   0.775  -9.661  0.00  0.00     0.197 C 
HETATM   26  O           1     -38.075   1.263  -9.888  0.00  0.00    -0.646 OA
HETATM   27  O           1     -36.365   1.019  -8.582  0.00  0.00    -0.646 OA
ENDBRANCH  17  25
ENDBRANCH   1  17
TORSDOF 10
ENDMDL
MODEL 2
REMARK VINA RESULT:      -6.8      2.739      5.730
REMARK  10 active torsions:
REMARK  status: ('A' for Active; 'I' for Inactive)
REMARK    1  A    between atoms: C_1  and  C_3 
REMARK    2  A    between atoms: C_2  and  C_14 
REMARK    3  A    between atoms: C_2  and  N_25 
REMARK    4  A    between atoms: C_3  and  C_12 
REMARK    5  A    between atoms: N_6  and  C_12 
REMARK       I    between atoms: N_6  and  C_9 
REMARK    6  A    between atoms: C_9  and  C_20 
REMARK    7  A    between atoms: C_12  and  C_22 
REMARK    8  A    between atoms: C_14  and  C_15 
REMARK    9  A    between atoms: C_15  and  C_20 
REMARK   10  A    between atoms: C_20  and  N_24 
ROOT
HETATM    1  N           1     -34.934  -0.950 -13.577  0.00  0.00    -0.344 N 
HETATM    2  C           1     -35.245   0.299 -14.045  0.00  0.00     0.249 C 
HETATM    3  O           1     -34.576   1.250 -13.719  0.00  0.00    -0.271 OA
HETATM    4  H           1     -34.297  -1.541 -14.095  0.00  0.00     0.163 HD
ENDROOT
BRANCH   2   5
HETATM    5  C           1     -36.423   0.486 -14.970  0.00  0.00     0.274 C 
BRANCH   5   6
HETATM    6  C           1     -36.637  -0.783 -15.784  0.00  0.00     0.044 C 
BRANCH   6   7
HETATM    7  C           1     -35.433  -1.018 -16.686  0.00  0.00     0.030 C 
BRANCH   7   8
HETATM    8  C           1     -35.057  -2.494 -16.657  0.00  0.00     0.230 C 
BRANCH   8   9
HETATM    9  N           1     -33.777  -2.699 -17.414  0.00  0.00    -0.079 N 
HETATM   10  H           1     -33.173  -1.854 -17.311  0.00  0.00     0.274 HD
HETATM   11  H           1     -33.277  -3.533 -17.033  0.00  0.00     0.274 HD
HETATM   12  H           1     -33.992  -2.854 -18.425  0.00  0.00     0.274 HD
ENDBRANCH   8   9
ENDBRANCH   7   8
ENDBRANCH   6   7
ENDBRANCH   5   6
BRANCH   5  13
HETATM   13  N           1     -36.153   1.634 -15.896  0.00  0.00    -0.067 N 
HETATM   14  H           1     -36.950   2.309 -15.856  0.00  0.00     0.275 HD
HETATM   15  H           1     -35.273   2.118 -15.604  0.00  0.00     0.275 HD
HETATM   16  H           1     -36.047   1.277 -16.872  0.00  0.00     0.275 HD
ENDBRANCH   5  13
ENDBRANCH   2   5
BRANCH   1  17
HETATM   17  C           1     -35.518  -1.424 -12.337  0.00  0.00     0.189 C 
BRANCH  17  18
HETATM   18  C           1     -34.414  -1.661 -11.315  0.00  0.00     0.074 C 
BRANCH  18  19
HETATM   19  C           1     -34.092  -3.122 -11.256  0.00  0.00    -0.056 A 
HETATM   20  C           1     -32.867  -3.585 -11.737  0.00  0.00     0.007 A 
HETATM   21  C           1     -32.566  -4.946 -11.682  0.00  0.00     0.001 A 
HETATM   22  C           1     -33.489  -5.843 -11.145  0.00  0.00     0.000 A 
HETATM   23  C           1     -34.713  -5.379 -10.663  0.00  0.00     0.001 A 
HETATM   24  C           1     -35.014  -4.019 -10.719  0.00  0.00     0.007 A 
ENDBRANCH  18  19
ENDBRANCH  17  18
BRANCH  17  25
HETATM   25  C           1     -36.481  -0.389 -11.807  0.00  0.00     0.197 C 
HETATM   26  O           1     -36.076   0.500 -11.028  0.00  0.00    -0.646 OA
HETATM   27  O           1     -37.683  -0.423 -12.147  0.00  0.00    -0.646 OA
ENDBRANCH  17  25
ENDBRANCH   1  17
TORSDOF 10
ENDMDL
MODEL 3
REMARK VINA RESULT:      -6.6     11.423     13.109
REMARK  10 active torsions:
REMARK  status: ('A' for Active; 'I' for Inactive)
REMARK    1  A    between atoms: C_1  and  C_3 
REMARK    2  A    between atoms: C_2  and  C_14 
REMARK    3  A    between atoms: C_2  and  N_25 
REMARK    4  A    between atoms: C_3  and  C_12 
REMARK    5  A    between atoms: N_6  and  C_12 
REMARK       I    between atoms: N_6  and  C_9 
REMARK    6  A    between atoms: C_9  and  C_20 
REMARK    7  A    between atoms: C_12  and  C_22 
REMARK    8  A    between atoms: C_14  and  C_15 
REMARK    9  A    between atoms: C_15  and  C_20 
REMARK   10  A    between atoms: C_20  and  N_24 
ROOT
HETATM    1  N           1     -25.604  -7.265 -18.203  0.00  0.00    -0.344 N 
HETATM    2  C           1     -24.928  -6.759 -19.281  0.00  0.00     0.249 C 
HETATM    3  O           1     -23.822  -6.294 -19.137  0.00  0.00    -0.271 OA
HETATM    4  H           1     -25.502  -8.240 -17.954  0.00  0.00     0.163 HD
ENDROOT
BRANCH   2   5
HETATM    5  C           1     -25.563  -6.783 -20.649  0.00  0.00     0.274 C 
BRANCH   5   6
HETATM    6  C           1     -25.104  -8.024 -21.402  0.00  0.00     0.044 C 
BRANCH   6   7
HETATM    7  C           1     -24.087  -7.627 -22.464  0.00  0.00     0.030 C 
BRANCH   7   8
HETATM    8  C           1     -22.860  -8.524 -22.353  0.00  0.00     0.230 C 
BRANCH   8   9
HETATM    9  N           1     -22.596  -8.834 -20.908  0.00  0.00    -0.079 N 
HETATM   10  H           1     -22.656  -9.866 -20.758  0.00  0.00     0.274 HD
HETATM   11  H           1     -21.641  -8.500 -20.650  0.00  0.00     0.274 HD
HETATM   12  H           1     -23.307  -8.352 -20.313  0.00  0.00     0.274 HD
ENDBRANCH   8   9
ENDBRANCH   7   8
ENDBRANCH   6   7
ENDBRANCH   5   6
BRANCH   5  13
HETATM   13  N           1     -25.156  -5.557 -21.411  0.00  0.00    -0.067 N 
HETATM   14  H           1     -26.009  -5.040 -21.722  0.00  0.00     0.275 HD
HETATM   15  H           1     -24.580  -4.939 -20.794  0.00  0.00     0.275 HD
HETATM   16  H           1     -24.594  -5.837 -22.246  0.00  0.00     0.275 HD
ENDBRANCH   5  13
ENDBRANCH   2   5
BRANCH   1  17
HETATM   17  C           1     -26.464  -6.401 -17.418  0.00  0.00     0.189 C 
BRANCH  17  18
HETATM   18  C           1     -27.917  -6.812 -17.623  0.00  0.00     0.074 C 
BRANCH  18  19
HETATM   19  C           1     -28.799  -5.609 -17.506  0.00  0.00    -0.056 A 
HETATM   20  C           1     -30.181  -5.766 -17.398  0.00  0.00     0.007 A 
HETATM   21  C           1     -31.004  -4.645 -17.288  0.00  0.00     0.001 A 
HETATM   22  C           1     -30.444  -3.368 -17.286  0.00  0.00     0.000 A 
HETATM   23  C           1     -29.063  -3.210 -17.393  0.00  0.00     0.001 A 
HETATM   24  C           1     -28.240  -4.331 -17.503  0.00  0.00     0.007 A 
ENDBRANCH  18  19
ENDBRANCH  17  18
BRANCH  17  25
HETATM   25  C           1     -26.106  -6.530 -15.957  0.00  0.00     0.197 C 
HETATM   26  O           1     -25.212  -5.807 -15.467  0.00  0.00    -0.646 OA
HETATM   27  O           1     -26.705  -7.358 -15.238  0.00  0.00    -0.646 OA
ENDBRANCH  17  25
ENDBRANCH   1  17
TORSDOF 10
ENDMDL
MODEL 4
REMARK VINA RESULT:      -6.6      1.888      2.740
REMARK  10 active torsions:
REMARK  status: ('A' for Active; 'I' for Inactive)
REMARK    1  A    between atoms: C_1  and  C_3 
REMARK    2  A    between atoms: C_2  and  C_14 
REMARK    3  A    between atoms: C_2  and  N_25 
REMARK    4  A    between atoms: C_3  and  C_12 
REMARK    5  A    between atoms: N_6  and  C_12 
REMARK       I    between atoms: N_6  and  C_9 
REMARK    6  A    between atoms: C_9  and  C_20 
REMARK    7  A    between atoms: C_12  and  C_22 
REMARK    8  A    between atoms: C_14  and  C_15 
REMARK    9  A    between atoms: C_15  and  C_20 
REMARK   10  A    between atoms: C_20  and  N_24 
ROOT
HETATM    1  N           1     -33.611  -2.889 -11.668  0.00  0.00    -0.344 N 
HETATM    2  C           1     -33.747  -4.026 -12.419  0.00  0.00     0.249 C 
HETATM    3  O           1     -33.191  -4.112 -13.488  0.00  0.00    -0.271 OA
HETATM    4  H           1     -32.858  -2.812 -10.997  0.00  0.00     0.163 HD
ENDROOT
BRANCH   2   5
HETATM    5  C           1     -34.590  -5.170 -11.912  0.00  0.00     0.274 C 
BRANCH   5   6
HETATM    6  C           1     -33.773  -6.012 -10.941  0.00  0.00     0.044 C 
BRANCH   6   7
HETATM    7  C           1     -34.700  -6.640  -9.909  0.00  0.00     0.030 C 
BRANCH   7   8
HETATM    8  C           1     -34.715  -8.152 -10.092  0.00  0.00     0.230 C 
BRANCH   8   9
HETATM    9  N           1     -33.325  -8.634 -10.391  0.00  0.00    -0.079 N 
HETATM   10  H           1     -33.190  -8.686 -11.425  0.00  0.00     0.274 HD
HETATM   11  H           1     -32.631  -7.969  -9.983  0.00  0.00     0.274 HD
HETATM   12  H           1     -33.188  -9.581  -9.972  0.00  0.00     0.274 HD
ENDBRANCH   8   9
ENDBRANCH   7   8
ENDBRANCH   6   7
ENDBRANCH   5   6
BRANCH   5  13
HETATM   13  N           1     -35.024  -6.021 -13.068  0.00  0.00    -0.067 N 
HETATM   14  H           1     -35.861  -5.590 -13.523  0.00  0.00     0.275 HD
HETATM   15  H           1     -34.246  -6.087 -13.763  0.00  0.00     0.275 HD
HETATM   16  H           1     -35.268  -6.977 -12.724  0.00  0.00     0.275 HD
ENDBRANCH   5  13
ENDBRANCH   2   5
BRANCH   1  17
HETATM   17  C           1     -34.548  -1.795 -11.835  0.00  0.00     0.189 C 
BRANCH  17  18
HETATM   18  C           1     -35.299  -1.967 -13.149  0.00  0.00     0.074 C 
BRANCH  18  19
HETATM   19  C           1     -35.345  -0.659 -13.875  0.00  0.00    -0.056 A 
HETATM   20  C           1     -34.717   0.462 -13.331  0.00  0.00     0.007 A 
HETATM   21  C           1     -34.758   1.681 -14.007  0.00  0.00     0.001 A 
HETATM   22  C           1     -35.428   1.779 -15.227  0.00  0.00     0.000 A 
HETATM   23  C           1     -36.055   0.659 -15.771  0.00  0.00     0.001 A 
HETATM   24  C           1     -36.014  -0.560 -15.095  0.00  0.00     0.007 A 
ENDBRANCH  18  19
ENDBRANCH  17  18
BRANCH  17  25
HETATM   25  C           1     -35.530  -1.795 -10.690  0.00  0.00     0.197 C 
HETATM   26  O           1     -35.287  -1.133  -9.657  0.00  0.00    -0.646 OA
HETATM   27  O           1     -36.587  -2.457 -10.773  0.00  0.00    -0.646 OA
ENDBRANCH  17  25
ENDBRANCH   1  17
TORSDOF 10
ENDMDL
MODEL 5
REMARK VINA RESULT:      -6.5     15.046     18.401
REMARK  10 active torsions:
REMARK  status: ('A' for Active; 'I' for Inactive)
REMARK    1  A    between atoms: C_1  and  C_3 
REMARK    2  A    between atoms: C_2  and  C_14 
REMARK    3  A    between atoms: C_2  and  N_25 
REMARK    4  A    between atoms: C_3  and  C_12 
REMARK    5  A    between atoms: N_6  and  C_12 
REMARK       I    between atoms: N_6  and  C_9 
REMARK    6  A    between atoms: C_9  and  C_20 
REMARK    7  A    between atoms: C_12  and  C_22 
REMARK    8  A    between atoms: C_14  and  C_15 
REMARK    9  A    between atoms: C_15  and  C_20 
REMARK   10  A    between atoms: C_20  and  N_24 
ROOT
HETATM    1  N           1     -20.850  -8.003  -5.641  0.00  0.00    -0.344 N 
HETATM    2  C           1     -20.480  -6.785  -6.145  0.00  0.00     0.249 C 
HETATM    3  O           1     -19.604  -6.715  -6.974  0.00  0.00    -0.271 OA
HETATM    4  H           1     -21.583  -8.536  -6.091  0.00  0.00     0.163 HD
ENDROOT
BRANCH   2   5
HETATM    5  C           1     -21.167  -5.530  -5.665  0.00  0.00     0.274 C 
BRANCH   5   6
HETATM    6  C           1     -22.214  -5.101  -6.685  0.00  0.00     0.044 C 
BRANCH   6   7
HETATM    7  C           1     -21.707  -3.889  -7.455  0.00  0.00     0.030 C 
BRANCH   7   8
HETATM    8  C           1     -22.525  -3.718  -8.729  0.00  0.00     0.230 C 
BRANCH   8   9
HETATM    9  N           1     -23.985  -3.850  -8.408  0.00  0.00    -0.079 N 
HETATM   10  H           1     -24.414  -4.572  -9.030  0.00  0.00     0.274 HD
HETATM   11  H           1     -24.098  -4.139  -7.411  0.00  0.00     0.274 HD
HETATM   12  H           1     -24.459  -2.931  -8.560  0.00  0.00     0.274 HD
ENDBRANCH   8   9
ENDBRANCH   7   8
ENDBRANCH   6   7
ENDBRANCH   5   6
BRANCH   5  13
HETATM   13  N           1     -20.153  -4.437  -5.502  0.00  0.00    -0.067 N 
HETATM   14  H           1     -20.198  -3.793  -6.324  0.00  0.00     0.275 HD
HETATM   15  H           1     -20.357  -3.900  -4.628  0.00  0.00     0.275 HD
HETATM   16  H           1     -19.197  -4.856  -5.439  0.00  0.00     0.275 HD
ENDBRANCH   5  13
ENDBRANCH   2   5
BRANCH   1  17
HETATM   17  C           1     -20.191  -8.529  -4.461  0.00  0.00     0.189 C 
BRANCH  17  18
HETATM   18  C           1     -21.156  -9.428  -3.700  0.00  0.00     0.074 C 
BRANCH  18  19
HETATM   19  C           1     -21.639  -8.720  -2.473  0.00  0.00    -0.056 A 
HETATM   20  C           1     -21.684  -7.325  -2.446  0.00  0.00     0.007 A 
HETATM   21  C           1     -22.134  -6.664  -1.304  0.00  0.00     0.001 A 
HETATM   22  C           1     -22.539  -7.398  -0.188  0.00  0.00     0.000 A 
HETATM   23  C           1     -22.494  -8.791  -0.215  0.00  0.00     0.001 A 
HETATM   24  C           1     -22.044  -9.452  -1.357  0.00  0.00     0.007 A 
ENDBRANCH  18  19
ENDBRANCH  17  18
BRANCH  17  25
HETATM   25  C           1     -18.980  -9.328  -4.877  0.00  0.00     0.197 C 
HETATM   26  O           1     -17.960  -9.341  -4.154  0.00  0.00    -0.646 OA
HETATM   27  O           1     -18.997  -9.977  -5.945  0.00  0.00    -0.646 OA
ENDBRANCH  17  25
ENDBRANCH   1  17
TORSDOF 10
ENDMDL
MODEL 6
REMARK VINA RESULT:      -6.3     14.329     16.248
REMARK  10 active torsions:
REMARK  status: ('A' for Active; 'I' for Inactive)
REMARK    1  A    between atoms: C_1  and  C_3 
REMARK    2  A    between atoms: C_2  and  C_14 
REMARK    3  A    between atoms: C_2  and  N_25 
REMARK    4  A    between atoms: C_3  and  C_12 
REMARK    5  A    between atoms: N_6  and  C_12 
REMARK       I    between atoms: N_6  and  C_9 
REMARK    6  A    between atoms: C_9  and  C_20 
REMARK    7  A    between atoms: C_12  and  C_22 
REMARK    8  A    between atoms: C_14  and  C_15 
REMARK    9  A    between atoms: C_15  and  C_20 
REMARK   10  A    between atoms: C_20  and  N_24 
ROOT
HETATM    1  N           1     -22.256  -5.729  -5.654  0.00  0.00    -0.344 N 
HETATM    2  C           1     -21.634  -6.360  -4.610  0.00  0.00     0.249 C 
HETATM    3  O           1     -21.000  -5.718  -3.808  0.00  0.00    -0.271 OA
HETATM    4  H           1     -23.206  -5.395  -5.550  0.00  0.00     0.163 HD
ENDROOT
BRANCH   2   5
HETATM    5  C           1     -21.742  -7.858  -4.462  0.00  0.00     0.274 C 
BRANCH   5   6
HETATM    6  C           1     -20.898  -8.314  -3.279  0.00  0.00     0.044 C 
BRANCH   6   7
HETATM    7  C           1     -21.794  -8.984  -2.245  0.00  0.00     0.030 C 
BRANCH   7   8
HETATM    8  C           1     -21.708  -8.222  -0.929  0.00  0.00     0.230 C 
BRANCH   8   9
HETATM    9  N           1     -22.209  -6.821  -1.127  0.00  0.00    -0.079 N 
HETATM   10  H           1     -21.444  -6.232  -1.527  0.00  0.00     0.274 HD
HETATM   11  H           1     -23.020  -6.831  -1.785  0.00  0.00     0.274 HD
HETATM   12  H           1     -22.511  -6.426  -0.208  0.00  0.00     0.274 HD
ENDBRANCH   8   9
ENDBRANCH   7   8
ENDBRANCH   6   7
ENDBRANCH   5   6
BRANCH   5  13
HETATM   13  N           1     -21.246  -8.520  -5.713  0.00  0.00    -0.067 N 
HETATM   14  H           1     -20.210  -8.405  -5.782  0.00  0.00     0.275 HD
HETATM   15  H           1     -21.482  -9.538  -5.685  0.00  0.00     0.275 HD
HETATM   16  H           1     -21.702  -8.079  -6.544  0.00  0.00     0.275 HD
ENDBRANCH   5  13
ENDBRANCH   2   5
BRANCH   1  17
HETATM   17  C           1     -21.553  -5.538  -6.907  0.00  0.00     0.189 C 
BRANCH  17  18
HETATM   18  C           1     -21.910  -4.174  -7.485  0.00  0.00     0.074 C 
BRANCH  18  19
HETATM   19  C           1     -21.885  -4.242  -8.980  0.00  0.00    -0.056 A 
HETATM   20  C           1     -20.689  -4.034  -9.668  0.00  0.00     0.007 A 
HETATM   21  C           1     -20.665  -4.098 -11.061  0.00  0.00     0.001 A 
HETATM   22  C           1     -21.838  -4.370 -11.766  0.00  0.00     0.000 A 
HETATM   23  C           1     -23.033  -4.579 -11.079  0.00  0.00     0.001 A 
HETATM   24  C           1     -23.057  -4.515  -9.686  0.00  0.00     0.007 A 
ENDBRANCH  18  19
ENDBRANCH  17  18
BRANCH  17  25
HETATM   25  C           1     -20.065  -5.608  -6.664  0.00  0.00     0.197 C 
HETATM   26  O           1     -19.451  -4.601  -6.248  0.00  0.00    -0.646 OA
HETATM   27  O           1     -19.447  -6.673  -6.880  0.00  0.00    -0.646 OA
ENDBRANCH  17  25
ENDBRANCH   1  17
TORSDOF 10
ENDMDL
MODEL 7
REMARK VINA RESULT:      -6.2     10.423     12.594
REMARK  10 active torsions:
REMARK  status: ('A' for Active; 'I' for Inactive)
REMARK    1  A    between atoms: C_1  and  C_3 
REMARK    2  A    between atoms: C_2  and  C_14 
REMARK    3  A    between atoms: C_2  and  N_25 
REMARK    4  A    between atoms: C_3  and  C_12 
REMARK    5  A    between atoms: N_6  and  C_12 
REMARK       I    between atoms: N_6  and  C_9 
REMARK    6  A    between atoms: C_9  and  C_20 
REMARK    7  A    between atoms: C_12  and  C_22 
REMARK    8  A    between atoms: C_14  and  C_15 
REMARK    9  A    between atoms: C_15  and  C_20 
REMARK   10  A    between atoms: C_20  and  N_24 
ROOT
HETATM    1  N           1     -28.001  -6.782 -16.394  0.00  0.00    -0.344 N 
HETATM    2  C           1     -29.048  -7.546 -16.833  0.00  0.00     0.249 C 
HETATM    3  O           1     -29.278  -8.612 -16.312  0.00  0.00    -0.271 OA
HETATM    4  H           1     -28.143  -6.103 -15.656  0.00  0.00     0.163 HD
ENDROOT
BRANCH   2   5
HETATM    5  C           1     -29.915  -7.058 -17.968  0.00  0.00     0.274 C 
BRANCH   5   6
HETATM    6  C           1     -31.238  -6.546 -17.413  0.00  0.00     0.044 C 
BRANCH   6   7
HETATM    7  C           1     -31.014  -5.210 -16.717  0.00  0.00     0.030 C 
BRANCH   7   8
HETATM    8  C           1     -30.333  -4.244 -17.678  0.00  0.00     0.230 C 
BRANCH   8   9
HETATM    9  N           1     -31.127  -2.973 -17.756  0.00  0.00    -0.079 N 
HETATM   10  H           1     -30.558  -2.184 -17.373  0.00  0.00     0.274 HD
HETATM   11  H           1     -31.371  -2.774 -18.752  0.00  0.00     0.274 HD
HETATM   12  H           1     -32.004  -3.075 -17.196  0.00  0.00     0.274 HD
ENDBRANCH   8   9
ENDBRANCH   7   8
ENDBRANCH   6   7
ENDBRANCH   5   6
BRANCH   5  13
HETATM   13  N           1     -30.176  -8.188 -18.919  0.00  0.00    -0.067 N 
HETATM   14  H           1     -30.038  -7.857 -19.900  0.00  0.00     0.275 HD
HETATM   15  H           1     -29.512  -8.971 -18.720  0.00  0.00     0.275 HD
HETATM   16  H           1     -31.158  -8.524 -18.799  0.00  0.00     0.275 HD
ENDBRANCH   5  13
ENDBRANCH   2   5
BRANCH   1  17
HETATM   17  C           1     -26.687  -6.945 -16.985  0.00  0.00     0.189 C 
BRANCH  17  18
HETATM   18  C           1     -26.553  -6.017 -18.186  0.00  0.00     0.074 C 
BRANCH  18  19
HETATM   19  C           1     -25.941  -6.764 -19.330  0.00  0.00    -0.056 A 
HETATM   20  C           1     -24.562  -6.976 -19.364  0.00  0.00     0.007 A 
HETATM   21  C           1     -23.990  -7.672 -20.429  0.00  0.00     0.001 A 
HETATM   22  C           1     -24.797  -8.156 -21.459  0.00  0.00     0.000 A 
HETATM   23  C           1     -26.175  -7.944 -21.424  0.00  0.00     0.001 A 
HETATM   24  C           1     -26.747  -7.248 -20.360  0.00  0.00     0.007 A 
ENDBRANCH  18  19
ENDBRANCH  17  18
BRANCH  17  25
HETATM   25  C           1     -25.630  -6.601 -15.964  0.00  0.00     0.197 C 
HETATM   26  O           1     -25.056  -5.492 -16.007  0.00  0.00    -0.646 OA
HETATM   27  O           1     -25.329  -7.427 -15.075  0.00  0.00    -0.646 OA
ENDBRANCH  17  25
ENDBRANCH   1  17
TORSDOF 10
ENDMDL
MODEL 8
REMARK VINA RESULT:      -6.1      2.309      4.105
REMARK  10 active torsions:
REMARK  status: ('A' for Active; 'I' for Inactive)
REMARK    1  A    between atoms: C_1  and  C_3 
REMARK    2  A    between atoms: C_2  and  C_14 
REMARK    3  A    between atoms: C_2  and  N_25 
REMARK    4  A    between atoms: C_3  and  C_12 
REMARK    5  A    between atoms: N_6  and  C_12 
REMARK       I    between atoms: N_6  and  C_9 
REMARK    6  A    between atoms: C_9  and  C_20 
REMARK    7  A    between atoms: C_12  and  C_22 
REMARK    8  A    between atoms: C_14  and  C_15 
REMARK    9  A    between atoms: C_15  and  C_20 
REMARK   10  A    between atoms: C_20  and  N_24 
ROOT
HETATM    1  N           1     -34.777  -1.039 -12.770  0.00  0.00    -0.344 N 
HETATM    2  C           1     -34.470  -2.373 -12.756  0.00  0.00     0.249 C 
HETATM    3  O           1     -34.640  -3.042 -13.747  0.00  0.00    -0.271 OA
HETATM    4  H           1     -34.075  -0.361 -13.040  0.00  0.00     0.163 HD
ENDROOT
BRANCH   2   5
HETATM    5  C           1     -33.920  -3.007 -11.502  0.00  0.00     0.274 C 
BRANCH   5   6
HETATM    6  C           1     -34.971  -3.925 -10.893  0.00  0.00     0.044 C 
BRANCH   6   7
HETATM    7  C           1     -34.297  -5.172 -10.337  0.00  0.00     0.030 C 
BRANCH   7   8
HETATM    8  C           1     -34.468  -6.323 -11.320  0.00  0.00     0.230 C 
BRANCH   8   9
HETATM    9  N           1     -34.457  -7.625 -10.574  0.00  0.00    -0.079 N 
HETATM   10  H           1     -33.472  -7.886 -10.345  0.00  0.00     0.274 HD
HETATM   11  H           1     -35.004  -7.524  -9.690  0.00  0.00     0.274 HD
HETATM   12  H           1     -34.888  -8.370 -11.167  0.00  0.00     0.274 HD
ENDBRANCH   8   9
ENDBRANCH   7   8
ENDBRANCH   6   7
ENDBRANCH   5   6
BRANCH   5  13
HETATM   13  N           1     -33.559  -1.936 -10.517  0.00  0.00    -0.067 N 
HETATM   14  H           1     -34.414  -1.646  -9.989  0.00  0.00     0.275 HD
HETATM   15  H           1     -32.845  -2.304  -9.848  0.00  0.00     0.275 HD
HETATM   16  H           1     -33.168  -1.112 -11.027  0.00  0.00     0.275 HD
ENDBRANCH   5  13
ENDBRANCH   2   5
BRANCH   1  17
HETATM   17  C           1     -36.107  -0.598 -12.399  0.00  0.00     0.189 C 
BRANCH  17  18
HETATM   18  C           1     -36.004   0.654 -11.538  0.00  0.00     0.074 C 
BRANCH  18  19
HETATM   19  C           1     -36.661   0.408 -10.216  0.00  0.00    -0.056 A 
HETATM   20  C           1     -36.980   1.482  -9.385  0.00  0.00     0.007 A 
HETATM   21  C           1     -37.593   1.254  -8.153  0.00  0.00     0.001 A 
HETATM   22  C           1     -37.886  -0.050  -7.752  0.00  0.00     0.000 A 
HETATM   23  C           1     -37.567  -1.124  -8.582  0.00  0.00     0.001 A 
HETATM   24  C           1     -36.955  -0.895  -9.814  0.00  0.00     0.007 A 
ENDBRANCH  18  19
ENDBRANCH  17  18
BRANCH  17  25
HETATM   25  C           1     -36.899  -0.287 -13.646  0.00  0.00     0.197 C 
HETATM   26  O           1     -36.380   0.382 -14.566  0.00  0.00    -0.646 OA
HETATM   27  O           1     -38.074  -0.699 -13.759  0.00  0.00    -0.646 OA
ENDBRANCH  17  25
ENDBRANCH   1  17
TORSDOF 10
ENDMDL
MODEL 9
REMARK VINA RESULT:      -6.1     15.174     17.247
REMARK  10 active torsions:
REMARK  status: ('A' for Active; 'I' for Inactive)
REMARK    1  A    between atoms: C_1  and  C_3 
REMARK    2  A    between atoms: C_2  and  C_14 
REMARK    3  A    between atoms: C_2  and  N_25 
REMARK    4  A    between atoms: C_3  and  C_12 
REMARK    5  A    between atoms: N_6  and  C_12 
REMARK       I    between atoms: N_6  and  C_9 
REMARK    6  A    between atoms: C_9  and  C_20 
REMARK    7  A    between atoms: C_12  and  C_22 
REMARK    8  A    between atoms: C_14  and  C_15 
REMARK    9  A    between atoms: C_15  and  C_20 
REMARK   10  A    between atoms: C_20  and  N_24 
ROOT
HETATM    1  N           1     -22.566  -6.469  -3.897  0.00  0.00    -0.344 N 
HETATM    2  C           1     -21.957  -6.379  -2.674  0.00  0.00     0.249 C 
HETATM    3  O           1     -21.582  -5.306  -2.264  0.00  0.00    -0.271 OA
HETATM    4  H           1     -23.571  -6.375  -3.970  0.00  0.00     0.163 HD
ENDROOT
BRANCH   2   5
HETATM    5  C           1     -21.755  -7.619  -1.839  0.00  0.00     0.274 C 
BRANCH   5   6
HETATM    6  C           1     -22.412  -7.428  -0.478  0.00  0.00     0.044 C 
BRANCH   6   7
HETATM    7  C           1     -22.228  -8.689   0.356  0.00  0.00     0.030 C 
BRANCH   7   8
HETATM    8  C           1     -23.098  -9.804  -0.210  0.00  0.00     0.230 C 
BRANCH   8   9
HETATM    9  N           1     -22.244 -10.999  -0.516  0.00  0.00    -0.079 N 
HETATM   10  H           1     -22.048 -11.522   0.367  0.00  0.00     0.274 HD
HETATM   11  H           1     -22.747 -11.624  -1.186  0.00  0.00     0.274 HD
HETATM   12  H           1     -21.344 -10.684  -0.943  0.00  0.00     0.274 HD
ENDBRANCH   8   9
ENDBRANCH   7   8
ENDBRANCH   6   7
ENDBRANCH   5   6
BRANCH   5  13
HETATM   13  N           1     -20.286  -7.862  -1.654  0.00  0.00    -0.067 N 
HETATM   14  H           1     -20.136  -8.472  -0.819  0.00  0.00     0.275 HD
HETATM   15  H           1     -19.902  -8.335  -2.504  0.00  0.00     0.275 HD
HETATM   16  H           1     -19.798  -6.950  -1.512  0.00  0.00     0.275 HD
ENDBRANCH   5  13
ENDBRANCH   2   5
BRANCH   1  17
HETATM   17  C           1     -21.771  -6.700  -5.087  0.00  0.00     0.189 C 
BRANCH  17  18
HETATM   18  C           1     -20.798  -5.544  -5.278  0.00  0.00     0.074 C 
BRANCH  18  19
HETATM   19  C           1     -20.902  -5.029  -6.680  0.00  0.00    -0.056 A 
HETATM   20  C           1     -22.119  -4.540  -7.155  0.00  0.00     0.007 A 
HETATM   21  C           1     -22.216  -4.060  -8.460  0.00  0.00     0.001 A 
HETATM   22  C           1     -21.096  -4.068  -9.291  0.00  0.00     0.000 A 
HETATM   23  C           1     -19.879  -4.556  -8.817  0.00  0.00     0.001 A 
HETATM   24  C           1     -19.782  -5.036  -7.511  0.00  0.00     0.007 A 
ENDBRANCH  18  19
ENDBRANCH  17  18
BRANCH  17  25
HETATM   25  C           1     -20.999  -7.988  -4.934  0.00  0.00     0.197 C 
HETATM   26  O           1     -19.758  -7.959  -4.784  0.00  0.00    -0.646 OA
HETATM   27  O           1     -21.600  -9.083  -4.957  0.00  0.00    -0.646 OA
ENDBRANCH  17  25
ENDBRANCH   1  17
TORSDOF 10
ENDMDL
