MODEL 1
REMARK VINA RESULT:      -5.9      0.000      0.000
REMARK  9 active torsions:
REMARK  status: ('A' for Active; 'I' for Inactive)
REMARK    1  A    between atoms: N_5  and  C_11 
REMARK    2  A    between atoms: C_8  and  C_21 
REMARK    3  A    between atoms: C_8  and  C_19 
REMARK    4  A    between atoms: C_10  and  C_19 
REMARK    5  A    between atoms: C_11  and  C_12 
REMARK    6  A    between atoms: C_11  and  C_16 
REMARK       I    between atoms: C_12  and  N_13 
REMARK    7  A    between atoms: N_13  and  C_19 
REMARK    8  A    between atoms: C_15  and  C_16 
REMARK    9  A    between atoms: Se_17  and  C_21 
ROOT
HETATM    1  O           1     -24.727  -6.611 -17.135  0.00  0.00    -0.271 OA
HETATM    2  H           1     -27.444  -6.160 -18.636  0.00  0.00     0.163 HD
HETATM    3  C           1     -25.490  -6.538 -18.068  0.00  0.00     0.249 C 
HETATM    4  N           1     -26.805  -6.221 -17.854  0.00  0.00    -0.345 N 
ENDROOT
BRANCH   3   5
HETATM    5  C           1     -24.995  -6.798 -19.470  0.00  0.00     0.284 C 
BRANCH   5   6
HETATM    6  N           1     -24.257  -8.104 -19.504  0.00  0.00    -0.066 N 
HETATM    7  H           1     -24.384  -8.600 -18.592  0.00  0.00     0.275 HD
HETATM    8  H           1     -24.634  -8.697 -20.277  0.00  0.00     0.275 HD
HETATM    9  H           1     -23.240  -7.925 -19.665  0.00  0.00     0.275 HD
ENDBRANCH   5   6
BRANCH   5  10
HETATM   10  C           1     -26.179  -6.859 -20.425  0.00  0.00     0.155 C 
BRANCH  10  11
HETATM   11  C           1     -25.978  -7.988 -21.405  0.00  0.00     0.175 C 
HETATM   12  O           1     -26.825  -8.905 -21.484  0.00  0.00    -0.648 OA
HETATM   13  O           1     -24.967  -8.007 -22.139  0.00  0.00    -0.648 OA
ENDBRANCH  10  11
ENDBRANCH   5  10
ENDBRANCH   3   5
BRANCH   4  14
HETATM   14  C           1     -27.281  -5.971 -16.507  0.00  0.00     0.185 C 
BRANCH  14  15
HETATM   15  C           1     -28.150  -4.720 -16.501  0.00  0.00     0.036 C 
BRANCH  15  16
HETATM   16  C           1     -28.808  -4.552 -17.864  0.00  0.00     0.003 C 
BRANCH  16  17
HETATM   17 Se           1     -30.489  -3.587 -17.661  0.00  0.00     0.000 Se
HETATM   18  C           1     -31.441  -5.085 -16.855  0.00  0.00     0.000 C 
ENDBRANCH  16  17
ENDBRANCH  15  16
ENDBRANCH  14  15
BRANCH  14  19
HETATM   19  C           1     -28.094  -7.152 -16.036  0.00  0.00     0.196 C 
HETATM   20  O           1     -28.969  -7.645 -16.780  0.00  0.00    -0.646 OA
HETATM   21  O           1     -27.894  -7.635 -14.901  0.00  0.00    -0.646 OA
ENDBRANCH  14  19
ENDBRANCH   4  14
TORSDOF 9
ENDMDL
MODEL 2
REMARK VINA RESULT:      -5.7      1.676      2.039
REMARK  9 active torsions:
REMARK  status: ('A' for Active; 'I' for Inactive)
REMARK    1  A    between atoms: N_5  and  C_11 
REMARK    2  A    between atoms: C_8  and  C_21 
REMARK    3  A    between atoms: C_8  and  C_19 
REMARK    4  A    between atoms: C_10  and  C_19 
REMARK    5  A    between atoms: C_11  and  C_12 
REMARK    6  A    between atoms: C_11  and  C_16 
REMARK       I    between atoms: C_12  and  N_13 
REMARK    7  A    between atoms: N_13  and  C_19 
REMARK    8  A    between atoms: C_15  and  C_16 
REMARK    9  A    between atoms: Se_17  and  C_21 
ROOT
HETATM    1  O           1     -24.275  -6.557 -18.026  0.00  0.00    -0.271 OA
HETATM    2  H           1     -27.350  -6.556 -18.648  0.00  0.00     0.163 HD
HETATM    3  C           1     -25.286  -6.720 -18.666  0.00  0.00     0.249 C 
HETATM    4  N           1     -26.502  -6.420 -18.112  0.00  0.00    -0.345 N 
ENDROOT
BRANCH   3   5
HETATM    5  C           1     -25.210  -7.255 -20.075  0.00  0.00     0.284 C 
BRANCH   5   6
HETATM    6  N           1     -25.464  -6.139 -21.046  0.00  0.00    -0.066 N 
HETATM    7  H           1     -25.411  -6.509 -22.023  0.00  0.00     0.275 HD
HETATM    8  H           1     -26.413  -5.739 -20.877  0.00  0.00     0.275 HD
HETATM    9  H           1     -24.742  -5.395 -20.917  0.00  0.00     0.275 HD
ENDBRANCH   5   6
BRANCH   5  10
HETATM   10  C           1     -23.825  -7.838 -20.323  0.00  0.00     0.155 C 
BRANCH  10  11
HETATM   11  C           1     -23.687  -8.208 -21.779  0.00  0.00     0.175 C 
HETATM   12  O           1     -22.553  -8.391 -22.272  0.00  0.00    -0.648 OA
HETATM   13  O           1     -24.706  -8.331 -22.492  0.00  0.00    -0.648 OA
ENDBRANCH  10  11
ENDBRANCH   5  10
ENDBRANCH   3   5
BRANCH   4  14
HETATM   14  C           1     -26.576  -5.905 -16.758  0.00  0.00     0.185 C 
BRANCH  14  15
HETATM   15  C           1     -27.840  -5.070 -16.602  0.00  0.00     0.036 C 
BRANCH  15  16
HETATM   16  C           1     -28.663  -5.150 -17.881  0.00  0.00     0.003 C 
BRANCH  16  17
HETATM   17 Se           1     -30.389  -5.967 -17.493  0.00  0.00     0.000 Se
HETATM   18  C           1     -29.939  -7.687 -18.293  0.00  0.00     0.000 C 
ENDBRANCH  16  17
ENDBRANCH  15  16
ENDBRANCH  14  15
BRANCH  14  19
HETATM   19  C           1     -26.610  -7.058 -15.785  0.00  0.00     0.196 C 
HETATM   20  O           1     -27.706  -7.544 -15.430  0.00  0.00    -0.646 OA
HETATM   21  O           1     -25.543  -7.526 -15.334  0.00  0.00    -0.646 OA
ENDBRANCH  14  19
ENDBRANCH   4  14
TORSDOF 9
ENDMDL
MODEL 3
REMARK VINA RESULT:      -5.7      3.241      6.080
REMARK  9 active torsions:
REMARK  status: ('A' for Active; 'I' for Inactive)
REMARK    1  A    between atoms: N_5  and  C_11 
REMARK    2  A    between atoms: C_8  and  C_21 
REMARK    3  A    between atoms: C_8  and  C_19 
REMARK    4  A    between atoms: C_10  and  C_19 
REMARK    5  A    between atoms: C_11  and  C_12 
REMARK    6  A    between atoms: C_11  and  C_16 
REMARK       I    between atoms: C_12  and  N_13 
REMARK    7  A    between atoms: N_13  and  C_19 
REMARK    8  A    between atoms: C_15  and  C_16 
REMARK    9  A    between atoms: Se_17  and  C_21 
ROOT
HETATM    1  O           1     -29.474  -6.844 -16.772  0.00  0.00    -0.271 OA
HETATM    2  H           1     -27.530  -4.516 -17.575  0.00  0.00     0.163 HD
HETATM    3  C           1     -29.123  -5.714 -17.016  0.00  0.00     0.249 C 
HETATM    4  N           1     -27.824  -5.463 -17.371  0.00  0.00    -0.345 N 
ENDROOT
BRANCH   3   5
HETATM    5  C           1     -30.115  -4.581 -16.929  0.00  0.00     0.284 C 
BRANCH   5   6
HETATM    6  N           1     -29.820  -3.577 -18.005  0.00  0.00    -0.066 N 
HETATM    7  H           1     -28.992  -3.003 -17.728  0.00  0.00     0.275 HD
HETATM    8  H           1     -29.615  -4.075 -18.899  0.00  0.00     0.275 HD
HETATM    9  H           1     -30.648  -2.953 -18.134  0.00  0.00     0.275 HD
ENDBRANCH   5   6
BRANCH   5  10
HETATM   10  C           1     -31.525  -5.124 -17.114  0.00  0.00     0.155 C 
BRANCH  10  11
HETATM   11  C           1     -32.525  -4.017 -16.893  0.00  0.00     0.175 C 
HETATM   12  O           1     -33.327  -4.081 -15.936  0.00  0.00    -0.648 OA
HETATM   13  O           1     -32.552  -3.035 -17.666  0.00  0.00    -0.648 OA
ENDBRANCH  10  11
ENDBRANCH   5  10
ENDBRANCH   3   5
BRANCH   4  14
HETATM   14  C           1     -26.871  -6.552 -17.454  0.00  0.00     0.185 C 
BRANCH  14  15
HETATM   15  C           1     -25.982  -6.355 -18.675  0.00  0.00     0.036 C 
BRANCH  15  16
HETATM   16  C           1     -26.769  -6.690 -19.935  0.00  0.00     0.003 C 
BRANCH  16  17
HETATM   17 Se           1     -25.696  -7.839 -21.087  0.00  0.00     0.000 Se
HETATM   18  C           1     -24.074  -7.671 -20.019  0.00  0.00     0.000 C 
ENDBRANCH  16  17
ENDBRANCH  15  16
ENDBRANCH  14  15
BRANCH  14  19
HETATM   19  C           1     -26.018  -6.570 -16.209  0.00  0.00     0.196 C 
HETATM   20  O           1     -26.184  -7.464 -15.351  0.00  0.00    -0.646 OA
HETATM   21  O           1     -25.148  -5.689 -16.035  0.00  0.00    -0.646 OA
ENDBRANCH  14  19
ENDBRANCH   4  14
TORSDOF 9
ENDMDL
MODEL 4
REMARK VINA RESULT:      -5.6      9.936     11.945
REMARK  9 active torsions:
REMARK  status: ('A' for Active; 'I' for Inactive)
REMARK    1  A    between atoms: N_5  and  C_11 
REMARK    2  A    between atoms: C_8  and  C_21 
REMARK    3  A    between atoms: C_8  and  C_19 
REMARK    4  A    between atoms: C_10  and  C_19 
REMARK    5  A    between atoms: C_11  and  C_12 
REMARK    6  A    between atoms: C_11  and  C_16 
REMARK       I    between atoms: C_12  and  N_13 
REMARK    7  A    between atoms: N_13  and  C_19 
REMARK    8  A    between atoms: C_15  and  C_16 
REMARK    9  A    between atoms: Se_17  and  C_21 
ROOT
HETATM    1  O           1     -37.732  -0.707 -13.781  0.00  0.00    -0.271 OA
HETATM    2  H           1     -34.880  -0.295 -12.540  0.00  0.00     0.163 HD
HETATM    3  C           1     -36.572  -0.374 -13.730  0.00  0.00     0.249 C 
HETATM    4  N           1     -35.852  -0.573 -12.583  0.00  0.00    -0.345 N 
ENDROOT
BRANCH   3   5
HETATM    5  C           1     -35.917   0.262 -14.932  0.00  0.00     0.284 C 
BRANCH   5   6
HETATM    6  N           1     -34.467   0.512 -14.635  0.00  0.00    -0.066 N 
HETATM    7  H           1     -34.216   0.066 -13.724  0.00  0.00     0.275 HD
HETATM    8  H           1     -33.881   0.102 -15.395  0.00  0.00     0.275 HD
HETATM    9  H           1     -34.296   1.541 -14.578  0.00  0.00     0.275 HD
ENDBRANCH   5   6
BRANCH   5  10
HETATM   10  C           1     -36.037  -0.670 -16.129  0.00  0.00     0.155 C 
BRANCH  10  11
HETATM   11  C           1     -34.954  -1.718 -16.063  0.00  0.00     0.175 C 
HETATM   12  O           1     -34.124  -1.819 -16.992  0.00  0.00    -0.648 OA
HETATM   13  O           1     -34.886  -2.486 -15.079  0.00  0.00    -0.648 OA
ENDBRANCH  10  11
ENDBRANCH   5  10
ENDBRANCH   3   5
BRANCH   4  14
HETATM   14  C           1     -36.482  -1.185 -11.428  0.00  0.00     0.185 C 
BRANCH  14  15
HETATM   15  C           1     -35.516  -2.175 -10.789  0.00  0.00     0.036 C 
BRANCH  15  16
HETATM   16  C           1     -34.106  -1.911 -11.303  0.00  0.00     0.003 C 
BRANCH  16  17
HETATM   17 Se           1     -33.155  -3.602 -11.489  0.00  0.00     0.000 Se
HETATM   18  C           1     -34.733  -4.621 -12.009  0.00  0.00     0.000 C 
ENDBRANCH  16  17
ENDBRANCH  15  16
ENDBRANCH  14  15
BRANCH  14  19
HETATM   19  C           1     -36.841  -0.115 -10.427  0.00  0.00     0.196 C 
HETATM   20  O           1     -36.200  -0.018  -9.358  0.00  0.00    -0.646 OA
HETATM   21  O           1     -37.781   0.674 -10.666  0.00  0.00    -0.646 OA
ENDBRANCH  14  19
ENDBRANCH   4  14
TORSDOF 9
ENDMDL
MODEL 5
REMARK VINA RESULT:      -5.5     11.878     13.433
REMARK  9 active torsions:
REMARK  status: ('A' for Active; 'I' for Inactive)
REMARK    1  A    between atoms: N_5  and  C_11 
REMARK    2  A    between atoms: C_8  and  C_21 
REMARK    3  A    between atoms: C_8  and  C_19 
REMARK    4  A    between atoms: C_10  and  C_19 
REMARK    5  A    between atoms: C_11  and  C_12 
REMARK    6  A    between atoms: C_11  and  C_16 
REMARK       I    between atoms: C_12  and  N_13 
REMARK    7  A    between atoms: N_13  and  C_19 
REMARK    8  A    between atoms: C_15  and  C_16 
REMARK    9  A    between atoms: Se_17  and  C_21 
ROOT
HETATM    1  O           1     -20.233  -3.995  -7.071  0.00  0.00    -0.271 OA
HETATM    2  H           1     -22.918  -5.600  -6.827  0.00  0.00     0.163 HD
HETATM    3  C           1     -21.365  -4.326  -7.331  0.00  0.00     0.249 C 
HETATM    4  N           1     -21.969  -5.322  -6.610  0.00  0.00    -0.345 N 
ENDROOT
BRANCH   3   5
HETATM    5  C           1     -22.112  -3.644  -8.450  0.00  0.00     0.284 C 
BRANCH   5   6
HETATM    6  N           1     -21.425  -3.928  -9.754  0.00  0.00    -0.066 N 
HETATM    7  H           1     -21.095  -4.920  -9.765  0.00  0.00     0.275 HD
HETATM    8  H           1     -22.094  -3.775 -10.541  0.00  0.00     0.275 HD
HETATM    9  H           1     -20.607  -3.287  -9.862  0.00  0.00     0.275 HD
ENDBRANCH   5   6
BRANCH   5  10
HETATM   10  C           1     -23.539  -4.172  -8.504  0.00  0.00     0.155 C 
BRANCH  10  11
HETATM   11  C           1     -24.028  -4.160  -9.931  0.00  0.00     0.175 C 
HETATM   12  O           1     -24.477  -3.105 -10.429  0.00  0.00    -0.648 OA
HETATM   13  O           1     -23.984  -5.205 -10.616  0.00  0.00    -0.648 OA
ENDBRANCH  10  11
ENDBRANCH   5  10
ENDBRANCH   3   5
BRANCH   4  14
HETATM   14  C           1     -21.251  -5.977  -5.534  0.00  0.00     0.185 C 
BRANCH  14  15
HETATM   15  C           1     -22.220  -6.314  -4.409  0.00  0.00     0.036 C 
BRANCH  15  16
HETATM   16  C           1     -21.518  -6.150  -3.067  0.00  0.00     0.003 C 
BRANCH  16  17
HETATM   17 Se           1     -21.412  -7.879  -2.173  0.00  0.00     0.000 Se
HETATM   18  C           1     -22.402  -7.307  -0.595  0.00  0.00     0.000 C 
ENDBRANCH  16  17
ENDBRANCH  15  16
ENDBRANCH  14  15
BRANCH  14  19
HETATM   19  C           1     -20.620  -7.246  -6.052  0.00  0.00     0.196 C 
HETATM   20  O           1     -19.487  -7.211  -6.579  0.00  0.00    -0.646 OA
HETATM   21  O           1     -21.231  -8.332  -5.955  0.00  0.00    -0.646 OA
ENDBRANCH  14  19
ENDBRANCH   4  14
TORSDOF 9
ENDMDL
MODEL 6
REMARK VINA RESULT:      -5.5     10.213     11.823
REMARK  9 active torsions:
REMARK  status: ('A' for Active; 'I' for Inactive)
REMARK    1  A    between atoms: N_5  and  C_11 
REMARK    2  A    between atoms: C_8  and  C_21 
REMARK    3  A    between atoms: C_8  and  C_19 
REMARK    4  A    between atoms: C_10  and  C_19 
REMARK    5  A    between atoms: C_11  and  C_12 
REMARK    6  A    between atoms: C_11  and  C_16 
REMARK       I    between atoms: C_12  and  N_13 
REMARK    7  A    between atoms: N_13  and  C_19 
REMARK    8  A    between atoms: C_15  and  C_16 
REMARK    9  A    between atoms: Se_17  and  C_21 
ROOT
HETATM    1  O           1     -34.815  -2.716 -14.544  0.00  0.00    -0.271 OA
HETATM    2  H           1     -35.257  -0.241 -12.668  0.00  0.00     0.163 HD
HETATM    3  C           1     -34.998  -1.561 -14.241  0.00  0.00     0.249 C 
HETATM    4  N           1     -35.104  -1.208 -12.923  0.00  0.00    -0.345 N 
ENDROOT
BRANCH   3   5
HETATM    5  C           1     -35.112  -0.508 -15.316  0.00  0.00     0.284 C 
BRANCH   5   6
HETATM    6  N           1     -35.687  -1.124 -16.558  0.00  0.00    -0.066 N 
HETATM    7  H           1     -35.251  -0.683 -17.400  0.00  0.00     0.275 HD
HETATM    8  H           1     -35.491  -2.149 -16.561  0.00  0.00     0.275 HD
HETATM    9  H           1     -36.720  -0.965 -16.578  0.00  0.00     0.275 HD
ENDBRANCH   5   6
BRANCH   5  10
HETATM   10  C           1     -36.023   0.612 -14.836  0.00  0.00     0.155 C 
BRANCH  10  11
HETATM   11  C           1     -37.460   0.246 -15.111  0.00  0.00     0.175 C 
HETATM   12  O           1     -38.075   0.792 -16.054  0.00  0.00    -0.648 OA
HETATM   13  O           1     -38.037  -0.603 -14.398  0.00  0.00    -0.648 OA
ENDBRANCH  10  11
ENDBRANCH   5  10
ENDBRANCH   3   5
BRANCH   4  14
HETATM   14  C           1     -34.995  -2.220 -11.889  0.00  0.00     0.185 C 
BRANCH  14  15
HETATM   15  C           1     -33.557  -2.281 -11.389  0.00  0.00     0.036 C 
BRANCH  15  16
HETATM   16  C           1     -33.112  -3.734 -11.299  0.00  0.00     0.003 C 
BRANCH  16  17
HETATM   17 Se           1     -34.514  -4.890 -12.004  0.00  0.00     0.000 Se
HETATM   18  C           1     -34.481  -6.124 -10.496  0.00  0.00     0.000 C 
ENDBRANCH  16  17
ENDBRANCH  15  16
ENDBRANCH  14  15
BRANCH  14  19
HETATM   19  C           1     -35.912  -1.869 -10.744  0.00  0.00     0.196 C 
HETATM   20  O           1     -35.712  -0.829 -10.079  0.00  0.00    -0.646 OA
HETATM   21  O           1     -36.871  -2.618 -10.460  0.00  0.00    -0.646 OA
ENDBRANCH  14  19
ENDBRANCH   4  14
TORSDOF 9
ENDMDL
MODEL 7
REMARK VINA RESULT:      -5.2     11.964     13.430
REMARK  9 active torsions:
REMARK  status: ('A' for Active; 'I' for Inactive)
REMARK    1  A    between atoms: N_5  and  C_11 
REMARK    2  A    between atoms: C_8  and  C_21 
REMARK    3  A    between atoms: C_8  and  C_19 
REMARK    4  A    between atoms: C_10  and  C_19 
REMARK    5  A    between atoms: C_11  and  C_12 
REMARK    6  A    between atoms: C_11  and  C_16 
REMARK       I    between atoms: C_12  and  N_13 
REMARK    7  A    between atoms: N_13  and  C_19 
REMARK    8  A    between atoms: C_15  and  C_16 
REMARK    9  A    between atoms: Se_17  and  C_21 
ROOT
HETATM    1  O           1     -20.169  -4.682  -7.457  0.00  0.00    -0.271 OA
HETATM    2  H           1     -22.806  -6.257  -6.822  0.00  0.00     0.163 HD
HETATM    3  C           1     -21.295  -5.087  -7.617  0.00  0.00     0.249 C 
HETATM    4  N           1     -21.862  -5.918  -6.688  0.00  0.00    -0.345 N 
ENDROOT
BRANCH   3   5
HETATM    5  C           1     -22.077  -4.677  -8.841  0.00  0.00     0.284 C 
BRANCH   5   6
HETATM    6  N           1     -22.891  -3.455  -8.526  0.00  0.00    -0.066 N 
HETATM    7  H           1     -23.798  -3.742  -8.094  0.00  0.00     0.275 HD
HETATM    8  H           1     -22.364  -2.849  -7.859  0.00  0.00     0.275 HD
HETATM    9  H           1     -23.077  -2.926  -9.408  0.00  0.00     0.275 HD
ENDBRANCH   5   6
BRANCH   5  10
HETATM   10  C           1     -21.115  -4.367  -9.979  0.00  0.00     0.155 C 
BRANCH  10  11
HETATM   11  C           1     -21.873  -3.744 -11.125  0.00  0.00     0.175 C 
HETATM   12  O           1     -22.791  -4.381 -11.686  0.00  0.00    -0.648 OA
HETATM   13  O           1     -21.584  -2.591 -11.513  0.00  0.00    -0.648 OA
ENDBRANCH  10  11
ENDBRANCH   5  10
ENDBRANCH   3   5
BRANCH   4  14
HETATM   14  C           1     -21.110  -6.312  -5.512  0.00  0.00     0.185 C 
BRANCH  14  15
HETATM   15  C           1     -22.043  -6.363  -4.309  0.00  0.00     0.036 C 
BRANCH  15  16
HETATM   16  C           1     -21.270  -5.984  -3.052  0.00  0.00     0.003 C 
BRANCH  16  17
HETATM   17 Se           1     -22.186  -6.696  -1.486  0.00  0.00     0.000 Se
HETATM   18  C           1     -20.947  -8.179  -1.233  0.00  0.00     0.000 C 
ENDBRANCH  16  17
ENDBRANCH  15  16
ENDBRANCH  14  15
BRANCH  14  19
HETATM   19  C           1     -20.504  -7.676  -5.738  0.00  0.00     0.196 C 
HETATM   20  O           1     -21.215  -8.699  -5.643  0.00  0.00    -0.646 OA
HETATM   21  O           1     -19.291  -7.781  -6.018  0.00  0.00    -0.646 OA
ENDBRANCH  14  19
ENDBRANCH   4  14
TORSDOF 9
ENDMDL
MODEL 8
REMARK VINA RESULT:      -5.1      2.865      5.648
REMARK  9 active torsions:
REMARK  status: ('A' for Active; 'I' for Inactive)
REMARK    1  A    between atoms: N_5  and  C_11 
REMARK    2  A    between atoms: C_8  and  C_21 
REMARK    3  A    between atoms: C_8  and  C_19 
REMARK    4  A    between atoms: C_10  and  C_19 
REMARK    5  A    between atoms: C_11  and  C_12 
REMARK    6  A    between atoms: C_11  and  C_16 
REMARK       I    between atoms: C_12  and  N_13 
REMARK    7  A    between atoms: N_13  and  C_19 
REMARK    8  A    between atoms: C_15  and  C_16 
REMARK    9  A    between atoms: Se_17  and  C_21 
ROOT
HETATM    1  O           1     -28.016  -6.562 -18.551  0.00  0.00    -0.271 OA
HETATM    2  H           1     -26.245  -5.172 -16.366  0.00  0.00     0.163 HD
HETATM    3  C           1     -27.704  -5.744 -17.719  0.00  0.00     0.249 C 
HETATM    4  N           1     -26.507  -5.857 -17.063  0.00  0.00    -0.345 N 
ENDROOT
BRANCH   3   5
HETATM    5  C           1     -28.633  -4.598 -17.402  0.00  0.00     0.284 C 
BRANCH   5   6
HETATM    6  N           1     -29.482  -4.298 -18.602  0.00  0.00    -0.066 N 
HETATM    7  H           1     -30.374  -3.848 -18.295  0.00  0.00     0.275 HD
HETATM    8  H           1     -28.967  -3.649 -19.238  0.00  0.00     0.275 HD
HETATM    9  H           1     -29.695  -5.186 -19.108  0.00  0.00     0.275 HD
ENDBRANCH   5   6
BRANCH   5  10
HETATM   10  C           1     -29.528  -4.978 -16.230  0.00  0.00     0.155 C 
BRANCH  10  11
HETATM   11  C           1     -30.941  -5.178 -16.719  0.00  0.00     0.175 C 
HETATM   12  O           1     -31.765  -4.240 -16.650  0.00  0.00    -0.648 OA
HETATM   13  O           1     -31.289  -6.281 -17.195  0.00  0.00    -0.648 OA
ENDBRANCH  10  11
ENDBRANCH   5  10
ENDBRANCH   3   5
BRANCH   4  14
HETATM   14  C           1     -25.614  -6.959 -17.367  0.00  0.00     0.185 C 
BRANCH  14  15
HETATM   15  C           1     -24.553  -6.492 -18.355  0.00  0.00     0.036 C 
BRANCH  15  16
HETATM   16  C           1     -24.472  -7.476 -19.515  0.00  0.00     0.003 C 
BRANCH  16  17
HETATM   17 Se           1     -25.298  -6.689 -21.095  0.00  0.00     0.000 Se
HETATM   18  C           1     -24.189  -7.668 -22.364  0.00  0.00     0.000 C 
ENDBRANCH  16  17
ENDBRANCH  15  16
ENDBRANCH  14  15
BRANCH  14  19
HETATM   19  C           1     -24.948  -7.430 -16.098  0.00  0.00     0.196 C 
HETATM   20  O           1     -24.024  -8.271 -16.152  0.00  0.00    -0.646 OA
HETATM   21  O           1     -25.321  -6.981 -14.993  0.00  0.00    -0.646 OA
ENDBRANCH  14  19
ENDBRANCH   4  14
TORSDOF 9
ENDMDL
MODEL 9
REMARK VINA RESULT:      -5.0      3.143      5.652
REMARK  9 active torsions:
REMARK  status: ('A' for Active; 'I' for Inactive)
REMARK    1  A    between atoms: N_5  and  C_11 
REMARK    2  A    between atoms: C_8  and  C_21 
REMARK    3  A    between atoms: C_8  and  C_19 
REMARK    4  A    between atoms: C_10  and  C_19 
REMARK    5  A    between atoms: C_11  and  C_12 
REMARK    6  A    between atoms: C_11  and  C_16 
REMARK       I    between atoms: C_12  and  N_13 
REMARK    7  A    between atoms: N_13  and  C_19 
REMARK    8  A    between atoms: C_15  and  C_16 
REMARK    9  A    between atoms: Se_17  and  C_21 
ROOT
HETATM    1  O           1     -29.336  -7.726 -18.339  0.00  0.00    -0.271 OA
HETATM    2  H           1     -28.165  -5.154 -16.976  0.00  0.00     0.163 HD
HETATM    3  C           1     -29.339  -6.633 -17.824  0.00  0.00     0.249 C 
HETATM    4  N           1     -28.163  -6.070 -17.406  0.00  0.00    -0.345 N 
ENDROOT
BRANCH   3   5
HETATM    5  C           1     -30.640  -5.890 -17.641  0.00  0.00     0.284 C 
BRANCH   5   6
HETATM    6  N           1     -31.701  -6.847 -17.183  0.00  0.00    -0.066 N 
HETATM    7  H           1     -31.269  -7.585 -16.583  0.00  0.00     0.275 HD
HETATM    8  H           1     -32.422  -6.329 -16.633  0.00  0.00     0.275 HD
HETATM    9  H           1     -32.149  -7.292 -18.015  0.00  0.00     0.275 HD
ENDBRANCH   5   6
BRANCH   5  10
HETATM   10  C           1     -30.457  -4.797 -16.597  0.00  0.00     0.155 C 
BRANCH  10  11
HETATM   11  C           1     -30.393  -3.453 -17.279  0.00  0.00     0.175 C 
HETATM   12  O           1     -31.442  -2.911 -17.692  0.00  0.00    -0.648 OA
HETATM   13  O           1     -29.293  -2.881 -17.432  0.00  0.00    -0.648 OA
ENDBRANCH  10  11
ENDBRANCH   5  10
ENDBRANCH   3   5
BRANCH   4  14
HETATM   14  C           1     -26.914  -6.785 -17.583  0.00  0.00     0.185 C 
BRANCH  14  15
HETATM   15  C           1     -26.203  -6.265 -18.826  0.00  0.00     0.036 C 
BRANCH  15  16
HETATM   16  C           1     -24.931  -7.069 -19.057  0.00  0.00     0.003 C 
BRANCH  16  17
HETATM   17 Se           1     -24.854  -7.645 -20.917  0.00  0.00     0.000 Se
HETATM   18  C           1     -26.725  -8.185 -20.998  0.00  0.00     0.000 C 
ENDBRANCH  16  17
ENDBRANCH  15  16
ENDBRANCH  14  15
BRANCH  14  19
HETATM   19  C           1     -26.037  -6.568 -16.374  0.00  0.00     0.196 C 
HETATM   20  O           1     -25.623  -5.421 -16.100  0.00  0.00    -0.646 OA
HETATM   21  O           1     -25.724  -7.536 -15.648  0.00  0.00    -0.646 OA
ENDBRANCH  14  19
ENDBRANCH   4  14
TORSDOF 9
ENDMDL
