MODEL 1
REMARK VINA RESULT:      -5.7      0.000      0.000
REMARK  7 active torsions:
REMARK  status: ('A' for Active; 'I' for Inactive)
REMARK    1  A    between atoms: C_4  and  C_5 
REMARK    2  A    between atoms: C_4  and  N_15 
REMARK       I    between atoms: C_5  and  N_6 
REMARK    3  A    between atoms: N_6  and  C_10 
REMARK    4  A    between atoms: C_9  and  C_10 
REMARK    5  A    between atoms: C_10  and  C_11 
REMARK    6  A    between atoms: C_11  and  C_12 
REMARK    7  A    between atoms: C_12  and  S_13 
ROOT
HETATM    1  H           1     -27.407  -6.927 -18.634  0.00  0.00     0.163 HD
HETATM    2  C           1     -25.366  -6.832 -18.958  0.00  0.00     0.248 C 
HETATM    3  N           1     -26.520  -6.628 -18.251  0.00  0.00    -0.345 N 
HETATM    4  O           1     -24.306  -6.475 -18.501  0.00  0.00    -0.271 OA
ENDROOT
BRANCH   3   5
HETATM    5  C           1     -26.470  -5.985 -16.952  0.00  0.00     0.186 C 
BRANCH   5   6
HETATM    6  C           1     -26.447  -7.038 -15.871  0.00  0.00     0.196 C 
HETATM    7  O           1     -27.519  -7.443 -15.370  0.00  0.00    -0.646 OA
HETATM    8  O           1     -25.357  -7.505 -15.476  0.00  0.00    -0.646 OA
ENDBRANCH   5   6
BRANCH   5   9
HETATM    9  C           1     -27.698  -5.102 -16.776  0.00  0.00     0.046 C 
BRANCH   9  10
HETATM   10  C           1     -28.629  -5.283 -17.969  0.00  0.00     0.076 C 
BRANCH  10  11
HETATM   11  S           1     -30.206  -5.981 -17.404  0.00  0.00    -0.173 SA
HETATM   12  C           1     -30.037  -7.574 -18.258  0.00  0.00     0.089 C 
ENDBRANCH  10  11
ENDBRANCH   9  10
ENDBRANCH   5   9
ENDBRANCH   3   5
BRANCH   2  13
HETATM   13  C           1     -25.417  -7.501 -20.310  0.00  0.00     0.270 C 
HETATM   14  C           1     -24.950  -6.522 -21.380  0.00  0.00     0.050 C 
BRANCH  13  15
HETATM   15  N           1     -26.826  -7.927 -20.603  0.00  0.00    -0.067 N 
HETATM   16  H           1     -27.333  -7.147 -21.079  0.00  0.00     0.275 HD
HETATM   17  H           1     -26.814  -8.765 -21.226  0.00  0.00     0.275 HD
HETATM   18  H           1     -27.311  -8.164 -19.708  0.00  0.00     0.275 HD
ENDBRANCH  13  15
ENDBRANCH   2  13
TORSDOF 7
ENDMDL
MODEL 2
REMARK VINA RESULT:      -5.1      2.901      4.869
REMARK  7 active torsions:
REMARK  status: ('A' for Active; 'I' for Inactive)
REMARK    1  A    between atoms: C_4  and  C_5 
REMARK    2  A    between atoms: C_4  and  N_15 
REMARK       I    between atoms: C_5  and  N_6 
REMARK    3  A    between atoms: N_6  and  C_10 
REMARK    4  A    between atoms: C_9  and  C_10 
REMARK    5  A    between atoms: C_10  and  C_11 
REMARK    6  A    between atoms: C_11  and  C_12 
REMARK    7  A    between atoms: C_12  and  S_13 
ROOT
HETATM    1  H           1     -28.280  -4.611 -16.371  0.00  0.00     0.163 HD
HETATM    2  C           1     -30.000  -5.414 -17.195  0.00  0.00     0.248 C 
HETATM    3  N           1     -28.683  -5.422 -16.822  0.00  0.00    -0.345 N 
HETATM    4  O           1     -30.481  -6.383 -17.734  0.00  0.00    -0.271 OA
ENDROOT
BRANCH   3   5
HETATM    5  C           1     -27.866  -6.593 -17.074  0.00  0.00     0.186 C 
BRANCH   5   6
HETATM    6  C           1     -27.338  -7.128 -15.764  0.00  0.00     0.196 C 
HETATM    7  O           1     -26.106  -7.244 -15.588  0.00  0.00    -0.646 OA
HETATM    8  O           1     -28.133  -7.455 -14.858  0.00  0.00    -0.646 OA
ENDBRANCH   5   6
BRANCH   5   9
HETATM    9  C           1     -26.699  -6.212 -17.975  0.00  0.00     0.046 C 
BRANCH   9  10
HETATM   10  C           1     -27.106  -6.381 -19.433  0.00  0.00     0.076 C 
BRANCH  10  11
HETATM   11  S           1     -25.671  -6.920 -20.404  0.00  0.00    -0.173 SA
HETATM   12  C           1     -24.509  -7.008 -19.012  0.00  0.00     0.089 C 
ENDBRANCH  10  11
ENDBRANCH   9  10
ENDBRANCH   5   9
ENDBRANCH   3   5
BRANCH   2  13
HETATM   13  C           1     -30.851  -4.196 -16.934  0.00  0.00     0.270 C 
HETATM   14  C           1     -32.315  -4.606 -16.852  0.00  0.00     0.050 C 
BRANCH  13  15
HETATM   15  N           1     -30.670  -3.211 -18.051  0.00  0.00    -0.067 N 
HETATM   16  H           1     -30.420  -2.277 -17.654  0.00  0.00     0.275 HD
HETATM   17  H           1     -29.903  -3.536 -18.683  0.00  0.00     0.275 HD
HETATM   18  H           1     -31.560  -3.133 -18.594  0.00  0.00     0.275 HD
ENDBRANCH  13  15
ENDBRANCH   2  13
TORSDOF 7
ENDMDL
MODEL 3
REMARK VINA RESULT:      -4.7     11.969     13.934
REMARK  7 active torsions:
REMARK  status: ('A' for Active; 'I' for Inactive)
REMARK    1  A    between atoms: C_4  and  C_5 
REMARK    2  A    between atoms: C_4  and  N_15 
REMARK       I    between atoms: C_5  and  N_6 
REMARK    3  A    between atoms: N_6  and  C_10 
REMARK    4  A    between atoms: C_9  and  C_10 
REMARK    5  A    between atoms: C_10  and  C_11 
REMARK    6  A    between atoms: C_11  and  C_12 
REMARK    7  A    between atoms: C_12  and  S_13 
ROOT
HETATM    1  H           1     -20.610  -4.709  -4.543  0.00  0.00     0.163 HD
HETATM    2  C           1     -21.484  -6.563  -4.259  0.00  0.00     0.248 C 
HETATM    3  N           1     -21.057  -5.493  -4.999  0.00  0.00    -0.345 N 
HETATM    4  O           1     -22.017  -7.501  -4.804  0.00  0.00    -0.271 OA
ENDROOT
BRANCH   3   5
HETATM    5  C           1     -21.245  -5.486  -6.437  0.00  0.00     0.186 C 
BRANCH   5   6
HETATM    6  C           1     -19.925  -5.754  -7.118  0.00  0.00     0.196 C 
HETATM    7  O           1     -19.397  -6.885  -7.033  0.00  0.00    -0.646 OA
HETATM    8  O           1     -19.360  -4.847  -7.765  0.00  0.00    -0.646 OA
ENDBRANCH   5   6
BRANCH   5   9
HETATM    9  C           1     -21.773  -4.125  -6.871  0.00  0.00     0.046 C 
BRANCH   9  10
HETATM   10  C           1     -23.067  -4.309  -7.655  0.00  0.00     0.076 C 
BRANCH  10  11
HETATM   11  S           1     -22.778  -3.908  -9.402  0.00  0.00    -0.173 SA
HETATM   12  C           1     -24.482  -3.410  -9.777  0.00  0.00     0.089 C 
ENDBRANCH  10  11
ENDBRANCH   9  10
ENDBRANCH   5   9
ENDBRANCH   3   5
BRANCH   2  13
HETATM   13  C           1     -21.288  -6.572  -2.763  0.00  0.00     0.270 C 
HETATM   14  C           1     -21.247  -8.011  -2.264  0.00  0.00     0.050 C 
BRANCH  13  15
HETATM   15  N           1     -22.426  -5.847  -2.106  0.00  0.00    -0.067 N 
HETATM   16  H           1     -22.047  -5.142  -1.435  0.00  0.00     0.275 HD
HETATM   17  H           1     -22.997  -5.363  -2.834  0.00  0.00     0.275 HD
HETATM   18  H           1     -23.024  -6.533  -1.592  0.00  0.00     0.275 HD
ENDBRANCH  13  15
ENDBRANCH   2  13
TORSDOF 7
ENDMDL
MODEL 4
REMARK VINA RESULT:      -4.6     11.600     13.303
REMARK  7 active torsions:
REMARK  status: ('A' for Active; 'I' for Inactive)
REMARK    1  A    between atoms: C_4  and  C_5 
REMARK    2  A    between atoms: C_4  and  N_15 
REMARK       I    between atoms: C_5  and  N_6 
REMARK    3  A    between atoms: N_6  and  C_10 
REMARK    4  A    between atoms: C_9  and  C_10 
REMARK    5  A    between atoms: C_10  and  C_11 
REMARK    6  A    between atoms: C_11  and  C_12 
REMARK    7  A    between atoms: C_12  and  S_13 
ROOT
HETATM    1  H           1     -22.645  -6.234  -7.539  0.00  0.00     0.163 HD
HETATM    2  C           1     -22.315  -4.234  -7.958  0.00  0.00     0.248 C 
HETATM    3  N           1     -22.161  -5.394  -7.248  0.00  0.00    -0.345 N 
HETATM    4  O           1     -21.737  -3.231  -7.611  0.00  0.00    -0.271 OA
ENDROOT
BRANCH   3   5
HETATM    5  C           1     -21.303  -5.419  -6.079  0.00  0.00     0.186 C 
BRANCH   5   6
HETATM    6  C           1     -19.912  -5.842  -6.486  0.00  0.00     0.196 C 
HETATM    7  O           1     -19.045  -4.977  -6.739  0.00  0.00    -0.646 OA
HETATM    8  O           1     -19.628  -7.055  -6.571  0.00  0.00    -0.646 OA
ENDBRANCH   5   6
BRANCH   5   9
HETATM    9  C           1     -21.858  -6.409  -5.064  0.00  0.00     0.046 C 
BRANCH   9  10
HETATM   10  C           1     -21.363  -6.040  -3.671  0.00  0.00     0.076 C 
BRANCH  10  11
HETATM   11  S           1     -21.375  -7.516  -2.615  0.00  0.00    -0.173 SA
HETATM   12  C           1     -22.272  -6.762  -1.228  0.00  0.00     0.089 C 
ENDBRANCH  10  11
ENDBRANCH   9  10
ENDBRANCH   5   9
ENDBRANCH   3   5
BRANCH   2  13
HETATM   13  C           1     -23.208  -4.207  -9.174  0.00  0.00     0.270 C 
HETATM   14  C           1     -22.453  -3.591 -10.345  0.00  0.00     0.050 C 
BRANCH  13  15
HETATM   15  N           1     -24.429  -3.387  -8.880  0.00  0.00    -0.067 N 
HETATM   16  H           1     -24.984  -3.849  -8.125  0.00  0.00     0.275 HD
HETATM   17  H           1     -24.142  -2.433  -8.566  0.00  0.00     0.275 HD
HETATM   18  H           1     -25.012  -3.309  -9.744  0.00  0.00     0.275 HD
ENDBRANCH  13  15
ENDBRANCH   2  13
TORSDOF 7
ENDMDL
MODEL 5
REMARK VINA RESULT:      -4.4     12.729     14.443
REMARK  7 active torsions:
REMARK  status: ('A' for Active; 'I' for Inactive)
REMARK    1  A    between atoms: C_4  and  C_5 
REMARK    2  A    between atoms: C_4  and  N_15 
REMARK       I    between atoms: C_5  and  N_6 
REMARK    3  A    between atoms: N_6  and  C_10 
REMARK    4  A    between atoms: C_9  and  C_10 
REMARK    5  A    between atoms: C_10  and  C_11 
REMARK    6  A    between atoms: C_11  and  C_12 
REMARK    7  A    between atoms: C_12  and  S_13 
ROOT
HETATM    1  H           1     -21.680  -7.155  -6.830  0.00  0.00     0.163 HD
HETATM    2  C           1     -21.031  -5.197  -6.658  0.00  0.00     0.248 C 
HETATM    3  N           1     -21.222  -6.483  -6.228  0.00  0.00    -0.345 N 
HETATM    4  O           1     -20.483  -4.395  -5.940  0.00  0.00    -0.271 OA
ENDROOT
BRANCH   3   5
HETATM    5  C           1     -20.766  -6.881  -4.910  0.00  0.00     0.186 C 
BRANCH   5   6
HETATM    6  C           1     -20.230  -8.291  -4.969  0.00  0.00     0.196 C 
HETATM    7  O           1     -19.260  -8.620  -4.252  0.00  0.00    -0.646 OA
HETATM    8  O           1     -20.755  -9.127  -5.734  0.00  0.00    -0.646 OA
ENDBRANCH   5   6
BRANCH   5   9
HETATM    9  C           1     -21.931  -6.821  -3.932  0.00  0.00     0.046 C 
BRANCH   9  10
HETATM   10  C           1     -21.492  -6.101  -2.663  0.00  0.00     0.076 C 
BRANCH  10  11
HETATM   11  S           1     -22.203  -6.936  -1.216  0.00  0.00    -0.173 SA
HETATM   12  C           1     -20.898  -8.187  -1.048  0.00  0.00     0.089 C 
ENDBRANCH  10  11
ENDBRANCH   9  10
ENDBRANCH   5   9
ENDBRANCH   3   5
BRANCH   2  13
HETATM   13  C           1     -21.505  -4.782  -8.029  0.00  0.00     0.270 C 
HETATM   14  C           1     -20.315  -4.321  -8.861  0.00  0.00     0.050 C 
BRANCH  13  15
HETATM   15  N           1     -22.490  -3.658  -7.899  0.00  0.00    -0.067 N 
HETATM   16  H           1     -23.136  -3.853  -7.101  0.00  0.00     0.275 HD
HETATM   17  H           1     -21.977  -2.764  -7.720  0.00  0.00     0.275 HD
HETATM   18  H           1     -23.040  -3.573  -8.783  0.00  0.00     0.275 HD
ENDBRANCH  13  15
ENDBRANCH   2  13
TORSDOF 7
ENDMDL
MODEL 6
REMARK VINA RESULT:      -4.4     10.335     12.030
REMARK  7 active torsions:
REMARK  status: ('A' for Active; 'I' for Inactive)
REMARK    1  A    between atoms: C_4  and  C_5 
REMARK    2  A    between atoms: C_4  and  N_15 
REMARK       I    between atoms: C_5  and  N_6 
REMARK    3  A    between atoms: N_6  and  C_10 
REMARK    4  A    between atoms: C_9  and  C_10 
REMARK    5  A    between atoms: C_10  and  C_11 
REMARK    6  A    between atoms: C_11  and  C_12 
REMARK    7  A    between atoms: C_12  and  S_13 
ROOT
HETATM    1  H           1     -22.259  -5.808  -8.131  0.00  0.00     0.163 HD
HETATM    2  C           1     -22.928  -4.129  -9.140  0.00  0.00     0.248 C 
HETATM    3  N           1     -22.110  -4.819  -8.286  0.00  0.00    -0.345 N 
HETATM    4  O           1     -22.750  -2.949  -9.325  0.00  0.00    -0.271 OA
ENDROOT
BRANCH   3   5
HETATM    5  C           1     -21.029  -4.133  -7.605  0.00  0.00     0.186 C 
BRANCH   5   6
HETATM    6  C           1     -19.720  -4.458  -8.283  0.00  0.00     0.196 C 
HETATM    7  O           1     -19.711  -4.828  -9.477  0.00  0.00    -0.646 OA
HETATM    8  O           1     -18.648  -4.357  -7.650  0.00  0.00    -0.646 OA
ENDBRANCH   5   6
BRANCH   5   9
HETATM    9  C           1     -20.976  -4.588  -6.152  0.00  0.00     0.046 C 
BRANCH   9  10
HETATM   10  C           1     -21.866  -5.811  -5.970  0.00  0.00     0.076 C 
BRANCH  10  11
HETATM   11  S           1     -21.018  -7.024  -4.919  0.00  0.00    -0.173 SA
HETATM   12  C           1     -21.484  -6.275  -3.333  0.00  0.00     0.089 C 
ENDBRANCH  10  11
ENDBRANCH   9  10
ENDBRANCH   5   9
ENDBRANCH   3   5
BRANCH   2  13
HETATM   13  C           1     -24.052  -4.843  -9.849  0.00  0.00     0.270 C 
HETATM   14  C           1     -23.710  -4.988 -11.326  0.00  0.00     0.050 C 
BRANCH  13  15
HETATM   15  N           1     -25.317  -4.050  -9.704  0.00  0.00    -0.067 N 
HETATM   16  H           1     -25.497  -3.519 -10.585  0.00  0.00     0.275 HD
HETATM   17  H           1     -26.116  -4.699  -9.520  0.00  0.00     0.275 HD
HETATM   18  H           1     -25.219  -3.382  -8.906  0.00  0.00     0.275 HD
ENDBRANCH  13  15
ENDBRANCH   2  13
TORSDOF 7
ENDMDL
MODEL 7
REMARK VINA RESULT:      -4.3      2.686      4.657
REMARK  7 active torsions:
REMARK  status: ('A' for Active; 'I' for Inactive)
REMARK    1  A    between atoms: C_4  and  C_5 
REMARK    2  A    between atoms: C_4  and  N_15 
REMARK       I    between atoms: C_5  and  N_6 
REMARK    3  A    between atoms: N_6  and  C_10 
REMARK    4  A    between atoms: C_9  and  C_10 
REMARK    5  A    between atoms: C_10  and  C_11 
REMARK    6  A    between atoms: C_11  and  C_12 
REMARK    7  A    between atoms: C_12  and  S_13 
ROOT
HETATM    1  H           1     -27.200  -4.800 -17.035  0.00  0.00     0.163 HD
HETATM    2  C           1     -28.715  -6.019 -17.741  0.00  0.00     0.248 C 
HETATM    3  N           1     -27.419  -5.704 -17.433  0.00  0.00    -0.345 N 
HETATM    4  O           1     -28.977  -7.099 -18.216  0.00  0.00    -0.271 OA
ENDROOT
BRANCH   3   5
HETATM    5  C           1     -26.362  -6.666 -17.675  0.00  0.00     0.186 C 
BRANCH   5   6
HETATM    6  C           1     -25.414  -6.678 -16.500  0.00  0.00     0.196 C 
HETATM    7  O           1     -24.923  -7.758 -16.105  0.00  0.00    -0.646 OA
HETATM    8  O           1     -25.121  -5.609 -15.923  0.00  0.00    -0.646 OA
ENDBRANCH   5   6
BRANCH   5   9
HETATM    9  C           1     -25.603  -6.277 -18.937  0.00  0.00     0.046 C 
BRANCH   9  10
HETATM   10  C           1     -24.604  -7.372 -19.287  0.00  0.00     0.076 C 
BRANCH  10  11
HETATM   11  S           1     -24.827  -7.863 -21.021  0.00  0.00    -0.173 SA
HETATM   12  C           1     -23.107  -8.363 -21.311  0.00  0.00     0.089 C 
ENDBRANCH  10  11
ENDBRANCH   9  10
ENDBRANCH   5   9
ENDBRANCH   3   5
BRANCH   2  13
HETATM   13  C           1     -29.816  -5.018 -17.489  0.00  0.00     0.270 C 
HETATM   14  C           1     -29.218  -3.621 -17.382  0.00  0.00     0.050 C 
BRANCH  13  15
HETATM   15  N           1     -30.518  -5.361 -16.208  0.00  0.00    -0.067 N 
HETATM   16  H           1     -31.538  -5.492 -16.395  0.00  0.00     0.275 HD
HETATM   17  H           1     -30.119  -6.244 -15.816  0.00  0.00     0.275 HD
HETATM   18  H           1     -30.386  -4.584 -15.521  0.00  0.00     0.275 HD
ENDBRANCH  13  15
ENDBRANCH   2  13
TORSDOF 7
ENDMDL
MODEL 8
REMARK VINA RESULT:      -4.2     16.116     18.079
REMARK  7 active torsions:
REMARK  status: ('A' for Active; 'I' for Inactive)
REMARK    1  A    between atoms: C_4  and  C_5 
REMARK    2  A    between atoms: C_4  and  N_15 
REMARK       I    between atoms: C_5  and  N_6 
REMARK    3  A    between atoms: N_6  and  C_10 
REMARK    4  A    between atoms: C_9  and  C_10 
REMARK    5  A    between atoms: C_10  and  C_11 
REMARK    6  A    between atoms: C_11  and  C_12 
REMARK    7  A    between atoms: C_12  and  S_13 
ROOT
HETATM    1  H           1     -22.377  -9.724  -1.890  0.00  0.00     0.163 HD
HETATM    2  C           1     -21.665 -10.323  -0.041  0.00  0.00     0.248 C 
HETATM    3  N           1     -21.846  -9.444  -1.075  0.00  0.00    -0.345 N 
HETATM    4  O           1     -21.031  -9.988   0.932  0.00  0.00    -0.271 OA
ENDROOT
BRANCH   3   5
HETATM    5  C           1     -21.278  -8.112  -1.002  0.00  0.00     0.186 C 
BRANCH   5   6
HETATM    6  C           1     -22.383  -7.105  -0.791  0.00  0.00     0.196 C 
HETATM    7  O           1     -22.401  -6.048  -1.458  0.00  0.00    -0.646 OA
HETATM    8  O           1     -23.278  -7.329   0.051  0.00  0.00    -0.646 OA
ENDBRANCH   5   6
BRANCH   5   9
HETATM    9  C           1     -20.548  -7.801  -2.302  0.00  0.00     0.046 C 
BRANCH   9  10
HETATM   10  C           1     -21.070  -8.709  -3.408  0.00  0.00     0.076 C 
BRANCH  10  11
HETATM   11  S           1     -20.807  -7.914  -5.018  0.00  0.00    -0.173 SA
HETATM   12  C           1     -22.193  -6.749  -4.895  0.00  0.00     0.089 C 
ENDBRANCH  10  11
ENDBRANCH   9  10
ENDBRANCH   5   9
ENDBRANCH   3   5
BRANCH   2  13
HETATM   13  C           1     -22.256 -11.709  -0.117  0.00  0.00     0.270 C 
HETATM   14  C           1     -23.772 -11.623   0.005  0.00  0.00     0.050 C 
BRANCH  13  15
HETATM   15  N           1     -21.711 -12.546   1.003  0.00  0.00    -0.067 N 
HETATM   16  H           1     -21.788 -13.557   0.750  0.00  0.00     0.275 HD
HETATM   17  H           1     -20.708 -12.303   1.165  0.00  0.00     0.275 HD
HETATM   18  H           1     -22.260 -12.361   1.873  0.00  0.00     0.275 HD
ENDBRANCH  13  15
ENDBRANCH   2  13
TORSDOF 7
ENDMDL
MODEL 9
REMARK VINA RESULT:      -4.2     13.515     15.271
REMARK  7 active torsions:
REMARK  status: ('A' for Active; 'I' for Inactive)
REMARK    1  A    between atoms: C_4  and  C_5 
REMARK    2  A    between atoms: C_4  and  N_15 
REMARK       I    between atoms: C_5  and  N_6 
REMARK    3  A    between atoms: N_6  and  C_10 
REMARK    4  A    between atoms: C_9  and  C_10 
REMARK    5  A    between atoms: C_10  and  C_11 
REMARK    6  A    between atoms: C_11  and  C_12 
REMARK    7  A    between atoms: C_12  and  S_13 
ROOT
HETATM    1  H           1     -19.791  -6.819  -4.751  0.00  0.00     0.163 HD
HETATM    2  C           1     -21.356  -5.796  -5.638  0.00  0.00     0.248 C 
HETATM    3  N           1     -20.795  -6.701  -4.778  0.00  0.00    -0.345 N 
HETATM    4  O           1     -22.556  -5.655  -5.669  0.00  0.00    -0.271 OA
ENDROOT
BRANCH   3   5
HETATM    5  C           1     -21.642  -7.490  -3.903  0.00  0.00     0.186 C 
BRANCH   5   6
HETATM    6  C           1     -21.638  -6.884  -2.520  0.00  0.00     0.196 C 
HETATM    7  O           1     -22.379  -5.909  -2.264  0.00  0.00    -0.646 OA
HETATM    8  O           1     -20.896  -7.356  -1.634  0.00  0.00    -0.646 OA
ENDBRANCH   5   6
BRANCH   5   9
HETATM    9  C           1     -21.111  -8.915  -3.834  0.00  0.00     0.046 C 
BRANCH   9  10
HETATM   10  C           1     -19.778  -8.997  -4.569  0.00  0.00     0.076 C 
BRANCH  10  11
HETATM   11  S           1     -18.473  -9.476  -3.403  0.00  0.00    -0.173 SA
HETATM   12  C           1     -19.522 -10.507  -2.340  0.00  0.00     0.089 C 
ENDBRANCH  10  11
ENDBRANCH   9  10
ENDBRANCH   5   9
ENDBRANCH   3   5
BRANCH   2  13
HETATM   13  C           1     -20.476  -4.975  -6.548  0.00  0.00     0.270 C 
HETATM   14  C           1     -21.275  -3.807  -7.110  0.00  0.00     0.050 C 
BRANCH  13  15
HETATM   15  N           1     -19.986  -5.834  -7.677  0.00  0.00    -0.067 N 
HETATM   16  H           1     -19.111  -5.422  -8.072  0.00  0.00     0.275 HD
HETATM   17  H           1     -19.789  -6.797  -7.323  0.00  0.00     0.275 HD
HETATM   18  H           1     -20.718  -5.880  -8.422  0.00  0.00     0.275 HD
ENDBRANCH  13  15
ENDBRANCH   2  13
TORSDOF 7
ENDMDL
