MODEL 1
REMARK VINA RESULT:      -7.8      0.000      0.000
REMARK  8 active torsions:
REMARK  status: ('A' for Active; 'I' for Inactive)
REMARK    1  A    between atoms: C_2  and  C_4 
REMARK       I    between atoms: N_5  and  C_6 
REMARK    2  A    between atoms: C_6  and  C_7 
REMARK    3  A    between atoms: C_7  and  C_8 
REMARK    4  A    between atoms: C_7  and  N_20 
REMARK    5  A    between atoms: C_8  and  C_9 
REMARK    6  A    between atoms: C_12  and  O_13 
REMARK    7  A    between atoms: O_13  and  P_14 
REMARK    8  A    between atoms: P_14  and  O_16 
ROOT
HETATM    1  C           1     -21.400  -6.899  -4.234  0.00  0.00     0.279 C 
ENDROOT
BRANCH   1   2
HETATM    2  C           1     -21.467  -8.349  -3.824  0.00  0.00     0.251 C 
HETATM    3  N           1     -21.213  -8.706  -2.527  0.00  0.00    -0.336 N 
HETATM    4  C           1     -22.184  -8.941  -1.462  0.00  0.00     0.188 C 
HETATM    5  C           1     -19.911  -8.934  -1.906  0.00  0.00     0.127 C 
HETATM    6  C           1     -21.634 -10.155  -0.733  0.00  0.00     0.038 C 
HETATM    7  C           1     -20.137 -10.148  -1.021  0.00  0.00     0.022 C 
HETATM    8  O           1     -21.745  -9.195  -4.640  0.00  0.00    -0.271 OA
BRANCH   4   9
HETATM    9  C           1     -22.266  -7.750  -0.538  0.00  0.00     0.196 C 
HETATM   10  O           1     -21.861  -7.846   0.641  0.00  0.00    -0.646 OA
HETATM   11  O           1     -22.737  -6.668  -0.952  0.00  0.00    -0.646 OA
ENDBRANCH   4   9
ENDBRANCH   1   2
BRANCH   1  12
HETATM   12  C           1     -20.376  -6.732  -5.350  0.00  0.00     0.081 C 
BRANCH  12  13
HETATM   13  C           1     -20.962  -5.893  -6.443  0.00  0.00    -0.056 A 
HETATM   14  C           1     -22.361  -5.311  -6.291  0.00  0.00     0.010 A 
HETATM   15  C           1     -22.956  -4.457  -7.403  0.00  0.00     0.038 A 
HETATM   16  C           1     -22.152  -4.185  -8.667  0.00  0.00     0.081 A 
HETATM   17  C           1     -20.752  -4.766  -8.819  0.00  0.00     0.038 A 
HETATM   18  C           1     -20.157  -5.620  -7.707  0.00  0.00     0.010 A 
BRANCH  16  19
HETATM   19  O           1     -22.680  -3.425  -9.656  0.00  0.00    -0.247 OA
BRANCH  19  20
HETATM   20  P           1     -23.623  -4.150 -10.749  0.00  0.00     0.411 P 
HETATM   21  O           1     -24.813  -3.309 -11.010  0.00  0.00    -0.624 OA
HETATM   22  O           1     -24.055  -5.467 -10.231  0.00  0.00    -0.624 OA
BRANCH  20  23
HETATM   23  O           1     -22.796  -4.354 -12.121  0.00  0.00    -0.300 OA
HETATM   24  H           1     -22.438  -5.223 -12.062  0.00  0.00     0.223 HD
ENDBRANCH  20  23
ENDBRANCH  19  20
ENDBRANCH  16  19
ENDBRANCH  12  13
ENDBRANCH   1  12
BRANCH   1  25
HETATM   25  N           1     -20.994  -6.065  -3.055  0.00  0.00    -0.066 N 
HETATM   26  H           1     -21.374  -6.490  -2.180  0.00  0.00     0.275 HD
HETATM   27  H           1     -19.951  -6.027  -2.999  0.00  0.00     0.275 HD
HETATM   28  H           1     -21.372  -5.097  -3.165  0.00  0.00     0.275 HD
ENDBRANCH   1  25
TORSDOF 8
ENDMDL
MODEL 2
REMARK VINA RESULT:      -7.6      1.665      2.394
REMARK  8 active torsions:
REMARK  status: ('A' for Active; 'I' for Inactive)
REMARK    1  A    between atoms: C_2  and  C_4 
REMARK       I    between atoms: N_5  and  C_6 
REMARK    2  A    between atoms: C_6  and  C_7 
REMARK    3  A    between atoms: C_7  and  C_8 
REMARK    4  A    between atoms: C_7  and  N_20 
REMARK    5  A    between atoms: C_8  and  C_9 
REMARK    6  A    between atoms: C_12  and  O_13 
REMARK    7  A    between atoms: O_13  and  P_14 
REMARK    8  A    between atoms: P_14  and  O_16 
ROOT
HETATM    1  C           1     -20.427  -6.793  -5.228  0.00  0.00     0.279 C 
ENDROOT
BRANCH   1   2
HETATM    2  C           1     -21.192  -7.042  -3.951  0.00  0.00     0.251 C 
HETATM    3  N           1     -21.086  -8.250  -3.314  0.00  0.00    -0.336 N 
HETATM    4  C           1     -20.210  -8.593  -2.197  0.00  0.00     0.188 C 
HETATM    5  C           1     -21.824  -9.476  -3.605  0.00  0.00     0.127 C 
HETATM    6  C           1     -21.085  -9.457  -1.305  0.00  0.00     0.038 C 
HETATM    7  C           1     -22.144 -10.042  -2.232  0.00  0.00     0.022 C 
HETATM    8  O           1     -21.897  -6.177  -3.491  0.00  0.00    -0.271 OA
BRANCH   4   9
HETATM    9  C           1     -19.005  -9.363  -2.677  0.00  0.00     0.196 C 
HETATM   10  O           1     -18.352  -8.952  -3.660  0.00  0.00    -0.646 OA
HETATM   11  O           1     -18.659 -10.412  -2.091  0.00  0.00    -0.646 OA
ENDBRANCH   4   9
ENDBRANCH   1   2
BRANCH   1  12
HETATM   12  C           1     -20.228  -5.295  -5.417  0.00  0.00     0.081 C 
BRANCH  12  13
HETATM   13  C           1     -20.765  -4.885  -6.753  0.00  0.00    -0.056 A 
HETATM   14  C           1     -22.203  -4.400  -6.881  0.00  0.00     0.010 A 
HETATM   15  C           1     -22.749  -3.984  -8.240  0.00  0.00     0.038 A 
HETATM   16  C           1     -21.857  -4.052  -9.472  0.00  0.00     0.081 A 
HETATM   17  C           1     -20.418  -4.537  -9.345  0.00  0.00     0.038 A 
HETATM   18  C           1     -19.873  -4.953  -7.985  0.00  0.00     0.010 A 
BRANCH  16  19
HETATM   19  O           1     -22.342  -3.681 -10.682  0.00  0.00    -0.247 OA
BRANCH  19  20
HETATM   20  P           1     -23.728  -4.344 -11.179  0.00  0.00     0.411 P 
HETATM   21  O           1     -24.833  -3.378 -10.989  0.00  0.00    -0.624 OA
HETATM   22  O           1     -24.000  -5.566 -10.392  0.00  0.00    -0.624 OA
BRANCH  20  23
HETATM   23  O           1     -23.609  -4.725 -12.744  0.00  0.00    -0.300 OA
HETATM   24  H           1     -24.405  -5.189 -12.942  0.00  0.00     0.223 HD
ENDBRANCH  20  23
ENDBRANCH  19  20
ENDBRANCH  16  19
ENDBRANCH  12  13
ENDBRANCH   1  12
BRANCH   1  25
HETATM   25  N           1     -21.201  -7.345  -6.389  0.00  0.00    -0.066 N 
HETATM   26  H           1     -20.649  -8.105  -6.846  0.00  0.00     0.275 HD
HETATM   27  H           1     -22.110  -7.732  -6.049  0.00  0.00     0.275 HD
HETATM   28  H           1     -21.383  -6.582  -7.080  0.00  0.00     0.275 HD
ENDBRANCH   1  25
TORSDOF 8
ENDMDL
MODEL 3
REMARK VINA RESULT:      -7.3     12.982     14.752
REMARK  8 active torsions:
REMARK  status: ('A' for Active; 'I' for Inactive)
REMARK    1  A    between atoms: C_2  and  C_4 
REMARK       I    between atoms: N_5  and  C_6 
REMARK    2  A    between atoms: C_6  and  C_7 
REMARK    3  A    between atoms: C_7  and  C_8 
REMARK    4  A    between atoms: C_7  and  N_20 
REMARK    5  A    between atoms: C_8  and  C_9 
REMARK    6  A    between atoms: C_12  and  O_13 
REMARK    7  A    between atoms: O_13  and  P_14 
REMARK    8  A    between atoms: P_14  and  O_16 
ROOT
HETATM    1  C           1     -33.830  -4.769 -15.413  0.00  0.00     0.279 C 
ENDROOT
BRANCH   1   2
HETATM    2  C           1     -34.226  -3.820 -14.309  0.00  0.00     0.251 C 
HETATM    3  N           1     -34.096  -4.201 -13.000  0.00  0.00    -0.336 N 
HETATM    4  C           1     -32.989  -3.906 -12.094  0.00  0.00     0.188 C 
HETATM    5  C           1     -35.033  -4.991 -12.206  0.00  0.00     0.127 C 
HETATM    6  C           1     -33.676  -3.596 -10.775  0.00  0.00     0.038 C 
HETATM    7  C           1     -35.018  -4.314 -10.847  0.00  0.00     0.022 C 
HETATM    8  O           1     -34.658  -2.726 -14.579  0.00  0.00    -0.271 OA
BRANCH   4   9
HETATM    9  C           1     -32.075  -5.099 -11.957  0.00  0.00     0.196 C 
HETATM   10  O           1     -30.963  -5.103 -12.528  0.00  0.00    -0.646 OA
HETATM   11  O           1     -32.429  -6.083 -11.272  0.00  0.00    -0.646 OA
ENDBRANCH   4   9
ENDBRANCH   1   2
BRANCH   1  12
HETATM   12  C           1     -33.331  -3.973 -16.613  0.00  0.00     0.081 C 
BRANCH  12  13
HETATM   13  C           1     -32.000  -4.506 -17.046  0.00  0.00    -0.056 A 
HETATM   14  C           1     -30.926  -3.554 -17.554  0.00  0.00     0.010 A 
HETATM   15  C           1     -29.573  -4.096 -17.995  0.00  0.00     0.038 A 
HETATM   16  C           1     -29.294  -5.592 -17.928  0.00  0.00     0.081 A 
HETATM   17  C           1     -30.368  -6.545 -17.420  0.00  0.00     0.038 A 
HETATM   18  C           1     -31.721  -6.002 -16.979  0.00  0.00     0.010 A 
BRANCH  16  19
HETATM   19  O           1     -28.091  -6.075 -18.320  0.00  0.00    -0.247 OA
BRANCH  19  20
HETATM   20  P           1     -26.913  -6.164 -17.219  0.00  0.00     0.411 P 
HETATM   21  O           1     -26.839  -4.889 -16.471  0.00  0.00    -0.624 OA
HETATM   22  O           1     -25.622  -6.413 -17.897  0.00  0.00    -0.624 OA
BRANCH  20  23
HETATM   23  O           1     -27.227  -7.372 -16.193  0.00  0.00    -0.300 OA
HETATM   24  H           1     -26.405  -7.819 -16.086  0.00  0.00     0.223 HD
ENDBRANCH  20  23
ENDBRANCH  19  20
ENDBRANCH  16  19
ENDBRANCH  12  13
ENDBRANCH   1  12
BRANCH   1  25
HETATM   25  N           1     -35.020  -5.588 -15.818  0.00  0.00    -0.066 N 
HETATM   26  H           1     -35.797  -5.434 -15.138  0.00  0.00     0.275 HD
HETATM   27  H           1     -35.331  -5.301 -16.773  0.00  0.00     0.275 HD
HETATM   28  H           1     -34.759  -6.601 -15.826  0.00  0.00     0.275 HD
ENDBRANCH   1  25
TORSDOF 8
ENDMDL
MODEL 4
REMARK VINA RESULT:      -7.3      3.309      8.651
REMARK  8 active torsions:
REMARK  status: ('A' for Active; 'I' for Inactive)
REMARK    1  A    between atoms: C_2  and  C_4 
REMARK       I    between atoms: N_5  and  C_6 
REMARK    2  A    between atoms: C_6  and  C_7 
REMARK    3  A    between atoms: C_7  and  C_8 
REMARK    4  A    between atoms: C_7  and  N_20 
REMARK    5  A    between atoms: C_8  and  C_9 
REMARK    6  A    between atoms: C_12  and  O_13 
REMARK    7  A    between atoms: O_13  and  P_14 
REMARK    8  A    between atoms: P_14  and  O_16 
ROOT
HETATM    1  C           1     -22.333  -4.623  -6.692  0.00  0.00     0.279 C 
ENDROOT
BRANCH   1   2
HETATM    2  C           1     -21.625  -3.704  -7.656  0.00  0.00     0.251 C 
HETATM    3  N           1     -21.574  -4.017  -8.988  0.00  0.00    -0.336 N 
HETATM    4  C           1     -22.454  -3.536 -10.049  0.00  0.00     0.188 C 
HETATM    5  C           1     -20.628  -4.906  -9.657  0.00  0.00     0.127 C 
HETATM    6  C           1     -21.512  -3.283 -11.213  0.00  0.00     0.038 C 
HETATM    7  C           1     -20.312  -4.188 -10.958  0.00  0.00     0.022 C 
HETATM    8  O           1     -21.103  -2.693  -7.253  0.00  0.00    -0.271 OA
BRANCH   4   9
HETATM    9  C           1     -23.483  -4.580 -10.408  0.00  0.00     0.196 C 
HETATM   10  O           1     -23.379  -5.218 -11.478  0.00  0.00    -0.646 OA
HETATM   11  O           1     -24.439  -4.809  -9.635  0.00  0.00    -0.646 OA
ENDBRANCH   4   9
ENDBRANCH   1   2
BRANCH   1  12
HETATM   12  C           1     -21.806  -6.043  -6.862  0.00  0.00     0.081 C 
BRANCH  12  13
HETATM   13  C           1     -21.546  -6.643  -5.515  0.00  0.00    -0.056 A 
HETATM   14  C           1     -21.205  -5.745  -4.333  0.00  0.00     0.010 A 
HETATM   15  C           1     -20.940  -6.355  -2.964  0.00  0.00     0.038 A 
HETATM   16  C           1     -21.017  -7.864  -2.775  0.00  0.00     0.081 A 
HETATM   17  C           1     -21.358  -8.763  -3.957  0.00  0.00     0.038 A 
HETATM   18  C           1     -21.623  -8.152  -5.327  0.00  0.00     0.010 A 
BRANCH  16  19
HETATM   19  O           1     -20.782  -8.409  -1.557  0.00  0.00    -0.247 OA
BRANCH  19  20
HETATM   20  P           1     -21.977  -8.384  -0.471  0.00  0.00     0.411 P 
HETATM   21  O           1     -21.405  -8.436   0.894  0.00  0.00    -0.624 OA
HETATM   22  O           1     -22.858  -9.554  -0.681  0.00  0.00    -0.624 OA
BRANCH  20  23
HETATM   23  O           1     -22.832  -7.025  -0.644  0.00  0.00    -0.300 OA
HETATM   24  H           1     -22.735  -6.791  -1.551  0.00  0.00     0.223 HD
ENDBRANCH  20  23
ENDBRANCH  19  20
ENDBRANCH  16  19
ENDBRANCH  12  13
ENDBRANCH   1  12
BRANCH   1  25
HETATM   25  N           1     -23.807  -4.601  -6.972  0.00  0.00    -0.066 N 
HETATM   26  H           1     -24.201  -5.559  -6.841  0.00  0.00     0.275 HD
HETATM   27  H           1     -24.276  -3.939  -6.314  0.00  0.00     0.275 HD
HETATM   28  H           1     -23.970  -4.288  -7.956  0.00  0.00     0.275 HD
ENDBRANCH   1  25
TORSDOF 8
ENDMDL
MODEL 5
REMARK VINA RESULT:      -6.9      3.363      8.814
REMARK  8 active torsions:
REMARK  status: ('A' for Active; 'I' for Inactive)
REMARK    1  A    between atoms: C_2  and  C_4 
REMARK       I    between atoms: N_5  and  C_6 
REMARK    2  A    between atoms: C_6  and  C_7 
REMARK    3  A    between atoms: C_7  and  C_8 
REMARK    4  A    between atoms: C_7  and  N_20 
REMARK    5  A    between atoms: C_8  and  C_9 
REMARK    6  A    between atoms: C_12  and  O_13 
REMARK    7  A    between atoms: O_13  and  P_14 
REMARK    8  A    between atoms: P_14  and  O_16 
ROOT
HETATM    1  C           1     -21.200  -5.779  -7.377  0.00  0.00     0.279 C 
ENDROOT
BRANCH   1   2
HETATM    2  C           1     -20.846  -4.478  -8.056  0.00  0.00     0.251 C 
HETATM    3  N           1     -21.087  -4.317  -9.394  0.00  0.00    -0.336 N 
HETATM    4  C           1     -22.243  -3.681 -10.019  0.00  0.00     0.188 C 
HETATM    5  C           1     -20.243  -4.744 -10.507  0.00  0.00     0.127 C 
HETATM    6  C           1     -21.642  -2.887 -11.167  0.00  0.00     0.038 C 
HETATM    7  C           1     -20.328  -3.590 -11.491  0.00  0.00     0.022 C 
HETATM    8  O           1     -20.351  -3.580  -7.419  0.00  0.00    -0.271 OA
BRANCH   4   9
HETATM    9  C           1     -23.213  -4.717 -10.533  0.00  0.00     0.196 C 
HETATM   10  O           1     -23.760  -5.509  -9.735  0.00  0.00    -0.646 OA
HETATM   11  O           1     -23.470  -4.782 -11.754  0.00  0.00    -0.646 OA
ENDBRANCH   4   9
ENDBRANCH   1   2
BRANCH   1  12
HETATM   12  C           1     -22.103  -5.499  -6.183  0.00  0.00     0.081 C 
BRANCH  12  13
HETATM   13  C           1     -21.784  -6.461  -5.080  0.00  0.00    -0.056 A 
HETATM   14  C           1     -21.937  -7.959  -5.307  0.00  0.00     0.010 A 
HETATM   15  C           1     -21.612  -8.937  -4.186  0.00  0.00     0.038 A 
HETATM   16  C           1     -21.133  -8.416  -2.837  0.00  0.00     0.081 A 
HETATM   17  C           1     -20.980  -6.918  -2.609  0.00  0.00     0.038 A 
HETATM   18  C           1     -21.305  -5.941  -3.731  0.00  0.00     0.010 A 
BRANCH  16  19
HETATM   19  O           1     -20.844  -9.285  -1.839  0.00  0.00    -0.247 OA
BRANCH  19  20
HETATM   20  P           1     -22.027  -9.690  -0.817  0.00  0.00     0.411 P 
HETATM   21  O           1     -21.452 -10.392   0.352  0.00  0.00    -0.624 OA
HETATM   22  O           1     -22.988 -10.582  -1.504  0.00  0.00    -0.624 OA
BRANCH  20  23
HETATM   23  O           1     -22.789  -8.355  -0.322  0.00  0.00    -0.300 OA
HETATM   24  H           1     -23.590  -8.662   0.067  0.00  0.00     0.223 HD
ENDBRANCH  20  23
ENDBRANCH  19  20
ENDBRANCH  16  19
ENDBRANCH  12  13
ENDBRANCH   1  12
BRANCH   1  25
HETATM   25  N           1     -19.946  -6.455  -6.908  0.00  0.00    -0.066 N 
HETATM   26  H           1     -19.114  -5.936  -7.270  0.00  0.00     0.275 HD
HETATM   27  H           1     -19.924  -6.460  -5.863  0.00  0.00     0.275 HD
HETATM   28  H           1     -19.925  -7.437  -7.262  0.00  0.00     0.275 HD
ENDBRANCH   1  25
TORSDOF 8
ENDMDL
MODEL 6
REMARK VINA RESULT:      -6.9      2.053      2.394
REMARK  8 active torsions:
REMARK  status: ('A' for Active; 'I' for Inactive)
REMARK    1  A    between atoms: C_2  and  C_4 
REMARK       I    between atoms: N_5  and  C_6 
REMARK    2  A    between atoms: C_6  and  C_7 
REMARK    3  A    between atoms: C_7  and  C_8 
REMARK    4  A    between atoms: C_7  and  N_20 
REMARK    5  A    between atoms: C_8  and  C_9 
REMARK    6  A    between atoms: C_12  and  O_13 
REMARK    7  A    between atoms: O_13  and  P_14 
REMARK    8  A    between atoms: P_14  and  O_16 
ROOT
HETATM    1  C           1     -20.722  -7.821  -5.392  0.00  0.00     0.279 C 
ENDROOT
BRANCH   1   2
HETATM    2  C           1     -19.620  -8.832  -5.191  0.00  0.00     0.251 C 
HETATM    3  N           1     -19.610  -9.619  -4.070  0.00  0.00    -0.336 N 
HETATM    4  C           1     -20.121 -10.980  -3.933  0.00  0.00     0.188 C 
HETATM    5  C           1     -19.086  -9.278  -2.750  0.00  0.00     0.127 C 
HETATM    6  C           1     -19.077 -11.672  -3.073  0.00  0.00     0.038 C 
HETATM    7  C           1     -18.399 -10.553  -2.291  0.00  0.00     0.022 C 
HETATM    8  O           1     -18.749  -8.949  -6.018  0.00  0.00    -0.271 OA
BRANCH   4   9
HETATM    9  C           1     -21.467 -10.982  -3.250  0.00  0.00     0.196 C 
HETATM   10  O           1     -22.474 -10.553  -3.854  0.00  0.00    -0.646 OA
HETATM   11  O           1     -21.575 -11.413  -2.081  0.00  0.00    -0.646 OA
ENDBRANCH   4   9
ENDBRANCH   1   2
BRANCH   1  12
HETATM   12  C           1     -20.122  -6.422  -5.460  0.00  0.00     0.081 C 
BRANCH  12  13
HETATM   13  C           1     -20.762  -5.659  -6.577  0.00  0.00    -0.056 A 
HETATM   14  C           1     -22.162  -5.085  -6.404  0.00  0.00     0.010 A 
HETATM   15  C           1     -22.814  -4.308  -7.540  0.00  0.00     0.038 A 
HETATM   16  C           1     -22.065  -4.105  -8.850  0.00  0.00     0.081 A 
HETATM   17  C           1     -20.665  -4.678  -9.025  0.00  0.00     0.038 A 
HETATM   18  C           1     -20.014  -5.455  -7.888  0.00  0.00     0.010 A 
BRANCH  16  19
HETATM   19  O           1     -22.644  -3.414  -9.862  0.00  0.00    -0.247 OA
BRANCH  19  20
HETATM   20  P           1     -23.661  -4.203 -10.836  0.00  0.00     0.411 P 
HETATM   21  O           1     -24.869  -3.378 -11.062  0.00  0.00    -0.624 OA
HETATM   22  O           1     -24.050  -5.485 -10.208  0.00  0.00    -0.624 OA
BRANCH  20  23
HETATM   23  O           1     -22.935  -4.493 -12.249  0.00  0.00    -0.300 OA
HETATM   24  H           1     -22.121  -4.020 -12.206  0.00  0.00     0.223 HD
ENDBRANCH  20  23
ENDBRANCH  19  20
ENDBRANCH  16  19
ENDBRANCH  12  13
ENDBRANCH   1  12
BRANCH   1  25
HETATM   25  N           1     -21.684  -7.896  -4.244  0.00  0.00    -0.066 N 
HETATM   26  H           1     -21.156  -8.043  -3.355  0.00  0.00     0.275 HD
HETATM   27  H           1     -22.224  -7.004  -4.184  0.00  0.00     0.275 HD
HETATM   28  H           1     -22.344  -8.693  -4.393  0.00  0.00     0.275 HD
ENDBRANCH   1  25
TORSDOF 8
ENDMDL
MODEL 7
REMARK VINA RESULT:      -6.7      1.736      2.562
REMARK  8 active torsions:
REMARK  status: ('A' for Active; 'I' for Inactive)
REMARK    1  A    between atoms: C_2  and  C_4 
REMARK       I    between atoms: N_5  and  C_6 
REMARK    2  A    between atoms: C_6  and  C_7 
REMARK    3  A    between atoms: C_7  and  C_8 
REMARK    4  A    between atoms: C_7  and  N_20 
REMARK    5  A    between atoms: C_8  and  C_9 
REMARK    6  A    between atoms: C_12  and  O_13 
REMARK    7  A    between atoms: O_13  and  P_14 
REMARK    8  A    between atoms: P_14  and  O_16 
ROOT
HETATM    1  C           1     -20.369  -8.418  -4.940  0.00  0.00     0.279 C 
ENDROOT
BRANCH   1   2
HETATM    2  C           1     -19.743  -8.885  -3.649  0.00  0.00     0.251 C 
HETATM    3  N           1     -20.537  -9.205  -2.580  0.00  0.00    -0.336 N 
HETATM    4  C           1     -21.002 -10.531  -2.183  0.00  0.00     0.188 C 
HETATM    5  C           1     -21.105  -8.294  -1.590  0.00  0.00     0.127 C 
HETATM    6  C           1     -20.883 -10.516  -0.668  0.00  0.00     0.038 C 
HETATM    7  C           1     -20.955  -9.044  -0.278  0.00  0.00     0.022 C 
HETATM    8  O           1     -18.543  -8.976  -3.558  0.00  0.00    -0.271 OA
BRANCH   4   9
HETATM    9  C           1     -22.434 -10.748  -2.607  0.00  0.00     0.196 C 
HETATM   10  O           1     -23.320 -10.931  -1.744  0.00  0.00    -0.646 OA
HETATM   11  O           1     -22.734 -10.742  -3.821  0.00  0.00    -0.646 OA
ENDBRANCH   4   9
ENDBRANCH   1   2
BRANCH   1  12
HETATM   12  C           1     -21.545  -7.500  -4.633  0.00  0.00     0.081 C 
BRANCH  12  13
HETATM   13  C           1     -21.680  -6.481  -5.721  0.00  0.00    -0.056 A 
HETATM   14  C           1     -20.512  -6.210  -6.661  0.00  0.00     0.010 A 
HETATM   15  C           1     -20.650  -5.173  -7.768  0.00  0.00     0.038 A 
HETATM   16  C           1     -21.955  -4.406  -7.935  0.00  0.00     0.081 A 
HETATM   17  C           1     -23.123  -4.676  -6.995  0.00  0.00     0.038 A 
HETATM   18  C           1     -22.985  -5.714  -5.888  0.00  0.00     0.010 A 
BRANCH  16  19
HETATM   19  O           1     -22.078  -3.484  -8.919  0.00  0.00    -0.247 OA
BRANCH  19  20
HETATM   20  P           1     -23.170  -3.751 -10.078  0.00  0.00     0.411 P 
HETATM   21  O           1     -22.626  -3.306 -11.381  0.00  0.00    -0.624 OA
HETATM   22  O           1     -24.405  -2.994  -9.776  0.00  0.00    -0.624 OA
BRANCH  20  23
HETATM   23  O           1     -23.506  -5.329 -10.145  0.00  0.00    -0.300 OA
HETATM   24  H           1     -22.667  -5.756 -10.158  0.00  0.00     0.223 HD
ENDBRANCH  20  23
ENDBRANCH  19  20
ENDBRANCH  16  19
ENDBRANCH  12  13
ENDBRANCH   1  12
BRANCH   1  25
HETATM   25  N           1     -20.853  -9.606  -5.718  0.00  0.00    -0.066 N 
HETATM   26  H           1     -21.838  -9.443  -6.027  0.00  0.00     0.275 HD
HETATM   27  H           1     -20.244  -9.744  -6.556  0.00  0.00     0.275 HD
HETATM   28  H           1     -20.813 -10.458  -5.114  0.00  0.00     0.275 HD
ENDBRANCH   1  25
TORSDOF 8
ENDMDL
MODEL 8
REMARK VINA RESULT:      -6.6      1.966      2.652
REMARK  8 active torsions:
REMARK  status: ('A' for Active; 'I' for Inactive)
REMARK    1  A    between atoms: C_2  and  C_4 
REMARK       I    between atoms: N_5  and  C_6 
REMARK    2  A    between atoms: C_6  and  C_7 
REMARK    3  A    between atoms: C_7  and  C_8 
REMARK    4  A    between atoms: C_7  and  N_20 
REMARK    5  A    between atoms: C_8  and  C_9 
REMARK    6  A    between atoms: C_12  and  O_13 
REMARK    7  A    between atoms: O_13  and  P_14 
REMARK    8  A    between atoms: P_14  and  O_16 
ROOT
HETATM    1  C           1     -21.695  -7.187  -2.298  0.00  0.00     0.279 C 
ENDROOT
BRANCH   1   2
HETATM    2  C           1     -20.789  -8.280  -1.788  0.00  0.00     0.251 C 
HETATM    3  N           1     -21.161  -9.028  -0.704  0.00  0.00    -0.336 N 
HETATM    4  C           1     -21.809 -10.337  -0.706  0.00  0.00     0.188 C 
HETATM    5  C           1     -20.997  -8.691   0.708  0.00  0.00     0.127 C 
HETATM    6  C           1     -21.112 -11.086   0.417  0.00  0.00     0.038 C 
HETATM    7  C           1     -20.582 -10.003   1.349  0.00  0.00     0.022 C 
HETATM    8  O           1     -19.735  -8.495  -2.337  0.00  0.00    -0.271 OA
BRANCH   4   9
HETATM    9  C           1     -23.287 -10.204  -0.427  0.00  0.00     0.196 C 
HETATM   10  O           1     -23.724  -9.188   0.156  0.00  0.00    -0.646 OA
HETATM   11  O           1     -24.073 -11.109  -0.781  0.00  0.00    -0.646 OA
ENDBRANCH   4   9
ENDBRANCH   1   2
BRANCH   1  12
HETATM   12  C           1     -20.856  -5.997  -2.745  0.00  0.00     0.081 C 
BRANCH  12  13
HETATM   13  C           1     -20.957  -5.846  -4.231  0.00  0.00    -0.056 A 
HETATM   14  C           1     -21.863  -6.772  -5.032  0.00  0.00     0.010 A 
HETATM   15  C           1     -21.965  -6.618  -6.544  0.00  0.00     0.038 A 
HETATM   16  C           1     -21.161  -5.538  -7.255  0.00  0.00     0.081 A 
HETATM   17  C           1     -20.254  -4.612  -6.455  0.00  0.00     0.038 A 
HETATM   18  C           1     -20.153  -4.766  -4.943  0.00  0.00     0.010 A 
BRANCH  16  19
HETATM   19  O           1     -21.251  -5.401  -8.600  0.00  0.00    -0.247 OA
BRANCH  19  20
HETATM   20  P           1     -22.381  -4.408  -9.187  0.00  0.00     0.411 P 
HETATM   21  O           1     -23.350  -5.184  -9.993  0.00  0.00    -0.624 OA
HETATM   22  O           1     -21.741  -3.382 -10.040  0.00  0.00    -0.624 OA
BRANCH  20  23
HETATM   23  O           1     -23.153  -3.689  -7.964  0.00  0.00    -0.300 OA
HETATM   24  H           1     -22.575  -3.000  -7.683  0.00  0.00     0.223 HD
ENDBRANCH  20  23
ENDBRANCH  19  20
ENDBRANCH  16  19
ENDBRANCH  12  13
ENDBRANCH   1  12
BRANCH   1  25
HETATM   25  N           1     -22.625  -6.758  -1.201  0.00  0.00    -0.066 N 
HETATM   26  H           1     -22.178  -5.996  -0.643  0.00  0.00     0.275 HD
HETATM   27  H           1     -23.516  -6.407  -1.618  0.00  0.00     0.275 HD
HETATM   28  H           1     -22.829  -7.572  -0.578  0.00  0.00     0.275 HD
ENDBRANCH   1  25
TORSDOF 8
ENDMDL
MODEL 9
REMARK VINA RESULT:      -6.6      4.042      6.214
REMARK  8 active torsions:
REMARK  status: ('A' for Active; 'I' for Inactive)
REMARK    1  A    between atoms: C_2  and  C_4 
REMARK       I    between atoms: N_5  and  C_6 
REMARK    2  A    between atoms: C_6  and  C_7 
REMARK    3  A    between atoms: C_7  and  C_8 
REMARK    4  A    between atoms: C_7  and  N_20 
REMARK    5  A    between atoms: C_8  and  C_9 
REMARK    6  A    between atoms: C_12  and  O_13 
REMARK    7  A    between atoms: O_13  and  P_14 
REMARK    8  A    between atoms: P_14  and  O_16 
ROOT
HETATM    1  C           1     -22.567 -10.746  -0.307  0.00  0.00     0.279 C 
ENDROOT
BRANCH   1   2
HETATM    2  C           1     -21.637 -11.580   0.538  0.00  0.00     0.251 C 
HETATM    3  N           1     -21.910 -12.905   0.754  0.00  0.00    -0.336 N 
HETATM    4  C           1     -21.376 -14.053   0.028  0.00  0.00     0.188 C 
HETATM    5  C           1     -22.801 -13.476   1.760  0.00  0.00     0.127 C 
HETATM    6  C           1     -21.110 -15.077   1.118  0.00  0.00     0.038 C 
HETATM    7  C           1     -22.051 -14.700   2.256  0.00  0.00     0.022 C 
HETATM    8  O           1     -20.651 -11.080   1.024  0.00  0.00    -0.271 OA
BRANCH   4   9
HETATM    9  C           1     -22.383 -14.576  -0.967  0.00  0.00     0.196 C 
HETATM   10  O           1     -22.656 -15.796  -0.996  0.00  0.00    -0.646 OA
HETATM   11  O           1     -22.945 -13.790  -1.759  0.00  0.00    -0.646 OA
ENDBRANCH   4   9
ENDBRANCH   1   2
BRANCH   1  12
HETATM   12  C           1     -22.535  -9.301   0.175  0.00  0.00     0.081 C 
BRANCH  12  13
HETATM   13  C           1     -22.109  -8.410  -0.950  0.00  0.00    -0.056 A 
HETATM   14  C           1     -21.361  -8.991  -2.142  0.00  0.00     0.010 A 
HETATM   15  C           1     -20.927  -8.084  -3.286  0.00  0.00     0.038 A 
HETATM   16  C           1     -21.242  -6.595  -3.237  0.00  0.00     0.081 A 
HETATM   17  C           1     -21.990  -6.012  -2.045  0.00  0.00     0.038 A 
HETATM   18  C           1     -22.424  -6.920  -0.901  0.00  0.00     0.010 A 
BRANCH  16  19
HETATM   19  O           1     -20.857  -5.787  -4.254  0.00  0.00    -0.247 OA
BRANCH  19  20
HETATM   20  P           1     -21.650  -5.900  -5.656  0.00  0.00     0.411 P 
HETATM   21  O           1     -21.405  -4.682  -6.462  0.00  0.00    -0.624 OA
HETATM   22  O           1     -23.100  -6.032  -5.393  0.00  0.00    -0.624 OA
BRANCH  20  23
HETATM   23  O           1     -21.128  -7.195  -6.466  0.00  0.00    -0.300 OA
HETATM   24  H           1     -20.481  -7.588  -5.905  0.00  0.00     0.223 HD
ENDBRANCH  20  23
ENDBRANCH  19  20
ENDBRANCH  16  19
ENDBRANCH  12  13
ENDBRANCH   1  12
BRANCH   1  25
HETATM   25  N           1     -23.964 -11.281  -0.189  0.00  0.00    -0.066 N 
HETATM   26  H           1     -23.992 -12.022   0.548  0.00  0.00     0.275 HD
HETATM   27  H           1     -24.612 -10.505   0.073  0.00  0.00     0.275 HD
HETATM   28  H           1     -24.260 -11.689  -1.104  0.00  0.00     0.275 HD
ENDBRANCH   1  25
TORSDOF 8
ENDMDL
