MODEL 1
REMARK VINA RESULT:      -6.0      0.000      0.000
REMARK  9 active torsions:
REMARK  status: ('A' for Active; 'I' for Inactive)
REMARK    1  A    between atoms: N_2  and  C_6 
REMARK    2  A    between atoms: S_3  and  C_14 
REMARK    3  A    between atoms: C_6  and  C_7 
REMARK    4  A    between atoms: C_6  and  C_13 
REMARK       I    between atoms: C_7  and  N_19 
REMARK    5  A    between atoms: C_13  and  C_20 
REMARK    6  A    between atoms: C_14  and  C_15 
REMARK    7  A    between atoms: C_15  and  C_16 
REMARK    8  A    between atoms: C_16  and  C_17 
REMARK    9  A    between atoms: C_16  and  N_19 
ROOT
HETATM    1  O           1     -24.768  -6.662 -17.116  0.00  0.00    -0.271 OA
HETATM    2  C           1     -25.521  -6.542 -18.053  0.00  0.00     0.249 C 
HETATM    3  H           1     -27.460  -6.095 -18.626  0.00  0.00     0.163 HD
HETATM    4  N           1     -26.829  -6.194 -17.841  0.00  0.00    -0.345 N 
ENDROOT
BRANCH   2   5
HETATM    5  C           1     -25.021  -6.777 -19.457  0.00  0.00     0.284 C 
BRANCH   5   6
HETATM    6  N           1     -24.253  -8.064 -19.505  0.00  0.00    -0.066 N 
HETATM    7  H           1     -24.245  -8.430 -20.484  0.00  0.00     0.275 HD
HETATM    8  H           1     -23.271  -7.896 -19.190  0.00  0.00     0.275 HD
HETATM    9  H           1     -24.707  -8.763 -18.876  0.00  0.00     0.275 HD
ENDBRANCH   5   6
BRANCH   5  10
HETATM   10  C           1     -26.205  -6.856 -20.412  0.00  0.00     0.155 C 
BRANCH  10  11
HETATM   11  C           1     -25.997  -7.997 -21.377  0.00  0.00     0.175 C 
HETATM   12  O           1     -26.845  -8.912 -21.456  0.00  0.00    -0.648 OA
HETATM   13  O           1     -24.977  -8.028 -22.098  0.00  0.00    -0.648 OA
ENDBRANCH  10  11
ENDBRANCH   5  10
ENDBRANCH   2   5
BRANCH   4  14
HETATM   14  C           1     -27.309  -5.970 -16.491  0.00  0.00     0.186 C 
BRANCH  14  15
HETATM   15  C           1     -28.196  -4.732 -16.469  0.00  0.00     0.046 C 
BRANCH  15  16
HETATM   16  C           1     -28.815  -4.526 -17.844  0.00  0.00     0.076 C 
BRANCH  16  17
HETATM   17  S           1     -30.384  -3.629 -17.674  0.00  0.00    -0.173 SA
HETATM   18  C           1     -31.284  -4.959 -16.829  0.00  0.00     0.089 C 
ENDBRANCH  16  17
ENDBRANCH  15  16
ENDBRANCH  14  15
BRANCH  14  19
HETATM   19  C           1     -28.104  -7.168 -16.034  0.00  0.00     0.196 C 
HETATM   20  O           1     -28.971  -7.667 -16.785  0.00  0.00    -0.646 OA
HETATM   21  O           1     -27.895  -7.663 -14.905  0.00  0.00    -0.646 OA
ENDBRANCH  14  19
ENDBRANCH   4  14
TORSDOF 9
ENDMDL
MODEL 2
REMARK VINA RESULT:      -5.7      3.182      6.054
REMARK  9 active torsions:
REMARK  status: ('A' for Active; 'I' for Inactive)
REMARK    1  A    between atoms: N_2  and  C_6 
REMARK    2  A    between atoms: S_3  and  C_14 
REMARK    3  A    between atoms: C_6  and  C_7 
REMARK    4  A    between atoms: C_6  and  C_13 
REMARK       I    between atoms: C_7  and  N_19 
REMARK    5  A    between atoms: C_13  and  C_20 
REMARK    6  A    between atoms: C_14  and  C_15 
REMARK    7  A    between atoms: C_15  and  C_16 
REMARK    8  A    between atoms: C_16  and  C_17 
REMARK    9  A    between atoms: C_16  and  N_19 
ROOT
HETATM    1  O           1     -29.510  -6.872 -17.026  0.00  0.00    -0.271 OA
HETATM    2  C           1     -29.130  -5.730 -17.126  0.00  0.00     0.249 C 
HETATM    3  H           1     -27.482  -4.509 -17.408  0.00  0.00     0.163 HD
HETATM    4  N           1     -27.801  -5.466 -17.325  0.00  0.00    -0.345 N 
ENDROOT
BRANCH   2   5
HETATM    5  C           1     -30.119  -4.594 -17.030  0.00  0.00     0.284 C 
BRANCH   5   6
HETATM    6  N           1     -29.886  -3.634 -18.159  0.00  0.00    -0.066 N 
HETATM    7  H           1     -29.425  -2.770 -17.793  0.00  0.00     0.275 HD
HETATM    8  H           1     -29.269  -4.080 -18.874  0.00  0.00     0.275 HD
HETATM    9  H           1     -30.802  -3.382 -18.595  0.00  0.00     0.275 HD
ENDBRANCH   5   6
BRANCH   5  10
HETATM   10  C           1     -31.536  -5.146 -17.117  0.00  0.00     0.155 C 
BRANCH  10  11
HETATM   11  C           1     -32.525  -4.030 -16.883  0.00  0.00     0.175 C 
HETATM   12  O           1     -32.597  -3.080 -17.692  0.00  0.00    -0.648 OA
HETATM   13  O           1     -33.271  -4.056 -15.881  0.00  0.00    -0.648 OA
ENDBRANCH  10  11
ENDBRANCH   5  10
ENDBRANCH   2   5
BRANCH   4  14
HETATM   14  C           1     -26.850  -6.557 -17.416  0.00  0.00     0.186 C 
BRANCH  14  15
HETATM   15  C           1     -25.982  -6.371 -18.653  0.00  0.00     0.046 C 
BRANCH  15  16
HETATM   16  C           1     -26.812  -6.634 -19.902  0.00  0.00     0.076 C 
BRANCH  16  17
HETATM   17  S           1     -25.932  -7.799 -20.980  0.00  0.00    -0.173 SA
HETATM   18  C           1     -24.314  -7.630 -20.177  0.00  0.00     0.089 C 
ENDBRANCH  16  17
ENDBRANCH  15  16
ENDBRANCH  14  15
BRANCH  14  19
HETATM   19  C           1     -25.978  -6.568 -16.185  0.00  0.00     0.196 C 
HETATM   20  O           1     -25.161  -5.642 -15.989  0.00  0.00    -0.646 OA
HETATM   21  O           1     -26.072  -7.503 -15.361  0.00  0.00    -0.646 OA
ENDBRANCH  14  19
ENDBRANCH   4  14
TORSDOF 9
ENDMDL
MODEL 3
REMARK VINA RESULT:      -5.6      1.753      2.182
REMARK  9 active torsions:
REMARK  status: ('A' for Active; 'I' for Inactive)
REMARK    1  A    between atoms: N_2  and  C_6 
REMARK    2  A    between atoms: S_3  and  C_14 
REMARK    3  A    between atoms: C_6  and  C_7 
REMARK    4  A    between atoms: C_6  and  C_13 
REMARK       I    between atoms: C_7  and  N_19 
REMARK    5  A    between atoms: C_13  and  C_20 
REMARK    6  A    between atoms: C_14  and  C_15 
REMARK    7  A    between atoms: C_15  and  C_16 
REMARK    8  A    between atoms: C_16  and  C_17 
REMARK    9  A    between atoms: C_16  and  N_19 
ROOT
HETATM    1  O           1     -26.188  -6.119 -17.510  0.00  0.00    -0.271 OA
HETATM    2  C           1     -26.237  -6.492 -18.658  0.00  0.00     0.249 C 
HETATM    3  H           1     -27.483  -7.135 -20.181  0.00  0.00     0.163 HD
HETATM    4  N           1     -27.442  -6.822 -19.220  0.00  0.00    -0.345 N 
ENDROOT
BRANCH   2   5
HETATM    5  C           1     -24.971  -6.595 -19.472  0.00  0.00     0.284 C 
BRANCH   5   6
HETATM    6  N           1     -24.304  -7.908 -19.193  0.00  0.00    -0.066 N 
HETATM    7  H           1     -23.410  -7.967 -19.733  0.00  0.00     0.275 HD
HETATM    8  H           1     -24.098  -7.984 -18.171  0.00  0.00     0.275 HD
HETATM    9  H           1     -24.937  -8.688 -19.480  0.00  0.00     0.275 HD
ENDBRANCH   5   6
BRANCH   5  10
HETATM   10  C           1     -25.311  -6.503 -20.954  0.00  0.00     0.155 C 
BRANCH  10  11
HETATM   11  C           1     -25.221  -7.874 -21.577  0.00  0.00     0.175 C 
HETATM   12  O           1     -26.190  -8.659 -21.504  0.00  0.00    -0.648 OA
HETATM   13  O           1     -24.176  -8.225 -22.165  0.00  0.00    -0.648 OA
ENDBRANCH  10  11
ENDBRANCH   5  10
ENDBRANCH   2   5
BRANCH   4  14
HETATM   14  C           1     -28.659  -6.723 -18.436  0.00  0.00     0.186 C 
BRANCH  14  15
HETATM   15  C           1     -29.289  -5.354 -18.651  0.00  0.00     0.046 C 
BRANCH  15  16
HETATM   16  C           1     -29.237  -4.561 -17.352  0.00  0.00     0.076 C 
BRANCH  16  17
HETATM   17  S           1     -30.079  -5.489 -16.040  0.00  0.00    -0.173 SA
HETATM   18  C           1     -28.637  -5.647 -14.950  0.00  0.00     0.089 C 
ENDBRANCH  16  17
ENDBRANCH  15  16
ENDBRANCH  14  15
BRANCH  14  19
HETATM   19  C           1     -29.625  -7.796 -18.871  0.00  0.00     0.196 C 
HETATM   20  O           1     -30.848  -7.667 -18.642  0.00  0.00    -0.646 OA
HETATM   21  O           1     -29.204  -8.814 -19.462  0.00  0.00    -0.646 OA
ENDBRANCH  14  19
ENDBRANCH   4  14
TORSDOF 9
ENDMDL
MODEL 4
REMARK VINA RESULT:      -5.5     11.886     13.422
REMARK  9 active torsions:
REMARK  status: ('A' for Active; 'I' for Inactive)
REMARK    1  A    between atoms: N_2  and  C_6 
REMARK    2  A    between atoms: S_3  and  C_14 
REMARK    3  A    between atoms: C_6  and  C_7 
REMARK    4  A    between atoms: C_6  and  C_13 
REMARK       I    between atoms: C_7  and  N_19 
REMARK    5  A    between atoms: C_13  and  C_20 
REMARK    6  A    between atoms: C_14  and  C_15 
REMARK    7  A    between atoms: C_15  and  C_16 
REMARK    8  A    between atoms: C_16  and  C_17 
REMARK    9  A    between atoms: C_16  and  N_19 
ROOT
HETATM    1  O           1     -20.230  -3.986  -7.034  0.00  0.00    -0.271 OA
HETATM    2  C           1     -21.354  -4.334  -7.308  0.00  0.00     0.249 C 
HETATM    3  H           1     -22.896  -5.626  -6.822  0.00  0.00     0.163 HD
HETATM    4  N           1     -21.955  -5.334  -6.592  0.00  0.00    -0.345 N 
ENDROOT
BRANCH   2   5
HETATM    5  C           1     -22.095  -3.666  -8.441  0.00  0.00     0.284 C 
BRANCH   5   6
HETATM    6  N           1     -21.401  -3.965  -9.736  0.00  0.00    -0.066 N 
HETATM    7  H           1     -20.393  -3.699  -9.661  0.00  0.00     0.275 HD
HETATM    8  H           1     -21.476  -4.986  -9.945  0.00  0.00     0.275 HD
HETATM    9  H           1     -21.849  -3.417 -10.505  0.00  0.00     0.275 HD
ENDBRANCH   5   6
BRANCH   5  10
HETATM   10  C           1     -23.523  -4.195  -8.496  0.00  0.00     0.155 C 
BRANCH  10  11
HETATM   11  C           1     -24.021  -4.151  -9.919  0.00  0.00     0.175 C 
HETATM   12  O           1     -24.027  -5.191 -10.612  0.00  0.00    -0.648 OA
HETATM   13  O           1     -24.427  -3.074 -10.406  0.00  0.00    -0.648 OA
ENDBRANCH  10  11
ENDBRANCH   5  10
ENDBRANCH   2   5
BRANCH   4  14
HETATM   14  C           1     -21.242  -5.976  -5.504  0.00  0.00     0.186 C 
BRANCH  14  15
HETATM   15  C           1     -22.220  -6.311  -4.386  0.00  0.00     0.046 C 
BRANCH  15  16
HETATM   16  C           1     -21.530  -6.144  -3.039  0.00  0.00     0.076 C 
BRANCH  16  17
HETATM   17  S           1     -21.466  -7.746  -2.188  0.00  0.00    -0.173 SA
HETATM   18  C           1     -22.358  -7.215  -0.698  0.00  0.00     0.089 C 
ENDBRANCH  16  17
ENDBRANCH  15  16
ENDBRANCH  14  15
BRANCH  14  19
HETATM   19  C           1     -20.595  -7.244  -6.005  0.00  0.00     0.196 C 
HETATM   20  O           1     -19.474  -7.198  -6.556  0.00  0.00    -0.646 OA
HETATM   21  O           1     -21.180  -8.340  -5.867  0.00  0.00    -0.646 OA
ENDBRANCH  14  19
ENDBRANCH   4  14
TORSDOF 9
ENDMDL
MODEL 5
REMARK VINA RESULT:      -5.5     10.251     11.743
REMARK  9 active torsions:
REMARK  status: ('A' for Active; 'I' for Inactive)
REMARK    1  A    between atoms: N_2  and  C_6 
REMARK    2  A    between atoms: S_3  and  C_14 
REMARK    3  A    between atoms: C_6  and  C_7 
REMARK    4  A    between atoms: C_6  and  C_13 
REMARK       I    between atoms: C_7  and  N_19 
REMARK    5  A    between atoms: C_13  and  C_20 
REMARK    6  A    between atoms: C_14  and  C_15 
REMARK    7  A    between atoms: C_15  and  C_16 
REMARK    8  A    between atoms: C_16  and  C_17 
REMARK    9  A    between atoms: C_16  and  N_19 
ROOT
HETATM    1  O           1     -33.617  -1.841 -10.928  0.00  0.00    -0.271 OA
HETATM    2  C           1     -34.389  -2.375 -11.689  0.00  0.00     0.249 C 
HETATM    3  H           1     -35.960  -2.071 -13.003  0.00  0.00     0.163 HD
HETATM    4  N           1     -35.313  -1.624 -12.366  0.00  0.00    -0.345 N 
ENDROOT
BRANCH   2   5
HETATM    5  C           1     -34.335  -3.869 -11.893  0.00  0.00     0.284 C 
BRANCH   5   6
HETATM    6  N           1     -33.241  -4.200 -12.865  0.00  0.00    -0.066 N 
HETATM    7  H           1     -33.648  -4.322 -13.820  0.00  0.00     0.275 HD
HETATM    8  H           1     -32.543  -3.424 -12.881  0.00  0.00     0.275 HD
HETATM    9  H           1     -32.772  -5.086 -12.570  0.00  0.00     0.275 HD
ENDBRANCH   5   6
BRANCH   5  10
HETATM   10  C           1     -34.057  -4.554 -10.562  0.00  0.00     0.155 C 
BRANCH  10  11
HETATM   11  C           1     -34.539  -5.983 -10.621  0.00  0.00     0.175 C 
HETATM   12  O           1     -34.653  -6.649  -9.570  0.00  0.00    -0.648 OA
HETATM   13  O           1     -34.824  -6.500 -11.722  0.00  0.00    -0.648 OA
ENDBRANCH  10  11
ENDBRANCH   5  10
ENDBRANCH   2   5
BRANCH   4  14
HETATM   14  C           1     -35.365  -0.188 -12.169  0.00  0.00     0.186 C 
BRANCH  14  15
HETATM   15  C           1     -35.505   0.503 -13.519  0.00  0.00     0.046 C 
BRANCH  15  16
HETATM   16  C           1     -35.448  -0.535 -14.630  0.00  0.00     0.076 C 
BRANCH  16  17
HETATM   17  S           1     -36.475   0.011 -16.023  0.00  0.00    -0.173 SA
HETATM   18  C           1     -38.068  -0.134 -15.165  0.00  0.00     0.089 C 
ENDBRANCH  16  17
ENDBRANCH  15  16
ENDBRANCH  14  15
BRANCH  14  19
HETATM   19  C           1     -36.549   0.158 -11.301  0.00  0.00     0.196 C 
HETATM   20  O           1     -36.374   0.492 -10.109  0.00  0.00    -0.646 OA
HETATM   21  O           1     -37.705   0.112 -11.773  0.00  0.00    -0.646 OA
ENDBRANCH  14  19
ENDBRANCH   4  14
TORSDOF 9
ENDMDL
MODEL 6
REMARK VINA RESULT:      -5.3      1.873      2.464
REMARK  9 active torsions:
REMARK  status: ('A' for Active; 'I' for Inactive)
REMARK    1  A    between atoms: N_2  and  C_6 
REMARK    2  A    between atoms: S_3  and  C_14 
REMARK    3  A    between atoms: C_6  and  C_7 
REMARK    4  A    between atoms: C_6  and  C_13 
REMARK       I    between atoms: C_7  and  N_19 
REMARK    5  A    between atoms: C_13  and  C_20 
REMARK    6  A    between atoms: C_14  and  C_15 
REMARK    7  A    between atoms: C_15  and  C_16 
REMARK    8  A    between atoms: C_16  and  C_17 
REMARK    9  A    between atoms: C_16  and  N_19 
ROOT
HETATM    1  O           1     -27.522  -5.834 -19.859  0.00  0.00    -0.271 OA
HETATM    2  C           1     -26.489  -6.433 -19.673  0.00  0.00     0.249 C 
HETATM    3  H           1     -25.185  -7.161 -18.241  0.00  0.00     0.163 HD
HETATM    4  N           1     -26.050  -6.660 -18.396  0.00  0.00    -0.345 N 
ENDROOT
BRANCH   2   5
HETATM    5  C           1     -25.683  -6.930 -20.848  0.00  0.00     0.284 C 
BRANCH   5   6
HETATM    6  N           1     -25.129  -5.759 -21.604  0.00  0.00    -0.066 N 
HETATM    7  H           1     -25.450  -5.802 -22.598  0.00  0.00     0.275 HD
HETATM    8  H           1     -25.467  -4.871 -21.168  0.00  0.00     0.275 HD
HETATM    9  H           1     -24.085  -5.788 -21.573  0.00  0.00     0.275 HD
ENDBRANCH   5   6
BRANCH   5  10
HETATM   10  C           1     -24.538  -7.800 -20.348  0.00  0.00     0.155 C 
BRANCH  10  11
HETATM   11  C           1     -23.693  -8.241 -21.518  0.00  0.00     0.175 C 
HETATM   12  O           1     -22.512  -8.605 -21.334  0.00  0.00    -0.648 OA
HETATM   13  O           1     -24.176  -8.243 -22.671  0.00  0.00    -0.648 OA
ENDBRANCH  10  11
ENDBRANCH   5  10
ENDBRANCH   2   5
BRANCH   4  14
HETATM   14  C           1     -26.825  -6.182 -17.267  0.00  0.00     0.186 C 
BRANCH  14  15
HETATM   15  C           1     -28.176  -6.885 -17.246  0.00  0.00     0.046 C 
BRANCH  15  16
HETATM   16  C           1     -29.242  -5.921 -16.746  0.00  0.00     0.076 C 
BRANCH  16  17
HETATM   17  S           1     -28.763  -4.219 -17.157  0.00  0.00    -0.173 SA
HETATM   18  C           1     -30.437  -3.625 -17.527  0.00  0.00     0.089 C 
ENDBRANCH  16  17
ENDBRANCH  15  16
ENDBRANCH  14  15
BRANCH  14  19
HETATM   19  C           1     -26.083  -6.479 -15.987  0.00  0.00     0.196 C 
HETATM   20  O           1     -26.415  -7.459 -15.285  0.00  0.00    -0.646 OA
HETATM   21  O           1     -25.137  -5.745 -15.629  0.00  0.00    -0.646 OA
ENDBRANCH  14  19
ENDBRANCH   4  14
TORSDOF 9
ENDMDL
MODEL 7
REMARK VINA RESULT:      -5.2     11.226     12.868
REMARK  9 active torsions:
REMARK  status: ('A' for Active; 'I' for Inactive)
REMARK    1  A    between atoms: N_2  and  C_6 
REMARK    2  A    between atoms: S_3  and  C_14 
REMARK    3  A    between atoms: C_6  and  C_7 
REMARK    4  A    between atoms: C_6  and  C_13 
REMARK       I    between atoms: C_7  and  N_19 
REMARK    5  A    between atoms: C_13  and  C_20 
REMARK    6  A    between atoms: C_14  and  C_15 
REMARK    7  A    between atoms: C_15  and  C_16 
REMARK    8  A    between atoms: C_16  and  C_17 
REMARK    9  A    between atoms: C_16  and  N_19 
ROOT
HETATM    1  O           1     -21.863  -3.153  -7.941  0.00  0.00    -0.271 OA
HETATM    2  C           1     -22.484  -4.175  -7.768  0.00  0.00     0.249 C 
HETATM    3  H           1     -22.559  -5.958  -6.719  0.00  0.00     0.163 HD
HETATM    4  N           1     -22.039  -5.103  -6.864  0.00  0.00    -0.345 N 
ENDROOT
BRANCH   2   5
HETATM    5  C           1     -23.751  -4.428  -8.547  0.00  0.00     0.284 C 
BRANCH   5   6
HETATM    6  N           1     -24.392  -3.118  -8.897  0.00  0.00    -0.066 N 
HETATM    7  H           1     -24.095  -2.390  -8.208  0.00  0.00     0.275 HD
HETATM    8  H           1     -24.096  -2.830  -9.856  0.00  0.00     0.275 HD
HETATM    9  H           1     -25.432  -3.222  -8.868  0.00  0.00     0.275 HD
ENDBRANCH   5   6
BRANCH   5  10
HETATM   10  C           1     -23.418  -5.188  -9.825  0.00  0.00     0.155 C 
BRANCH  10  11
HETATM   11  C           1     -23.455  -4.239 -10.998  0.00  0.00     0.175 C 
HETATM   12  O           1     -22.519  -3.430 -11.176  0.00  0.00    -0.648 OA
HETATM   13  O           1     -24.420  -4.262 -11.790  0.00  0.00    -0.648 OA
ENDBRANCH  10  11
ENDBRANCH   5  10
ENDBRANCH   2   5
BRANCH   4  14
HETATM   14  C           1     -20.821  -4.859  -6.115  0.00  0.00     0.186 C 
BRANCH  14  15
HETATM   15  C           1     -20.891  -5.591  -4.782  0.00  0.00     0.046 C 
BRANCH  15  16
HETATM   16  C           1     -22.034  -6.596  -4.813  0.00  0.00     0.076 C 
BRANCH  16  17
HETATM   17  S           1     -21.473  -8.174  -4.113  0.00  0.00    -0.173 SA
HETATM   18  C           1     -21.119  -7.539  -2.450  0.00  0.00     0.089 C 
ENDBRANCH  16  17
ENDBRANCH  15  16
ENDBRANCH  14  15
BRANCH  14  19
HETATM   19  C           1     -19.637  -5.361  -6.904  0.00  0.00     0.196 C 
HETATM   20  O           1     -18.801  -4.551  -7.361  0.00  0.00    -0.646 OA
HETATM   21  O           1     -19.490  -6.587  -7.098  0.00  0.00    -0.646 OA
ENDBRANCH  14  19
ENDBRANCH   4  14
TORSDOF 9
ENDMDL
MODEL 8
REMARK VINA RESULT:      -5.2     12.147     13.633
REMARK  9 active torsions:
REMARK  status: ('A' for Active; 'I' for Inactive)
REMARK    1  A    between atoms: N_2  and  C_6 
REMARK    2  A    between atoms: S_3  and  C_14 
REMARK    3  A    between atoms: C_6  and  C_7 
REMARK    4  A    between atoms: C_6  and  C_13 
REMARK       I    between atoms: C_7  and  N_19 
REMARK    5  A    between atoms: C_13  and  C_20 
REMARK    6  A    between atoms: C_14  and  C_15 
REMARK    7  A    between atoms: C_15  and  C_16 
REMARK    8  A    between atoms: C_16  and  C_17 
REMARK    9  A    between atoms: C_16  and  N_19 
ROOT
HETATM    1  O           1     -20.534  -4.159  -6.892  0.00  0.00    -0.271 OA
HETATM    2  C           1     -21.381  -4.932  -7.273  0.00  0.00     0.249 C 
HETATM    3  H           1     -22.362  -6.709  -6.867  0.00  0.00     0.163 HD
HETATM    4  N           1     -21.652  -6.062  -6.548  0.00  0.00    -0.345 N 
ENDROOT
BRANCH   2   5
HETATM    5  C           1     -22.141  -4.651  -8.546  0.00  0.00     0.284 C 
BRANCH   5   6
HETATM    6  N           1     -23.055  -3.480  -8.334  0.00  0.00    -0.066 N 
HETATM    7  H           1     -22.754  -2.688  -8.947  0.00  0.00     0.275 HD
HETATM    8  H           1     -24.034  -3.754  -8.575  0.00  0.00     0.275 HD
HETATM    9  H           1     -23.011  -3.183  -7.333  0.00  0.00     0.275 HD
ENDBRANCH   5   6
BRANCH   5  10
HETATM   10  C           1     -21.158  -4.332  -9.665  0.00  0.00     0.155 C 
BRANCH  10  11
HETATM   11  C           1     -21.918  -3.891 -10.891  0.00  0.00     0.175 C 
HETATM   12  O           1     -21.769  -2.733 -11.336  0.00  0.00    -0.648 OA
HETATM   13  O           1     -22.697  -4.684 -11.462  0.00  0.00    -0.648 OA
ENDBRANCH  10  11
ENDBRANCH   5  10
ENDBRANCH   2   5
BRANCH   4  14
HETATM   14  C           1     -20.922  -6.332  -5.325  0.00  0.00     0.186 C 
BRANCH  14  15
HETATM   15  C           1     -21.907  -6.567  -4.188  0.00  0.00     0.046 C 
BRANCH  15  16
HETATM   16  C           1     -21.390  -5.900  -2.921  0.00  0.00     0.076 C 
BRANCH  16  17
HETATM   17  S           1     -22.191  -6.647  -1.473  0.00  0.00    -0.173 SA
HETATM   18  C           1     -21.119  -8.108  -1.383  0.00  0.00     0.089 C 
ENDBRANCH  16  17
ENDBRANCH  15  16
ENDBRANCH  14  15
BRANCH  14  19
HETATM   19  C           1     -20.065  -7.559  -5.511  0.00  0.00     0.196 C 
HETATM   20  O           1     -20.225  -8.552  -4.768  0.00  0.00    -0.646 OA
HETATM   21  O           1     -19.195  -7.585  -6.409  0.00  0.00    -0.646 OA
ENDBRANCH  14  19
ENDBRANCH   4  14
TORSDOF 9
ENDMDL
MODEL 9
REMARK VINA RESULT:      -5.0     14.351     16.022
REMARK  9 active torsions:
REMARK  status: ('A' for Active; 'I' for Inactive)
REMARK    1  A    between atoms: N_2  and  C_6 
REMARK    2  A    between atoms: S_3  and  C_14 
REMARK    3  A    between atoms: C_6  and  C_7 
REMARK    4  A    between atoms: C_6  and  C_13 
REMARK       I    between atoms: C_7  and  N_19 
REMARK    5  A    between atoms: C_13  and  C_20 
REMARK    6  A    between atoms: C_14  and  C_15 
REMARK    7  A    between atoms: C_15  and  C_16 
REMARK    8  A    between atoms: C_16  and  C_17 
REMARK    9  A    between atoms: C_16  and  N_19 
ROOT
HETATM    1  O           1     -22.450  -6.713  -4.988  0.00  0.00    -0.271 OA
HETATM    2  C           1     -21.268  -6.695  -4.741  0.00  0.00     0.249 C 
HETATM    3  H           1     -19.818  -7.173  -3.343  0.00  0.00     0.163 HD
HETATM    4  N           1     -20.809  -7.189  -3.549  0.00  0.00    -0.345 N 
ENDROOT
BRANCH   2   5
HETATM    5  C           1     -20.296  -6.129  -5.747  0.00  0.00     0.284 C 
BRANCH   5   6
HETATM    6  N           1     -20.678  -6.588  -7.123  0.00  0.00    -0.066 N 
HETATM    7  H           1     -21.063  -7.559  -7.073  0.00  0.00     0.275 HD
HETATM    8  H           1     -21.404  -5.947  -7.516  0.00  0.00     0.275 HD
HETATM    9  H           1     -19.834  -6.579  -7.739  0.00  0.00     0.275 HD
ENDBRANCH   5   6
BRANCH   5  10
HETATM   10  C           1     -20.334  -4.607  -5.691  0.00  0.00     0.155 C 
BRANCH  10  11
HETATM   11  C           1     -20.844  -4.068  -7.005  0.00  0.00     0.175 C 
HETATM   12  O           1     -20.037  -3.744  -7.902  0.00  0.00    -0.648 OA
HETATM   13  O           1     -22.073  -3.945  -7.195  0.00  0.00    -0.648 OA
ENDBRANCH  10  11
ENDBRANCH   5  10
ENDBRANCH   2   5
BRANCH   4  14
HETATM   14  C           1     -21.743  -7.733  -2.582  0.00  0.00     0.186 C 
BRANCH  14  15
HETATM   15  C           1     -21.058  -8.828  -1.777  0.00  0.00     0.046 C 
BRANCH  15  16
HETATM   16  C           1     -21.913 -10.087  -1.800  0.00  0.00     0.076 C 
BRANCH  16  17
HETATM   17  S           1     -22.189 -10.665  -0.102  0.00  0.00    -0.173 SA
HETATM   18  C           1     -23.953 -11.038  -0.302  0.00  0.00     0.089 C 
ENDBRANCH  16  17
ENDBRANCH  15  16
ENDBRANCH  14  15
BRANCH  14  19
HETATM   19  C           1     -22.201  -6.636  -1.653  0.00  0.00     0.196 C 
HETATM   20  O           1     -22.796  -6.923  -0.592  0.00  0.00    -0.646 OA
HETATM   21  O           1     -21.984  -5.440  -1.944  0.00  0.00    -0.646 OA
ENDBRANCH  14  19
ENDBRANCH   4  14
TORSDOF 9
ENDMDL
