MODEL 1
REMARK VINA RESULT:      -7.5      0.000      0.000
REMARK  10 active torsions:
REMARK  status: ('A' for Active; 'I' for Inactive)
REMARK       I    between atoms: C_3  and  N_4 
REMARK    1  A    between atoms: C_3  and  C_17 
REMARK    2  A    between atoms: N_4  and  C_12 
REMARK    3  A    between atoms: C_6  and  O_10 
REMARK    4  A    between atoms: C_11  and  C_12 
REMARK    5  A    between atoms: C_12  and  C_28 
REMARK    6  A    between atoms: C_13  and  C_28 
REMARK    7  A    between atoms: C_14  and  C_17 
REMARK    8  A    between atoms: C_14  and  C_25 
REMARK    9  A    between atoms: C_17  and  N_21 
REMARK       I    between atoms: N_23  and  C_24 
REMARK   10  A    between atoms: C_24  and  C_25 
ROOT
HETATM    1  C           1     -21.338  -6.846  -5.436  0.00  0.00     0.249 C 
HETATM    2  N           1     -21.552  -5.547  -5.814  0.00  0.00    -0.344 N 
HETATM    3  H           1     -22.107  -4.936  -5.231  0.00  0.00     0.163 HD
HETATM    4  O           1     -20.674  -7.577  -6.133  0.00  0.00    -0.271 OA
ENDROOT
BRANCH   2   5
HETATM    5  C           1     -20.981  -5.049  -7.050  0.00  0.00     0.189 C 
BRANCH   5   6
HETATM    6  C           1     -19.562  -4.602  -6.805  0.00  0.00     0.197 C 
HETATM    7  O           1     -19.162  -4.404  -5.637  0.00  0.00    -0.646 OA
HETATM    8  O           1     -18.785  -4.428  -7.769  0.00  0.00    -0.646 OA
ENDBRANCH   5   6
BRANCH   5   9
HETATM    9  C           1     -21.807  -3.871  -7.551  0.00  0.00     0.074 C 
BRANCH   9  10
HETATM   10  C           1     -22.299  -4.159  -8.936  0.00  0.00    -0.056 A 
HETATM   11  C           1     -21.412  -4.120 -10.011  0.00  0.00     0.010 A 
HETATM   12  C           1     -21.868  -4.387 -11.302  0.00  0.00     0.037 A 
HETATM   13  C           1     -23.213  -4.694 -11.516  0.00  0.00     0.065 A 
HETATM   14  C           1     -24.100  -4.732 -10.440  0.00  0.00     0.037 A 
HETATM   15  C           1     -23.642  -4.464  -9.150  0.00  0.00     0.010 A 
BRANCH  13  16
HETATM   16  O           1     -23.657  -4.954 -12.770  0.00  0.00    -0.361 OA
HETATM   17  H           1     -22.892  -5.202 -13.314  0.00  0.00     0.217 HD
ENDBRANCH  13  16
ENDBRANCH   9  10
ENDBRANCH   5   9
ENDBRANCH   2   5
BRANCH   1  18
HETATM   18  C           1     -21.931  -7.364  -4.149  0.00  0.00     0.275 C 
BRANCH  18  19
HETATM   19  C           1     -21.223  -6.716  -2.966  0.00  0.00     0.052 C 
BRANCH  19  20
HETATM   20  C           1     -22.253  -6.278  -1.934  0.00  0.00     0.105 C 
BRANCH  20  21
HETATM   21  C           1     -22.275  -7.266  -0.793  0.00  0.00     0.215 C 
HETATM   22  O           1     -23.250  -7.348  -0.084  0.00  0.00    -0.274 OA
HETATM   23  N           1     -21.191  -8.068  -0.561  0.00  0.00    -0.370 N 
HETATM   24  H           1     -20.375  -8.001  -1.154  0.00  0.00     0.159 HD
HETATM   25  H           1     -21.207  -8.731   0.204  0.00  0.00     0.159 HD
ENDBRANCH  20  21
ENDBRANCH  19  20
ENDBRANCH  18  19
BRANCH  18  26
HETATM   26  N           1     -21.754  -8.852  -4.082  0.00  0.00    -0.066 N 
HETATM   27  H           1     -21.488  -9.128  -3.110  0.00  0.00     0.275 HD
HETATM   28  H           1     -21.002  -9.143  -4.746  0.00  0.00     0.275 HD
HETATM   29  H           1     -22.651  -9.322  -4.343  0.00  0.00     0.275 HD
ENDBRANCH  18  26
ENDBRANCH   1  18
TORSDOF 10
ENDMDL
MODEL 2
REMARK VINA RESULT:      -7.4     11.715     14.070
REMARK  10 active torsions:
REMARK  status: ('A' for Active; 'I' for Inactive)
REMARK       I    between atoms: C_3  and  N_4 
REMARK    1  A    between atoms: C_3  and  C_17 
REMARK    2  A    between atoms: N_4  and  C_12 
REMARK    3  A    between atoms: C_6  and  O_10 
REMARK    4  A    between atoms: C_11  and  C_12 
REMARK    5  A    between atoms: C_12  and  C_28 
REMARK    6  A    between atoms: C_13  and  C_28 
REMARK    7  A    between atoms: C_14  and  C_17 
REMARK    8  A    between atoms: C_14  and  C_25 
REMARK    9  A    between atoms: C_17  and  N_21 
REMARK       I    between atoms: N_23  and  C_24 
REMARK   10  A    between atoms: C_24  and  C_25 
ROOT
HETATM    1  C           1     -29.758  -6.653 -17.705  0.00  0.00     0.249 C 
HETATM    2  N           1     -28.657  -6.173 -17.048  0.00  0.00    -0.344 N 
HETATM    3  H           1     -28.715  -5.304 -16.534  0.00  0.00     0.163 HD
HETATM    4  O           1     -29.690  -7.692 -18.320  0.00  0.00    -0.271 OA
ENDROOT
BRANCH   2   5
HETATM    5  C           1     -27.410  -6.911 -17.088  0.00  0.00     0.189 C 
BRANCH   5   6
HETATM    6  C           1     -26.999  -7.280 -15.684  0.00  0.00     0.197 C 
HETATM    7  O           1     -25.788  -7.365 -15.389  0.00  0.00    -0.646 OA
HETATM    8  O           1     -27.871  -7.501 -14.815  0.00  0.00    -0.646 OA
ENDBRANCH   5   6
BRANCH   5   9
HETATM    9  C           1     -26.330  -6.047 -17.724  0.00  0.00     0.074 C 
BRANCH   9  10
HETATM   10  C           1     -25.812  -6.721 -18.956  0.00  0.00    -0.056 A 
HETATM   11  C           1     -24.469  -7.094 -19.033  0.00  0.00     0.010 A 
HETATM   12  C           1     -23.985  -7.722 -20.181  0.00  0.00     0.037 A 
HETATM   13  C           1     -24.844  -7.978 -21.250  0.00  0.00     0.065 A 
HETATM   14  C           1     -26.186  -7.605 -21.173  0.00  0.00     0.037 A 
HETATM   15  C           1     -26.669  -6.977 -20.025  0.00  0.00     0.010 A 
BRANCH  13  16
HETATM   16  O           1     -24.374  -8.589 -22.365  0.00  0.00    -0.361 OA
HETATM   17  H           1     -23.841  -9.352 -22.088  0.00  0.00     0.217 HD
ENDBRANCH  13  16
ENDBRANCH   9  10
ENDBRANCH   5   9
ENDBRANCH   2   5
BRANCH   1  18
HETATM   18  C           1     -31.057  -5.885 -17.663  0.00  0.00     0.275 C 
BRANCH  18  19
HETATM   19  C           1     -30.892  -4.658 -16.776  0.00  0.00     0.052 C 
BRANCH  19  20
HETATM   20  C           1     -30.739  -3.418 -17.645  0.00  0.00     0.105 C 
BRANCH  20  21
HETATM   21  C           1     -29.445  -2.720 -17.306  0.00  0.00     0.215 C 
HETATM   22  O           1     -28.476  -3.367 -16.985  0.00  0.00    -0.274 OA
HETATM   23  N           1     -29.368  -1.355 -17.361  0.00  0.00    -0.370 N 
HETATM   24  H           1     -30.178  -0.812 -17.629  0.00  0.00     0.159 HD
HETATM   25  H           1     -28.499  -0.888 -17.133  0.00  0.00     0.159 HD
ENDBRANCH  20  21
ENDBRANCH  19  20
ENDBRANCH  18  19
BRANCH  18  26
HETATM   26  N           1     -32.138  -6.762 -17.106  0.00  0.00    -0.066 N 
HETATM   27  H           1     -31.738  -7.382 -16.366  0.00  0.00     0.275 HD
HETATM   28  H           1     -32.539  -7.349 -17.872  0.00  0.00     0.275 HD
HETATM   29  H           1     -32.891  -6.167 -16.692  0.00  0.00     0.275 HD
ENDBRANCH  18  26
ENDBRANCH   1  18
TORSDOF 10
ENDMDL
MODEL 3
REMARK VINA RESULT:      -7.3     11.698     14.261
REMARK  10 active torsions:
REMARK  status: ('A' for Active; 'I' for Inactive)
REMARK       I    between atoms: C_3  and  N_4 
REMARK    1  A    between atoms: C_3  and  C_17 
REMARK    2  A    between atoms: N_4  and  C_12 
REMARK    3  A    between atoms: C_6  and  O_10 
REMARK    4  A    between atoms: C_11  and  C_12 
REMARK    5  A    between atoms: C_12  and  C_28 
REMARK    6  A    between atoms: C_13  and  C_28 
REMARK    7  A    between atoms: C_14  and  C_17 
REMARK    8  A    between atoms: C_14  and  C_25 
REMARK    9  A    between atoms: C_17  and  N_21 
REMARK       I    between atoms: N_23  and  C_24 
REMARK   10  A    between atoms: C_24  and  C_25 
ROOT
HETATM    1  C           1     -29.702  -5.333 -17.335  0.00  0.00     0.249 C 
HETATM    2  N           1     -28.593  -5.491 -16.548  0.00  0.00    -0.344 N 
HETATM    3  H           1     -28.468  -4.911 -15.729  0.00  0.00     0.163 HD
HETATM    4  O           1     -29.851  -6.026 -18.315  0.00  0.00    -0.271 OA
ENDROOT
BRANCH   2   5
HETATM    5  C           1     -27.598  -6.488 -16.889  0.00  0.00     0.189 C 
BRANCH   5   6
HETATM    6  C           1     -27.187  -7.235 -15.645  0.00  0.00     0.197 C 
HETATM    7  O           1     -25.976  -7.408 -15.390  0.00  0.00    -0.646 OA
HETATM    8  O           1     -28.059  -7.681 -14.867  0.00  0.00    -0.646 OA
ENDBRANCH   5   6
BRANCH   5   9
HETATM    9  C           1     -26.381  -5.803 -17.496  0.00  0.00     0.074 C 
BRANCH   9  10
HETATM   10  C           1     -25.970  -6.525 -18.742  0.00  0.00    -0.056 A 
HETATM   11  C           1     -26.904  -6.761 -19.750  0.00  0.00     0.010 A 
HETATM   12  C           1     -26.523  -7.434 -20.911  0.00  0.00     0.037 A 
HETATM   13  C           1     -25.206  -7.871 -21.063  0.00  0.00     0.065 A 
HETATM   14  C           1     -24.272  -7.635 -20.054  0.00  0.00     0.037 A 
HETATM   15  C           1     -24.655  -6.962 -18.893  0.00  0.00     0.010 A 
BRANCH  13  16
HETATM   16  O           1     -24.834  -8.525 -22.190  0.00  0.00    -0.361 OA
HETATM   17  H           1     -25.630  -8.921 -22.584  0.00  0.00     0.217 HD
ENDBRANCH  13  16
ENDBRANCH   9  10
ENDBRANCH   5   9
ENDBRANCH   2   5
BRANCH   1  18
HETATM   18  C           1     -30.738  -4.295 -16.980  0.00  0.00     0.275 C 
BRANCH  18  19
HETATM   19  C           1     -32.112  -4.951 -16.913  0.00  0.00     0.052 C 
BRANCH  19  20
HETATM   20  C           1     -33.183  -3.877 -16.784  0.00  0.00     0.105 C 
BRANCH  20  21
HETATM   21  C           1     -34.165  -4.270 -15.709  0.00  0.00     0.215 C 
HETATM   22  O           1     -34.394  -3.515 -14.794  0.00  0.00    -0.274 OA
HETATM   23  N           1     -34.798  -5.483 -15.769  0.00  0.00    -0.370 N 
HETATM   24  H           1     -34.607  -6.116 -16.535  0.00  0.00     0.159 HD
HETATM   25  H           1     -35.457  -5.746 -15.048  0.00  0.00     0.159 HD
ENDBRANCH  20  21
ENDBRANCH  19  20
ENDBRANCH  18  19
BRANCH  18  26
HETATM   26  N           1     -30.748  -3.222 -18.026  0.00  0.00    -0.066 N 
HETATM   27  H           1     -31.375  -3.506 -18.813  0.00  0.00     0.275 HD
HETATM   28  H           1     -29.778  -3.079 -18.387  0.00  0.00     0.275 HD
HETATM   29  H           1     -31.099  -2.330 -17.608  0.00  0.00     0.275 HD
ENDBRANCH  18  26
ENDBRANCH   1  18
TORSDOF 10
ENDMDL
MODEL 4
REMARK VINA RESULT:      -7.2     11.641     14.635
REMARK  10 active torsions:
REMARK  status: ('A' for Active; 'I' for Inactive)
REMARK       I    between atoms: C_3  and  N_4 
REMARK    1  A    between atoms: C_3  and  C_17 
REMARK    2  A    between atoms: N_4  and  C_12 
REMARK    3  A    between atoms: C_6  and  O_10 
REMARK    4  A    between atoms: C_11  and  C_12 
REMARK    5  A    between atoms: C_12  and  C_28 
REMARK    6  A    between atoms: C_13  and  C_28 
REMARK    7  A    between atoms: C_14  and  C_17 
REMARK    8  A    between atoms: C_14  and  C_25 
REMARK    9  A    between atoms: C_17  and  N_21 
REMARK       I    between atoms: N_23  and  C_24 
REMARK   10  A    between atoms: C_24  and  C_25 
ROOT
HETATM    1  C           1     -26.242  -6.524 -19.826  0.00  0.00     0.249 C 
HETATM    2  N           1     -25.884  -6.745 -18.523  0.00  0.00    -0.344 N 
HETATM    3  H           1     -25.051  -7.278 -18.311  0.00  0.00     0.163 HD
HETATM    4  O           1     -27.237  -5.888 -20.080  0.00  0.00    -0.271 OA
ENDROOT
BRANCH   2   5
HETATM    5  C           1     -26.699  -6.214 -17.448  0.00  0.00     0.189 C 
BRANCH   5   6
HETATM    6  C           1     -26.008  -6.452 -16.129  0.00  0.00     0.197 C 
HETATM    7  O           1     -26.354  -7.410 -15.404  0.00  0.00    -0.646 OA
HETATM    8  O           1     -25.088  -5.690 -15.759  0.00  0.00    -0.646 OA
ENDBRANCH   5   6
BRANCH   5   9
HETATM    9  C           1     -28.053  -6.913 -17.446  0.00  0.00     0.074 C 
BRANCH   9  10
HETATM   10  C           1     -29.144  -5.888 -17.411  0.00  0.00    -0.056 A 
HETATM   11  C           1     -30.459  -6.279 -17.159  0.00  0.00     0.010 A 
HETATM   12  C           1     -31.476  -5.325 -17.126  0.00  0.00     0.037 A 
HETATM   13  C           1     -31.177  -3.980 -17.344  0.00  0.00     0.065 A 
HETATM   14  C           1     -29.862  -3.589 -17.597  0.00  0.00     0.037 A 
HETATM   15  C           1     -28.846  -4.544 -17.630  0.00  0.00     0.010 A 
BRANCH  13  16
HETATM   16  O           1     -32.165  -3.052 -17.312  0.00  0.00    -0.361 OA
HETATM   17  H           1     -32.610  -3.118 -16.451  0.00  0.00     0.217 HD
ENDBRANCH  13  16
ENDBRANCH   9  10
ENDBRANCH   5   9
ENDBRANCH   2   5
BRANCH   1  18
HETATM   18  C           1     -25.393  -7.076 -20.945  0.00  0.00     0.275 C 
BRANCH  18  19
HETATM   19  C           1     -24.186  -7.797 -20.359  0.00  0.00     0.052 C 
BRANCH  19  20
HETATM   20  C           1     -23.455  -8.548 -21.464  0.00  0.00     0.105 C 
BRANCH  20  21
HETATM   21  C           1     -21.979  -8.592 -21.153  0.00  0.00     0.215 C 
HETATM   22  O           1     -21.549  -8.014 -20.183  0.00  0.00    -0.274 OA
HETATM   23  N           1     -21.128  -9.287 -21.969  0.00  0.00    -0.370 N 
HETATM   24  H           1     -21.487  -9.771 -22.781  0.00  0.00     0.159 HD
HETATM   25  H           1     -20.138  -9.316 -21.759  0.00  0.00     0.159 HD
ENDBRANCH  20  21
ENDBRANCH  19  20
ENDBRANCH  18  19
BRANCH  18  26
HETATM   26  N           1     -24.926  -5.950 -21.819  0.00  0.00    -0.066 N 
HETATM   27  H           1     -25.612  -5.800 -22.592  0.00  0.00     0.275 HD
HETATM   28  H           1     -23.992  -6.188 -22.223  0.00  0.00     0.275 HD
HETATM   29  H           1     -24.846  -5.077 -21.249  0.00  0.00     0.275 HD
ENDBRANCH  18  26
ENDBRANCH   1  18
TORSDOF 10
ENDMDL
MODEL 5
REMARK VINA RESULT:      -7.1      2.236      7.579
REMARK  10 active torsions:
REMARK  status: ('A' for Active; 'I' for Inactive)
REMARK       I    between atoms: C_3  and  N_4 
REMARK    1  A    between atoms: C_3  and  C_17 
REMARK    2  A    between atoms: N_4  and  C_12 
REMARK    3  A    between atoms: C_6  and  O_10 
REMARK    4  A    between atoms: C_11  and  C_12 
REMARK    5  A    between atoms: C_12  and  C_28 
REMARK    6  A    between atoms: C_13  and  C_28 
REMARK    7  A    between atoms: C_14  and  C_17 
REMARK    8  A    between atoms: C_14  and  C_25 
REMARK    9  A    between atoms: C_17  and  N_21 
REMARK       I    between atoms: N_23  and  C_24 
REMARK   10  A    between atoms: C_24  and  C_25 
ROOT
HETATM    1  C           1     -20.116  -5.275  -6.106  0.00  0.00     0.249 C 
HETATM    2  N           1     -20.088  -6.640  -6.208  0.00  0.00    -0.344 N 
HETATM    3  H           1     -20.110  -7.080  -7.119  0.00  0.00     0.163 HD
HETATM    4  O           1     -20.090  -4.750  -5.018  0.00  0.00    -0.271 OA
ENDROOT
BRANCH   2   5
HETATM    5  C           1     -20.029  -7.455  -5.011  0.00  0.00     0.189 C 
BRANCH   5   6
HETATM    6  C           1     -19.045  -8.581  -5.217  0.00  0.00     0.197 C 
HETATM    7  O           1     -18.733  -9.322  -4.260  0.00  0.00    -0.646 OA
HETATM    8  O           1     -18.542  -8.772  -6.346  0.00  0.00    -0.646 OA
ENDBRANCH   5   6
BRANCH   5   9
HETATM    9  C           1     -21.408  -8.032  -4.721  0.00  0.00     0.074 C 
BRANCH   9  10
HETATM   10  C           1     -21.684  -7.952  -3.251  0.00  0.00    -0.056 A 
HETATM   11  C           1     -21.915  -6.714  -2.652  0.00  0.00     0.010 A 
HETATM   12  C           1     -22.172  -6.638  -1.283  0.00  0.00     0.037 A 
HETATM   13  C           1     -22.198  -7.802  -0.514  0.00  0.00     0.065 A 
HETATM   14  C           1     -21.965  -9.040  -1.112  0.00  0.00     0.037 A 
HETATM   15  C           1     -21.708  -9.114  -2.482  0.00  0.00     0.010 A 
BRANCH  13  16
HETATM   16  O           1     -22.447  -7.729   0.817  0.00  0.00    -0.361 OA
HETATM   17  H           1     -22.546  -6.792   1.053  0.00  0.00     0.217 HD
ENDBRANCH  13  16
ENDBRANCH   9  10
ENDBRANCH   5   9
ENDBRANCH   2   5
BRANCH   1  18
HETATM   18  C           1     -20.178  -4.427  -7.353  0.00  0.00     0.275 C 
BRANCH  18  19
HETATM   19  C           1     -21.442  -3.577  -7.327  0.00  0.00     0.052 C 
BRANCH  19  20
HETATM   20  C           1     -22.620  -4.404  -7.823  0.00  0.00     0.105 C 
BRANCH  20  21
HETATM   21  C           1     -23.208  -3.757  -9.052  0.00  0.00     0.215 C 
HETATM   22  O           1     -22.540  -3.641 -10.052  0.00  0.00    -0.274 OA
HETATM   23  N           1     -24.499  -3.301  -9.036  0.00  0.00    -0.370 N 
HETATM   24  H           1     -25.060  -3.398  -8.200  0.00  0.00     0.159 HD
HETATM   25  H           1     -24.893  -2.868  -9.862  0.00  0.00     0.159 HD
ENDBRANCH  20  21
ENDBRANCH  19  20
ENDBRANCH  18  19
BRANCH  18  26
HETATM   26  N           1     -20.198  -5.315  -8.560  0.00  0.00    -0.066 N 
HETATM   27  H           1     -19.492  -6.077  -8.446  0.00  0.00     0.275 HD
HETATM   28  H           1     -19.970  -4.753  -9.411  0.00  0.00     0.275 HD
HETATM   29  H           1     -21.150  -5.737  -8.667  0.00  0.00     0.275 HD
ENDBRANCH  18  26
ENDBRANCH   1  18
TORSDOF 10
ENDMDL
MODEL 6
REMARK VINA RESULT:      -7.1      2.284      7.687
REMARK  10 active torsions:
REMARK  status: ('A' for Active; 'I' for Inactive)
REMARK       I    between atoms: C_3  and  N_4 
REMARK    1  A    between atoms: C_3  and  C_17 
REMARK    2  A    between atoms: N_4  and  C_12 
REMARK    3  A    between atoms: C_6  and  O_10 
REMARK    4  A    between atoms: C_11  and  C_12 
REMARK    5  A    between atoms: C_12  and  C_28 
REMARK    6  A    between atoms: C_13  and  C_28 
REMARK    7  A    between atoms: C_14  and  C_17 
REMARK    8  A    between atoms: C_14  and  C_25 
REMARK    9  A    between atoms: C_17  and  N_21 
REMARK       I    between atoms: N_23  and  C_24 
REMARK   10  A    between atoms: C_24  and  C_25 
ROOT
HETATM    1  C           1     -20.166  -5.460  -6.672  0.00  0.00     0.249 C 
HETATM    2  N           1     -20.773  -5.205  -5.471  0.00  0.00    -0.344 N 
HETATM    3  H           1     -21.076  -4.266  -5.248  0.00  0.00     0.163 HD
HETATM    4  O           1     -19.803  -6.582  -6.939  0.00  0.00    -0.271 OA
ENDROOT
BRANCH   2   5
HETATM    5  C           1     -20.981  -6.279  -4.521  0.00  0.00     0.189 C 
BRANCH   5   6
HETATM    6  C           1     -22.251  -7.017  -4.866  0.00  0.00     0.197 C 
HETATM    7  O           1     -22.227  -8.254  -5.044  0.00  0.00    -0.646 OA
HETATM    8  O           1     -23.328  -6.391  -4.974  0.00  0.00    -0.646 OA
ENDBRANCH   5   6
BRANCH   5   9
HETATM    9  C           1     -21.095  -5.699  -3.117  0.00  0.00     0.074 C 
BRANCH   9  10
HETATM   10  C           1     -21.272  -6.811  -2.130  0.00  0.00    -0.056 A 
HETATM   11  C           1     -20.399  -7.899  -2.142  0.00  0.00     0.010 A 
HETATM   12  C           1     -20.564  -8.935  -1.223  0.00  0.00     0.037 A 
HETATM   13  C           1     -21.602  -8.883  -0.292  0.00  0.00     0.065 A 
HETATM   14  C           1     -22.476  -7.796  -0.281  0.00  0.00     0.037 A 
HETATM   15  C           1     -22.310  -6.760  -1.201  0.00  0.00     0.010 A 
BRANCH  13  16
HETATM   16  O           1     -21.763  -9.890   0.601  0.00  0.00    -0.361 OA
HETATM   17  H           1     -22.409 -10.516   0.235  0.00  0.00     0.217 HD
ENDBRANCH  13  16
ENDBRANCH   9  10
ENDBRANCH   5   9
ENDBRANCH   2   5
BRANCH   1  18
HETATM   18  C           1     -19.950  -4.342  -7.661  0.00  0.00     0.275 C 
BRANCH  18  19
HETATM   19  C           1     -21.185  -3.452  -7.699  0.00  0.00     0.052 C 
BRANCH  19  20
HETATM   20  C           1     -21.998  -3.762  -8.949  0.00  0.00     0.105 C 
BRANCH  20  21
HETATM   21  C           1     -23.416  -4.098  -8.557  0.00  0.00     0.215 C 
HETATM   22  O           1     -24.285  -4.123  -9.397  0.00  0.00    -0.274 OA
HETATM   23  N           1     -23.720  -4.374  -7.251  0.00  0.00    -0.370 N 
HETATM   24  H           1     -22.993  -4.353  -6.548  0.00  0.00     0.159 HD
HETATM   25  H           1     -24.671  -4.599  -6.990  0.00  0.00     0.159 HD
ENDBRANCH  20  21
ENDBRANCH  19  20
ENDBRANCH  18  19
BRANCH  18  26
HETATM   26  N           1     -19.710  -4.920  -9.024  0.00  0.00    -0.066 N 
HETATM   27  H           1     -19.015  -5.698  -8.956  0.00  0.00     0.275 HD
HETATM   28  H           1     -19.340  -4.177  -9.658  0.00  0.00     0.275 HD
HETATM   29  H           1     -20.609  -5.291  -9.409  0.00  0.00     0.275 HD
ENDBRANCH  18  26
ENDBRANCH   1  18
TORSDOF 10
ENDMDL
MODEL 7
REMARK VINA RESULT:      -6.5      1.757      2.484
REMARK  10 active torsions:
REMARK  status: ('A' for Active; 'I' for Inactive)
REMARK       I    between atoms: C_3  and  N_4 
REMARK    1  A    between atoms: C_3  and  C_17 
REMARK    2  A    between atoms: N_4  and  C_12 
REMARK    3  A    between atoms: C_6  and  O_10 
REMARK    4  A    between atoms: C_11  and  C_12 
REMARK    5  A    between atoms: C_12  and  C_28 
REMARK    6  A    between atoms: C_13  and  C_28 
REMARK    7  A    between atoms: C_14  and  C_17 
REMARK    8  A    between atoms: C_14  and  C_25 
REMARK    9  A    between atoms: C_17  and  N_21 
REMARK       I    between atoms: N_23  and  C_24 
REMARK   10  A    between atoms: C_24  and  C_25 
ROOT
HETATM    1  C           1     -21.648  -6.283  -3.371  0.00  0.00     0.249 C 
HETATM    2  N           1     -20.745  -5.769  -4.262  0.00  0.00    -0.344 N 
HETATM    3  H           1     -19.837  -5.460  -3.940  0.00  0.00     0.163 HD
HETATM    4  O           1     -22.733  -6.653  -3.755  0.00  0.00    -0.271 OA
ENDROOT
BRANCH   2   5
HETATM    5  C           1     -21.089  -5.669  -5.667  0.00  0.00     0.189 C 
BRANCH   5   6
HETATM    6  C           1     -20.632  -6.913  -6.387  0.00  0.00     0.197 C 
HETATM    7  O           1     -21.388  -7.905  -6.462  0.00  0.00    -0.646 OA
HETATM    8  O           1     -19.496  -6.951  -6.908  0.00  0.00    -0.646 OA
ENDBRANCH   5   6
BRANCH   5   9
HETATM    9  C           1     -20.404  -4.450  -6.271  0.00  0.00     0.074 C 
BRANCH   9  10
HETATM   10  C           1     -20.965  -4.186  -7.634  0.00  0.00    -0.056 A 
HETATM   11  C           1     -20.114  -4.127  -8.737  0.00  0.00     0.010 A 
HETATM   12  C           1     -20.635  -3.881 -10.008  0.00  0.00     0.037 A 
HETATM   13  C           1     -22.008  -3.694 -10.174  0.00  0.00     0.065 A 
HETATM   14  C           1     -22.859  -3.752  -9.070  0.00  0.00     0.037 A 
HETATM   15  C           1     -22.336  -3.999  -7.800  0.00  0.00     0.010 A 
BRANCH  13  16
HETATM   16  O           1     -22.515  -3.455 -11.407  0.00  0.00    -0.361 OA
HETATM   17  H           1     -21.935  -2.816 -11.852  0.00  0.00     0.217 HD
ENDBRANCH  13  16
ENDBRANCH   9  10
ENDBRANCH   5   9
ENDBRANCH   2   5
BRANCH   1  18
HETATM   18  C           1     -21.289  -6.388  -1.909  0.00  0.00     0.275 C 
BRANCH  18  19
HETATM   19  C           1     -20.856  -7.814  -1.593  0.00  0.00     0.052 C 
BRANCH  19  20
HETATM   20  C           1     -21.387  -8.216  -0.224  0.00  0.00     0.105 C 
BRANCH  20  21
HETATM   21  C           1     -22.234  -9.457  -0.357  0.00  0.00     0.215 C 
HETATM   22  O           1     -23.381  -9.449   0.022  0.00  0.00    -0.274 OA
HETATM   23  N           1     -21.705 -10.593  -0.908  0.00  0.00    -0.370 N 
HETATM   24  H           1     -20.745 -10.601  -1.226  0.00  0.00     0.159 HD
HETATM   25  H           1     -22.275 -11.425  -0.997  0.00  0.00     0.159 HD
ENDBRANCH  20  21
ENDBRANCH  19  20
ENDBRANCH  18  19
BRANCH  18  26
HETATM   26  N           1     -22.484  -6.034  -1.075  0.00  0.00    -0.066 N 
HETATM   27  H           1     -22.793  -6.872  -0.533  0.00  0.00     0.275 HD
HETATM   28  H           1     -23.261  -5.716  -1.698  0.00  0.00     0.275 HD
HETATM   29  H           1     -22.233  -5.265  -0.413  0.00  0.00     0.275 HD
ENDBRANCH  18  26
ENDBRANCH   1  18
TORSDOF 10
ENDMDL
MODEL 8
REMARK VINA RESULT:      -6.3      2.359      7.948
REMARK  10 active torsions:
REMARK  status: ('A' for Active; 'I' for Inactive)
REMARK       I    between atoms: C_3  and  N_4 
REMARK    1  A    between atoms: C_3  and  C_17 
REMARK    2  A    between atoms: N_4  and  C_12 
REMARK    3  A    between atoms: C_6  and  O_10 
REMARK    4  A    between atoms: C_11  and  C_12 
REMARK    5  A    between atoms: C_12  and  C_28 
REMARK    6  A    between atoms: C_13  and  C_28 
REMARK    7  A    between atoms: C_14  and  C_17 
REMARK    8  A    between atoms: C_14  and  C_25 
REMARK    9  A    between atoms: C_17  and  N_21 
REMARK       I    between atoms: N_23  and  C_24 
REMARK   10  A    between atoms: C_24  and  C_25 
ROOT
HETATM    1  C           1     -20.502  -7.273  -5.606  0.00  0.00     0.249 C 
HETATM    2  N           1     -20.821  -8.022  -4.504  0.00  0.00    -0.344 N 
HETATM    3  H           1     -21.675  -7.833  -3.995  0.00  0.00     0.163 HD
HETATM    4  O           1     -19.482  -7.498  -6.214  0.00  0.00    -0.271 OA
ENDROOT
BRANCH   2   5
HETATM    5  C           1     -19.937  -9.084  -4.069  0.00  0.00     0.189 C 
BRANCH   5   6
HETATM    6  C           1     -20.691 -10.391  -4.052  0.00  0.00     0.197 C 
HETATM    7  O           1     -21.909 -10.414  -4.333  0.00  0.00    -0.646 OA
HETATM    8  O           1     -20.097 -11.451  -3.758  0.00  0.00    -0.646 OA
ENDBRANCH   5   6
BRANCH   5   9
HETATM    9  C           1     -19.424  -8.775  -2.669  0.00  0.00     0.074 C 
BRANCH   9  10
HETATM   10  C           1     -20.581  -8.467  -1.770  0.00  0.00    -0.056 A 
HETATM   11  C           1     -21.031  -9.426  -0.862  0.00  0.00     0.010 A 
HETATM   12  C           1     -22.109  -9.141  -0.024  0.00  0.00     0.037 A 
HETATM   13  C           1     -22.736  -7.896  -0.094  0.00  0.00     0.065 A 
HETATM   14  C           1     -22.286  -6.938  -1.002  0.00  0.00     0.037 A 
HETATM   15  C           1     -21.208  -7.224  -1.839  0.00  0.00     0.010 A 
BRANCH  13  16
HETATM   16  O           1     -23.784  -7.618   0.720  0.00  0.00    -0.361 OA
HETATM   17  H           1     -24.218  -6.816   0.387  0.00  0.00     0.217 HD
ENDBRANCH  13  16
ENDBRANCH   9  10
ENDBRANCH   5   9
ENDBRANCH   2   5
BRANCH   1  18
HETATM   18  C           1     -21.423  -6.167  -6.059  0.00  0.00     0.275 C 
BRANCH  18  19
HETATM   19  C           1     -20.663  -4.847  -6.074  0.00  0.00     0.052 C 
BRANCH  19  20
HETATM   20  C           1     -21.318  -3.894  -7.065  0.00  0.00     0.105 C 
BRANCH  20  21
HETATM   21  C           1     -21.055  -4.371  -8.472  0.00  0.00     0.215 C 
HETATM   22  O           1     -19.920  -4.481  -8.871  0.00  0.00    -0.274 OA
HETATM   23  N           1     -22.102  -4.679  -9.298  0.00  0.00    -0.370 N 
HETATM   24  H           1     -23.053  -4.588  -8.965  0.00  0.00     0.159 HD
HETATM   25  H           1     -21.925  -5.000 -10.242  0.00  0.00     0.159 HD
ENDBRANCH  20  21
ENDBRANCH  19  20
ENDBRANCH  18  19
BRANCH  18  26
HETATM   26  N           1     -22.582  -6.064  -5.113  0.00  0.00    -0.066 N 
HETATM   27  H           1     -22.234  -5.823  -4.158  0.00  0.00     0.275 HD
HETATM   28  H           1     -23.087  -6.979  -5.080  0.00  0.00     0.275 HD
HETATM   29  H           1     -23.237  -5.318  -5.443  0.00  0.00     0.275 HD
ENDBRANCH  18  26
ENDBRANCH   1  18
TORSDOF 10
ENDMDL
MODEL 9
REMARK VINA RESULT:      -6.3      2.953      7.117
REMARK  10 active torsions:
REMARK  status: ('A' for Active; 'I' for Inactive)
REMARK       I    between atoms: C_3  and  N_4 
REMARK    1  A    between atoms: C_3  and  C_17 
REMARK    2  A    between atoms: N_4  and  C_12 
REMARK    3  A    between atoms: C_6  and  O_10 
REMARK    4  A    between atoms: C_11  and  C_12 
REMARK    5  A    between atoms: C_12  and  C_28 
REMARK    6  A    between atoms: C_13  and  C_28 
REMARK    7  A    between atoms: C_14  and  C_17 
REMARK    8  A    between atoms: C_14  and  C_25 
REMARK    9  A    between atoms: C_17  and  N_21 
REMARK       I    between atoms: N_23  and  C_24 
REMARK   10  A    between atoms: C_24  and  C_25 
ROOT
HETATM    1  C           1     -20.875  -5.847  -6.157  0.00  0.00     0.249 C 
HETATM    2  N           1     -20.828  -5.979  -4.795  0.00  0.00    -0.344 N 
HETATM    3  H           1     -20.599  -5.181  -4.218  0.00  0.00     0.163 HD
HETATM    4  O           1     -21.148  -6.801  -6.847  0.00  0.00    -0.271 OA
ENDROOT
BRANCH   2   5
HETATM    5  C           1     -21.109  -7.262  -4.181  0.00  0.00     0.189 C 
BRANCH   5   6
HETATM    6  C           1     -21.763  -7.045  -2.839  0.00  0.00     0.197 C 
HETATM    7  O           1     -22.379  -5.981  -2.608  0.00  0.00    -0.646 OA
HETATM    8  O           1     -21.689  -7.928  -1.957  0.00  0.00    -0.646 OA
ENDBRANCH   5   6
BRANCH   5   9
HETATM    9  C           1     -19.806  -8.029  -3.994  0.00  0.00     0.074 C 
BRANCH   9  10
HETATM   10  C           1     -19.846  -9.286  -4.806  0.00  0.00    -0.056 A 
HETATM   11  C           1     -18.660  -9.849  -5.277  0.00  0.00     0.010 A 
HETATM   12  C           1     -18.696 -11.020  -6.034  0.00  0.00     0.037 A 
HETATM   13  C           1     -19.920 -11.628  -6.320  0.00  0.00     0.065 A 
HETATM   14  C           1     -21.106 -11.065  -5.849  0.00  0.00     0.037 A 
HETATM   15  C           1     -21.068  -9.894  -5.092  0.00  0.00     0.010 A 
BRANCH  13  16
HETATM   16  O           1     -19.956 -12.766  -7.055  0.00  0.00    -0.361 OA
HETATM   17  H           1     -19.664 -13.499  -6.488  0.00  0.00     0.217 HD
ENDBRANCH  13  16
ENDBRANCH   9  10
ENDBRANCH   5   9
ENDBRANCH   2   5
BRANCH   1  18
HETATM   18  C           1     -20.583  -4.512  -6.796  0.00  0.00     0.275 C 
BRANCH  18  19
HETATM   19  C           1     -21.863  -3.949  -7.402  0.00  0.00     0.052 C 
BRANCH  19  20
HETATM   20  C           1     -21.779  -4.014  -8.920  0.00  0.00     0.105 C 
BRANCH  20  21
HETATM   21  C           1     -23.114  -3.641  -9.516  0.00  0.00     0.215 C 
HETATM   22  O           1     -23.192  -3.340 -10.683  0.00  0.00    -0.274 OA
HETATM   23  N           1     -24.237  -3.642  -8.734  0.00  0.00    -0.370 N 
HETATM   24  H           1     -24.174  -3.894  -7.757  0.00  0.00     0.159 HD
HETATM   25  H           1     -25.133  -3.392  -9.135  0.00  0.00     0.159 HD
ENDBRANCH  20  21
ENDBRANCH  19  20
ENDBRANCH  18  19
BRANCH  18  26
HETATM   26  N           1     -19.557  -4.688  -7.875  0.00  0.00    -0.066 N 
HETATM   27  H           1     -18.670  -4.211  -7.595  0.00  0.00     0.275 HD
HETATM   28  H           1     -19.911  -4.271  -8.764  0.00  0.00     0.275 HD
HETATM   29  H           1     -19.372  -5.708  -8.018  0.00  0.00     0.275 HD
ENDBRANCH  18  26
ENDBRANCH   1  18
TORSDOF 10
ENDMDL
