MODEL 1
REMARK VINA RESULT:      -5.3      0.000      0.000
REMARK  6 active torsions:
REMARK  status: ('A' for Active; 'I' for Inactive)
REMARK    1  A    between atoms: C_1  and  C_11 
REMARK    2  A    between atoms: N_4  and  C_11 
REMARK       I    between atoms: N_4  and  C_5 
REMARK    3  A    between atoms: C_5  and  C_6 
REMARK    4  A    between atoms: C_6  and  N_7 
REMARK    5  A    between atoms: C_8  and  C_10 
REMARK    6  A    between atoms: C_8  and  C_11 
ROOT
HETATM    1  N           1     -22.476  -4.881  -8.949  0.00  0.00    -0.345 N 
HETATM    2  C           1     -21.892  -4.474  -7.780  0.00  0.00     0.243 C 
HETATM    3  H           1     -22.641  -5.866  -9.116  0.00  0.00     0.163 HD
HETATM    4  O           1     -21.695  -3.299  -7.581  0.00  0.00    -0.272 OA
ENDROOT
BRANCH   1   5
HETATM    5  C           1     -22.857  -3.903  -9.949  0.00  0.00     0.195 C 
BRANCH   5   6
HETATM    6  C           1     -24.347  -3.977 -10.181  0.00  0.00     0.197 C 
HETATM    7  O           1     -25.012  -4.908  -9.678  0.00  0.00    -0.646 OA
HETATM    8  O           1     -24.915  -3.107 -10.876  0.00  0.00    -0.646 OA
ENDBRANCH   5   6
BRANCH   5   9
HETATM    9  C           1     -22.125  -4.196 -11.251  0.00  0.00     0.149 C 
BRANCH   9  10
HETATM   10  C           1     -20.655  -3.901 -11.080  0.00  0.00     0.175 C 
HETATM   11  O           1     -19.874  -4.805 -10.708  0.00  0.00    -0.648 OA
HETATM   12  O           1     -20.217  -2.753 -11.310  0.00  0.00    -0.648 OA
ENDBRANCH   9  10
ENDBRANCH   5   9
ENDBRANCH   1   5
BRANCH   2  13
HETATM   13  C           1     -21.495  -5.493  -6.740  0.00  0.00     0.332 C 
BRANCH  13  14
HETATM   14  N           1     -20.315  -6.278  -7.233  0.00  0.00    -0.071 N 
HETATM   15  H           1     -20.619  -7.246  -7.480  0.00  0.00     0.274 HD
HETATM   16  H           1     -19.915  -5.811  -8.078  0.00  0.00     0.274 HD
HETATM   17  H           1     -19.588  -6.322  -6.483  0.00  0.00     0.274 HD
ENDBRANCH  13  14
ENDBRANCH   2  13
TORSDOF 6
ENDMDL
MODEL 2
REMARK VINA RESULT:      -5.3      1.450      3.393
REMARK  6 active torsions:
REMARK  status: ('A' for Active; 'I' for Inactive)
REMARK    1  A    between atoms: C_1  and  C_11 
REMARK    2  A    between atoms: N_4  and  C_11 
REMARK       I    between atoms: N_4  and  C_5 
REMARK    3  A    between atoms: C_5  and  C_6 
REMARK    4  A    between atoms: C_6  and  N_7 
REMARK    5  A    between atoms: C_8  and  C_10 
REMARK    6  A    between atoms: C_8  and  C_11 
ROOT
HETATM    1  N           1     -22.319  -4.202  -9.274  0.00  0.00    -0.345 N 
HETATM    2  C           1     -21.543  -4.688  -8.257  0.00  0.00     0.243 C 
HETATM    3  H           1     -23.148  -3.661  -9.064  0.00  0.00     0.163 HD
HETATM    4  O           1     -20.554  -5.334  -8.508  0.00  0.00    -0.272 OA
ENDROOT
BRANCH   1   5
HETATM    5  C           1     -21.954  -4.463 -10.653  0.00  0.00     0.195 C 
BRANCH   5   6
HETATM    6  C           1     -21.214  -3.272 -11.211  0.00  0.00     0.197 C 
HETATM    7  O           1     -19.967  -3.224 -11.145  0.00  0.00    -0.646 OA
HETATM    8  O           1     -21.849  -2.333 -11.738  0.00  0.00    -0.646 OA
ENDBRANCH   5   6
BRANCH   5   9
HETATM    9  C           1     -23.213  -4.709 -11.473  0.00  0.00     0.149 C 
BRANCH   9  10
HETATM   10  C           1     -24.423  -4.271 -10.684  0.00  0.00     0.175 C 
HETATM   11  O           1     -24.920  -3.140 -10.877  0.00  0.00    -0.648 OA
HETATM   12  O           1     -24.928  -5.039  -9.837  0.00  0.00    -0.648 OA
ENDBRANCH   9  10
ENDBRANCH   5   9
ENDBRANCH   1   5
BRANCH   2  13
HETATM   13  C           1     -21.924  -4.416  -6.822  0.00  0.00     0.332 C 
BRANCH  13  14
HETATM   14  N           1     -23.414  -4.508  -6.673  0.00  0.00    -0.071 N 
HETATM   15  H           1     -23.869  -4.310  -7.592  0.00  0.00     0.274 HD
HETATM   16  H           1     -23.673  -5.469  -6.355  0.00  0.00     0.274 HD
HETATM   17  H           1     -23.737  -3.808  -5.967  0.00  0.00     0.274 HD
ENDBRANCH  13  14
ENDBRANCH   2  13
TORSDOF 6
ENDMDL
MODEL 3
REMARK VINA RESULT:      -5.0      1.411      3.437
REMARK  6 active torsions:
REMARK  status: ('A' for Active; 'I' for Inactive)
REMARK    1  A    between atoms: C_1  and  C_11 
REMARK    2  A    between atoms: N_4  and  C_11 
REMARK       I    between atoms: N_4  and  C_5 
REMARK    3  A    between atoms: C_5  and  C_6 
REMARK    4  A    between atoms: C_6  and  N_7 
REMARK    5  A    between atoms: C_8  and  C_10 
REMARK    6  A    between atoms: C_8  and  C_11 
ROOT
HETATM    1  N           1     -21.293  -3.956  -8.093  0.00  0.00    -0.345 N 
HETATM    2  C           1     -20.893  -5.005  -7.310  0.00  0.00     0.243 C 
HETATM    3  H           1     -21.097  -3.006  -7.805  0.00  0.00     0.163 HD
HETATM    4  O           1     -21.128  -6.139  -7.654  0.00  0.00    -0.272 OA
ENDROOT
BRANCH   1   5
HETATM    5  C           1     -21.999  -4.206  -9.335  0.00  0.00     0.195 C 
BRANCH   5   6
HETATM    6  C           1     -21.064  -3.978 -10.498  0.00  0.00     0.197 C 
HETATM    7  O           1     -21.245  -3.006 -11.263  0.00  0.00    -0.646 OA
HETATM    8  O           1     -20.110  -4.761 -10.695  0.00  0.00    -0.646 OA
ENDBRANCH   5   6
BRANCH   5   9
HETATM    9  C           1     -23.186  -3.258  -9.443  0.00  0.00     0.149 C 
BRANCH   9  10
HETATM   10  C           1     -24.285  -3.916 -10.240  0.00  0.00     0.175 C 
HETATM   11  O           1     -25.065  -3.218 -10.924  0.00  0.00    -0.648 OA
HETATM   12  O           1     -24.415  -5.159 -10.217  0.00  0.00    -0.648 OA
ENDBRANCH   9  10
ENDBRANCH   5   9
ENDBRANCH   1   5
BRANCH   2  13
HETATM   13  C           1     -20.159  -4.745  -6.017  0.00  0.00     0.332 C 
BRANCH  13  14
HETATM   14  N           1     -20.822  -5.500  -4.904  0.00  0.00    -0.071 N 
HETATM   15  H           1     -21.836  -5.252  -4.869  0.00  0.00     0.274 HD
HETATM   16  H           1     -20.721  -6.527  -5.070  0.00  0.00     0.274 HD
HETATM   17  H           1     -20.371  -5.248  -3.995  0.00  0.00     0.274 HD
ENDBRANCH  13  14
ENDBRANCH   2  13
TORSDOF 6
ENDMDL
MODEL 4
REMARK VINA RESULT:      -4.8      1.774      3.462
REMARK  6 active torsions:
REMARK  status: ('A' for Active; 'I' for Inactive)
REMARK    1  A    between atoms: C_1  and  C_11 
REMARK    2  A    between atoms: N_4  and  C_11 
REMARK       I    between atoms: N_4  and  C_5 
REMARK    3  A    between atoms: C_5  and  C_6 
REMARK    4  A    between atoms: C_6  and  N_7 
REMARK    5  A    between atoms: C_8  and  C_10 
REMARK    6  A    between atoms: C_8  and  C_11 
ROOT
HETATM    1  N           1     -21.848  -4.496  -7.325  0.00  0.00    -0.345 N 
HETATM    2  C           1     -21.378  -5.598  -6.663  0.00  0.00     0.243 C 
HETATM    3  H           1     -22.062  -3.651  -6.811  0.00  0.00     0.163 HD
HETATM    4  O           1     -21.122  -6.607  -7.276  0.00  0.00    -0.272 OA
ENDROOT
BRANCH   1   5
HETATM    5  C           1     -22.039  -4.539  -8.761  0.00  0.00     0.195 C 
BRANCH   5   6
HETATM    6  C           1     -20.730  -4.246  -9.452  0.00  0.00     0.197 C 
HETATM    7  O           1     -20.575  -4.550 -10.654  0.00  0.00    -0.646 OA
HETATM    8  O           1     -19.800  -3.698  -8.821  0.00  0.00    -0.646 OA
ENDBRANCH   5   6
BRANCH   5   9
HETATM    9  C           1     -23.072  -3.497  -9.167  0.00  0.00     0.149 C 
BRANCH   9  10
HETATM   10  C           1     -24.004  -4.085 -10.198  0.00  0.00     0.175 C 
HETATM   11  O           1     -23.915  -5.294 -10.504  0.00  0.00    -0.648 OA
HETATM   12  O           1     -24.865  -3.363 -10.746  0.00  0.00    -0.648 OA
ENDBRANCH   9  10
ENDBRANCH   5   9
ENDBRANCH   1   5
BRANCH   2  13
HETATM   13  C           1     -21.179  -5.553  -5.168  0.00  0.00     0.332 C 
BRANCH  13  14
HETATM   14  N           1     -22.323  -6.246  -4.489  0.00  0.00    -0.071 N 
HETATM   15  H           1     -22.176  -6.231  -3.455  0.00  0.00     0.274 HD
HETATM   16  H           1     -23.215  -5.755  -4.721  0.00  0.00     0.274 HD
HETATM   17  H           1     -22.374  -7.237  -4.819  0.00  0.00     0.274 HD
ENDBRANCH  13  14
ENDBRANCH   2  13
TORSDOF 6
ENDMDL
MODEL 5
REMARK VINA RESULT:      -4.8      1.782      3.779
REMARK  6 active torsions:
REMARK  status: ('A' for Active; 'I' for Inactive)
REMARK    1  A    between atoms: C_1  and  C_11 
REMARK    2  A    between atoms: N_4  and  C_11 
REMARK       I    between atoms: N_4  and  C_5 
REMARK    3  A    between atoms: C_5  and  C_6 
REMARK    4  A    between atoms: C_6  and  N_7 
REMARK    5  A    between atoms: C_8  and  C_10 
REMARK    6  A    between atoms: C_8  and  C_11 
ROOT
HETATM    1  N           1     -22.454  -3.851  -9.031  0.00  0.00    -0.345 N 
HETATM    2  C           1     -23.694  -4.072  -9.567  0.00  0.00     0.243 C 
HETATM    3  H           1     -22.222  -2.942  -8.651  0.00  0.00     0.163 HD
HETATM    4  O           1     -23.970  -5.157 -10.021  0.00  0.00    -0.272 OA
ENDROOT
BRANCH   1   5
HETATM    5  C           1     -21.473  -4.918  -9.009  0.00  0.00     0.195 C 
BRANCH   5   6
HETATM    6  C           1     -21.070  -5.201  -7.582  0.00  0.00     0.197 C 
HETATM    7  O           1     -20.796  -6.368  -7.230  0.00  0.00    -0.646 OA
HETATM    8  O           1     -21.012  -4.267  -6.753  0.00  0.00    -0.646 OA
ENDBRANCH   5   6
BRANCH   5   9
HETATM    9  C           1     -20.247  -4.497  -9.808  0.00  0.00     0.149 C 
BRANCH   9  10
HETATM   10  C           1     -20.685  -3.797 -11.071  0.00  0.00     0.175 C 
HETATM   11  O           1     -21.308  -4.428 -11.953  0.00  0.00    -0.648 OA
HETATM   12  O           1     -20.425  -2.585 -11.236  0.00  0.00    -0.648 OA
ENDBRANCH   9  10
ENDBRANCH   5   9
ENDBRANCH   1   5
BRANCH   2  13
HETATM   13  C           1     -24.715  -2.961  -9.591  0.00  0.00     0.332 C 
BRANCH  13  14
HETATM   14  N           1     -26.094  -3.550  -9.638  0.00  0.00    -0.071 N 
HETATM   15  H           1     -26.031  -4.569  -9.858  0.00  0.00     0.274 HD
HETATM   16  H           1     -26.559  -3.422  -8.711  0.00  0.00     0.274 HD
HETATM   17  H           1     -26.653  -3.068 -10.378  0.00  0.00     0.274 HD
ENDBRANCH  13  14
ENDBRANCH   2  13
TORSDOF 6
ENDMDL
MODEL 6
REMARK VINA RESULT:      -4.5      2.373      4.346
REMARK  6 active torsions:
REMARK  status: ('A' for Active; 'I' for Inactive)
REMARK    1  A    between atoms: C_1  and  C_11 
REMARK    2  A    between atoms: N_4  and  C_11 
REMARK       I    between atoms: N_4  and  C_5 
REMARK    3  A    between atoms: C_5  and  C_6 
REMARK    4  A    between atoms: C_6  and  N_7 
REMARK    5  A    between atoms: C_8  and  C_10 
REMARK    6  A    between atoms: C_8  and  C_11 
ROOT
HETATM    1  N           1     -22.994  -4.189  -7.533  0.00  0.00    -0.345 N 
HETATM    2  C           1     -23.403  -4.182  -8.839  0.00  0.00     0.243 C 
HETATM    3  H           1     -23.529  -3.691  -6.833  0.00  0.00     0.163 HD
HETATM    4  O           1     -22.764  -4.777  -9.674  0.00  0.00    -0.272 OA
ENDROOT
BRANCH   1   5
HETATM    5  C           1     -21.795  -4.908  -7.152  0.00  0.00     0.195 C 
BRANCH   5   6
HETATM    6  C           1     -22.030  -5.619  -5.841  0.00  0.00     0.197 C 
HETATM    7  O           1     -23.197  -5.839  -5.451  0.00  0.00    -0.646 OA
HETATM    8  O           1     -21.058  -5.987  -5.147  0.00  0.00    -0.646 OA
ENDBRANCH   5   6
BRANCH   5   9
HETATM    9  C           1     -20.642  -3.926  -6.997  0.00  0.00     0.149 C 
BRANCH   9  10
HETATM   10  C           1     -19.504  -4.337  -7.900  0.00  0.00     0.175 C 
HETATM   11  O           1     -19.716  -4.555  -9.113  0.00  0.00    -0.648 OA
HETATM   12  O           1     -18.351  -4.459  -7.435  0.00  0.00    -0.648 OA
ENDBRANCH   9  10
ENDBRANCH   5   9
ENDBRANCH   1   5
BRANCH   2  13
HETATM   13  C           1     -24.652  -3.433  -9.235  0.00  0.00     0.332 C 
BRANCH  13  14
HETATM   14  N           1     -24.872  -3.573 -10.712  0.00  0.00    -0.071 N 
HETATM   15  H           1     -24.319  -2.845 -11.218  0.00  0.00     0.274 HD
HETATM   16  H           1     -24.563  -4.522 -11.022  0.00  0.00     0.274 HD
HETATM   17  H           1     -25.888  -3.450 -10.927  0.00  0.00     0.274 HD
ENDBRANCH  13  14
ENDBRANCH   2  13
TORSDOF 6
ENDMDL
MODEL 7
REMARK VINA RESULT:      -4.4      3.045      4.845
REMARK  6 active torsions:
REMARK  status: ('A' for Active; 'I' for Inactive)
REMARK    1  A    between atoms: C_1  and  C_11 
REMARK    2  A    between atoms: N_4  and  C_11 
REMARK       I    between atoms: N_4  and  C_5 
REMARK    3  A    between atoms: C_5  and  C_6 
REMARK    4  A    between atoms: C_6  and  N_7 
REMARK    5  A    between atoms: C_8  and  C_10 
REMARK    6  A    between atoms: C_8  and  C_11 
ROOT
HETATM    1  N           1     -20.974  -5.356  -5.022  0.00  0.00    -0.345 N 
HETATM    2  C           1     -21.428  -6.466  -4.364  0.00  0.00     0.243 C 
HETATM    3  H           1     -20.567  -4.590  -4.501  0.00  0.00     0.163 HD
HETATM    4  O           1     -21.914  -7.380  -4.986  0.00  0.00    -0.272 OA
ENDROOT
BRANCH   1   5
HETATM    5  C           1     -21.077  -5.276  -6.466  0.00  0.00     0.195 C 
BRANCH   5   6
HETATM    6  C           1     -19.732  -5.576  -7.082  0.00  0.00     0.197 C 
HETATM    7  O           1     -19.371  -6.761  -7.249  0.00  0.00    -0.646 OA
HETATM    8  O           1     -18.980  -4.638  -7.426  0.00  0.00    -0.646 OA
ENDBRANCH   5   6
BRANCH   5   9
HETATM    9  C           1     -21.518  -3.875  -6.866  0.00  0.00     0.149 C 
BRANCH   9  10
HETATM   10  C           1     -22.367  -3.950  -8.112  0.00  0.00     0.175 C 
HETATM   11  O           1     -23.578  -4.250  -8.027  0.00  0.00    -0.648 OA
HETATM   12  O           1     -21.858  -3.713  -9.229  0.00  0.00    -0.648 OA
ENDBRANCH   9  10
ENDBRANCH   5   9
ENDBRANCH   1   5
BRANCH   2  13
HETATM   13  C           1     -21.321  -6.549  -2.861  0.00  0.00     0.332 C 
BRANCH  13  14
HETATM   14  N           1     -22.481  -5.830  -2.236  0.00  0.00    -0.071 N 
HETATM   15  H           1     -22.387  -5.855  -1.196  0.00  0.00     0.274 HD
HETATM   16  H           1     -22.491  -4.837  -2.561  0.00  0.00     0.274 HD
HETATM   17  H           1     -23.373  -6.298  -2.516  0.00  0.00     0.274 HD
ENDBRANCH  13  14
ENDBRANCH   2  13
TORSDOF 6
ENDMDL
MODEL 8
REMARK VINA RESULT:      -4.2      4.621      6.941
REMARK  6 active torsions:
REMARK  status: ('A' for Active; 'I' for Inactive)
REMARK    1  A    between atoms: C_1  and  C_11 
REMARK    2  A    between atoms: N_4  and  C_11 
REMARK       I    between atoms: N_4  and  C_5 
REMARK    3  A    between atoms: C_5  and  C_6 
REMARK    4  A    between atoms: C_6  and  N_7 
REMARK    5  A    between atoms: C_8  and  C_10 
REMARK    6  A    between atoms: C_8  and  C_11 
ROOT
HETATM    1  N           1     -20.731  -6.554  -4.710  0.00  0.00    -0.345 N 
HETATM    2  C           1     -21.230  -5.635  -5.593  0.00  0.00     0.243 C 
HETATM    3  H           1     -19.730  -6.648  -4.589  0.00  0.00     0.163 HD
HETATM    4  O           1     -22.424  -5.523  -5.737  0.00  0.00    -0.272 OA
ENDROOT
BRANCH   1   5
HETATM    5  C           1     -21.635  -7.393  -3.948  0.00  0.00     0.195 C 
BRANCH   5   6
HETATM    6  C           1     -21.683  -6.910  -2.519  0.00  0.00     0.197 C 
HETATM    7  O           1     -21.002  -7.486  -1.642  0.00  0.00    -0.646 OA
HETATM    8  O           1     -22.403  -5.936  -2.212  0.00  0.00    -0.646 OA
ENDBRANCH   5   6
BRANCH   5   9
HETATM    9  C           1     -21.140  -8.833  -3.982  0.00  0.00     0.149 C 
BRANCH   9  10
HETATM   10  C           1     -19.753  -8.875  -4.574  0.00  0.00     0.175 C 
HETATM   11  O           1     -18.752  -8.863  -3.824  0.00  0.00    -0.648 OA
HETATM   12  O           1     -19.604  -8.923  -5.814  0.00  0.00    -0.648 OA
ENDBRANCH   9  10
ENDBRANCH   5   9
ENDBRANCH   1   5
BRANCH   2  13
HETATM   13  C           1     -20.289  -4.762  -6.386  0.00  0.00     0.332 C 
BRANCH  13  14
HETATM   14  N           1     -21.072  -3.700  -7.100  0.00  0.00    -0.071 N 
HETATM   15  H           1     -22.039  -4.047  -7.289  0.00  0.00     0.274 HD
HETATM   16  H           1     -21.121  -2.843  -6.503  0.00  0.00     0.274 HD
HETATM   17  H           1     -20.602  -3.468  -8.004  0.00  0.00     0.274 HD
ENDBRANCH  13  14
ENDBRANCH   2  13
TORSDOF 6
ENDMDL
MODEL 9
REMARK VINA RESULT:      -4.2      8.068     10.275
REMARK  6 active torsions:
REMARK  status: ('A' for Active; 'I' for Inactive)
REMARK    1  A    between atoms: C_1  and  C_11 
REMARK    2  A    between atoms: N_4  and  C_11 
REMARK       I    between atoms: N_4  and  C_5 
REMARK    3  A    between atoms: C_5  and  C_6 
REMARK    4  A    between atoms: C_6  and  N_7 
REMARK    5  A    between atoms: C_8  and  C_10 
REMARK    6  A    between atoms: C_8  and  C_11 
ROOT
HETATM    1  N           1     -21.677  -8.532  -1.496  0.00  0.00    -0.345 N 
HETATM    2  C           1     -21.938  -7.203  -1.693  0.00  0.00     0.243 C 
HETATM    3  H           1     -21.033  -9.017  -2.108  0.00  0.00     0.163 HD
HETATM    4  O           1     -22.706  -6.624  -0.963  0.00  0.00    -0.272 OA
ENDROOT
BRANCH   1   5
HETATM    5  C           1     -22.323  -9.245  -0.411  0.00  0.00     0.195 C 
BRANCH   5   6
HETATM    6  C           1     -21.340  -9.439   0.717  0.00  0.00     0.197 C 
HETATM    7  O           1     -21.050  -8.480   1.465  0.00  0.00    -0.646 OA
HETATM    8  O           1     -20.816 -10.559   0.904  0.00  0.00    -0.646 OA
ENDBRANCH   5   6
BRANCH   5   9
HETATM    9  C           1     -22.800 -10.602  -0.910  0.00  0.00     0.149 C 
BRANCH   9  10
HETATM   10  C           1     -22.182 -10.890  -2.256  0.00  0.00     0.175 C 
HETATM   11  O           1     -22.850 -10.723  -3.300  0.00  0.00    -0.648 OA
HETATM   12  O           1     -21.002 -11.297  -2.328  0.00  0.00    -0.648 OA
ENDBRANCH   9  10
ENDBRANCH   5   9
ENDBRANCH   1   5
BRANCH   2  13
HETATM   13  C           1     -21.265  -6.461  -2.823  0.00  0.00     0.332 C 
BRANCH  13  14
HETATM   14  N           1     -22.254  -6.227  -3.927  0.00  0.00    -0.071 N 
HETATM   15  H           1     -22.362  -7.101  -4.489  0.00  0.00     0.274 HD
HETATM   16  H           1     -23.177  -5.960  -3.517  0.00  0.00     0.274 HD
HETATM   17  H           1     -21.910  -5.457  -4.545  0.00  0.00     0.274 HD
ENDBRANCH  13  14
ENDBRANCH   2  13
TORSDOF 6
ENDMDL
