MODEL 1
REMARK VINA RESULT:      -6.7      0.000      0.000
REMARK  7 active torsions:
REMARK  status: ('A' for Active; 'I' for Inactive)
REMARK    1  A    between atoms: N_4  and  C_14 
REMARK    2  A    between atoms: N_5  and  C_12 
REMARK       I    between atoms: N_5  and  C_6 
REMARK    3  A    between atoms: C_6  and  C_14 
REMARK    4  A    between atoms: C_9  and  C_12 
REMARK    5  A    between atoms: C_9  and  C_16 
REMARK    6  A    between atoms: C_12  and  C_23 
REMARK    7  A    between atoms: C_14  and  C_17 
ROOT
HETATM    1  N           1     -35.781  -1.405 -10.069  0.00  0.00    -0.344 N 
HETATM    2  C           1     -34.610  -2.028 -10.406  0.00  0.00     0.249 C 
HETATM    3  O           1     -33.571  -1.675  -9.899  0.00  0.00    -0.271 OA
HETATM    4  H           1     -36.335  -1.753  -9.297  0.00  0.00     0.163 HD
ENDROOT
BRANCH   1   5
HETATM    5  C           1     -36.230  -0.249 -10.820  0.00  0.00     0.191 C 
BRANCH   5   6
HETATM    6  C           1     -37.211  -0.692 -11.897  0.00  0.00     0.094 C 
BRANCH   6   7
HETATM    7  C           1     -36.824  -0.081 -13.208  0.00  0.00     0.028 A 
HETATM    8  N           1     -35.589   0.444 -13.489  0.00  0.00    -0.354 N 
HETATM    9  C           1     -35.669   0.871 -14.729  0.00  0.00     0.180 A 
ATOM     10  HN          1     -34.781   0.493 -12.868  1.00  0.00     0.166 HD
HETATM   11  N           1     -36.907   0.642 -15.258  0.00  0.00    -0.360 N 
HETATM   12  H           1     -37.223   0.889 -16.229  0.00  0.00     0.166 HD
HETATM   13  C           1     -37.660   0.032 -14.294  0.00  0.00     0.114 A 
ENDBRANCH   6   7
ENDBRANCH   5   6
BRANCH   5  14
HETATM   14  C           1     -36.909   0.724  -9.888  0.00  0.00     0.197 C 
HETATM   15  O           1     -38.075   1.107 -10.124  0.00  0.00    -0.646 OA
HETATM   16  O           1     -36.305   1.146  -8.878  0.00  0.00    -0.646 OA
ENDBRANCH   5  14
ENDBRANCH   1   5
BRANCH   2  17
HETATM   17  C           1     -34.614  -3.154 -11.410  0.00  0.00     0.278 C 
BRANCH  17  18
HETATM   18  N           1     -34.252  -2.617 -12.763  0.00  0.00    -0.066 N 
HETATM   19  H           1     -34.180  -1.576 -12.718  0.00  0.00     0.275 HD
HETATM   20  H           1     -33.335  -3.017 -13.062  0.00  0.00     0.275 HD
HETATM   21  H           1     -34.992  -2.884 -13.452  0.00  0.00     0.275 HD
ENDBRANCH  17  18
BRANCH  17  22
HETATM   22  C           1     -33.600  -4.210 -10.995  0.00  0.00     0.017 C 
HETATM   23  C           1     -32.519  -4.323 -12.062  0.00  0.00     0.012 C 
HETATM   24  C           1     -34.300  -5.554 -10.839  0.00  0.00     0.012 C 
ENDBRANCH  17  22
ENDBRANCH   2  17
TORSDOF 7
ENDMDL
MODEL 2
REMARK VINA RESULT:      -6.2      1.701      2.536
REMARK  7 active torsions:
REMARK  status: ('A' for Active; 'I' for Inactive)
REMARK    1  A    between atoms: N_4  and  C_14 
REMARK    2  A    between atoms: N_5  and  C_12 
REMARK       I    between atoms: N_5  and  C_6 
REMARK    3  A    between atoms: C_6  and  C_14 
REMARK    4  A    between atoms: C_9  and  C_12 
REMARK    5  A    between atoms: C_9  and  C_16 
REMARK    6  A    between atoms: C_12  and  C_23 
REMARK    7  A    between atoms: C_14  and  C_17 
ROOT
HETATM    1  N           1     -34.924  -1.301 -13.216  0.00  0.00    -0.344 N 
HETATM    2  C           1     -34.907  -2.317 -12.298  0.00  0.00     0.249 C 
HETATM    3  O           1     -35.943  -2.829 -11.944  0.00  0.00    -0.271 OA
HETATM    4  H           1     -34.863  -1.511 -14.204  0.00  0.00     0.163 HD
ENDROOT
BRANCH   1   5
HETATM    5  C           1     -35.030   0.075 -12.772  0.00  0.00     0.191 C 
BRANCH   5   6
HETATM    6  C           1     -35.199   0.987 -13.979  0.00  0.00     0.094 C 
BRANCH   6   7
HETATM    7  C           1     -36.067   0.314 -14.996  0.00  0.00     0.028 A 
HETATM    8  N           1     -37.432   0.431 -15.055  0.00  0.00    -0.354 N 
HETATM    9  C           1     -37.798  -0.306 -16.078  0.00  0.00     0.180 A 
ATOM     10  HN          1     -38.034   0.975 -14.436  1.00  0.00     0.166 HD
HETATM   11  N           1     -36.724  -0.895 -16.681  0.00  0.00    -0.360 N 
HETATM   12  H           1     -36.751  -1.530 -17.517  0.00  0.00     0.166 HD
HETATM   13  C           1     -35.605  -0.506 -15.998  0.00  0.00     0.114 A 
ENDBRANCH   6   7
ENDBRANCH   5   6
BRANCH   5  14
HETATM   14  C           1     -36.223   0.219 -11.860  0.00  0.00     0.197 C 
HETATM   15  O           1     -36.064   0.572 -10.671  0.00  0.00    -0.646 OA
HETATM   16  O           1     -37.372  -0.016 -12.293  0.00  0.00    -0.646 OA
ENDBRANCH   5  14
ENDBRANCH   1   5
BRANCH   2  17
HETATM   17  C           1     -33.595  -2.797 -11.729  0.00  0.00     0.278 C 
BRANCH  17  18
HETATM   18  N           1     -33.504  -2.406 -10.284  0.00  0.00    -0.066 N 
HETATM   19  H           1     -33.691  -3.241  -9.684  0.00  0.00     0.275 HD
HETATM   20  H           1     -32.547  -2.039 -10.081  0.00  0.00     0.275 HD
HETATM   21  H           1     -34.213  -1.665 -10.079  0.00  0.00     0.275 HD
ENDBRANCH  17  18
BRANCH  17  22
HETATM   22  C           1     -33.511  -4.312 -11.850  0.00  0.00     0.017 C 
HETATM   23  C           1     -33.923  -4.951 -10.530  0.00  0.00     0.012 C 
HETATM   24  C           1     -32.081  -4.717 -12.184  0.00  0.00     0.012 C 
ENDBRANCH  17  22
ENDBRANCH   2  17
TORSDOF 7
ENDMDL
MODEL 3
REMARK VINA RESULT:      -6.2      2.052      5.433
REMARK  7 active torsions:
REMARK  status: ('A' for Active; 'I' for Inactive)
REMARK    1  A    between atoms: N_4  and  C_14 
REMARK    2  A    between atoms: N_5  and  C_12 
REMARK       I    between atoms: N_5  and  C_6 
REMARK    3  A    between atoms: C_6  and  C_14 
REMARK    4  A    between atoms: C_9  and  C_12 
REMARK    5  A    between atoms: C_9  and  C_16 
REMARK    6  A    between atoms: C_12  and  C_23 
REMARK    7  A    between atoms: C_14  and  C_17 
ROOT
HETATM    1  N           1     -34.634  -1.505 -12.409  0.00  0.00    -0.344 N 
HETATM    2  C           1     -35.260  -0.400 -12.920  0.00  0.00     0.249 C 
HETATM    3  O           1     -35.074   0.685 -12.421  0.00  0.00    -0.271 OA
HETATM    4  H           1     -33.727  -1.781 -12.762  0.00  0.00     0.163 HD
ENDROOT
BRANCH   1   5
HETATM    5  C           1     -35.271  -2.280 -11.362  0.00  0.00     0.191 C 
BRANCH   5   6
HETATM    6  C           1     -34.211  -2.804 -10.402  0.00  0.00     0.094 C 
BRANCH   6   7
HETATM    7  C           1     -33.910  -4.235 -10.722  0.00  0.00     0.028 A 
HETATM    8  N           1     -34.611  -5.307 -10.233  0.00  0.00    -0.354 N 
HETATM    9  C           1     -34.030  -6.365 -10.750  0.00  0.00     0.180 A 
ATOM     10  HN          1     -35.413  -5.287  -9.603  1.00  0.00     0.166 HD
HETATM   11  N           1     -32.980  -6.018 -11.553  0.00  0.00    -0.360 N 
HETATM   12  H           1     -32.357  -6.678 -12.080  0.00  0.00     0.166 HD
HETATM   13  C           1     -32.891  -4.654 -11.544  0.00  0.00     0.114 A 
ENDBRANCH   6   7
ENDBRANCH   5   6
BRANCH   5  14
HETATM   14  C           1     -36.244  -1.406 -10.611  0.00  0.00     0.197 C 
HETATM   15  O           1     -37.443  -1.360 -10.962  0.00  0.00    -0.646 OA
HETATM   16  O           1     -35.851  -0.727  -9.638  0.00  0.00    -0.646 OA
ENDBRANCH   5  14
ENDBRANCH   1   5
BRANCH   2  17
HETATM   17  C           1     -36.184  -0.537 -14.105  0.00  0.00     0.278 C 
BRANCH  17  18
HETATM   18  N           1     -37.428   0.266 -13.863  0.00  0.00    -0.066 N 
HETATM   19  H           1     -38.262  -0.364 -13.898  0.00  0.00     0.275 HD
HETATM   20  H           1     -37.373   0.719 -12.924  0.00  0.00     0.275 HD
HETATM   21  H           1     -37.517   1.000 -14.602  0.00  0.00     0.275 HD
ENDBRANCH  17  18
BRANCH  17  22
HETATM   22  C           1     -35.486  -0.026 -15.357  0.00  0.00     0.017 C 
HETATM   23  C           1     -35.967   1.385 -15.666  0.00  0.00     0.012 C 
HETATM   24  C           1     -35.812  -0.941 -16.530  0.00  0.00     0.012 C 
ENDBRANCH  17  22
ENDBRANCH   2  17
TORSDOF 7
ENDMDL
MODEL 4
REMARK VINA RESULT:      -5.9      1.854      2.217
REMARK  7 active torsions:
REMARK  status: ('A' for Active; 'I' for Inactive)
REMARK    1  A    between atoms: N_4  and  C_14 
REMARK    2  A    between atoms: N_5  and  C_12 
REMARK       I    between atoms: N_5  and  C_6 
REMARK    3  A    between atoms: C_6  and  C_14 
REMARK    4  A    between atoms: C_9  and  C_12 
REMARK    5  A    between atoms: C_9  and  C_16 
REMARK    6  A    between atoms: C_12  and  C_23 
REMARK    7  A    between atoms: C_14  and  C_17 
ROOT
HETATM    1  N           1     -34.234  -1.884 -12.077  0.00  0.00    -0.344 N 
HETATM    2  C           1     -34.461  -3.023 -12.801  0.00  0.00     0.249 C 
HETATM    3  O           1     -34.349  -3.005 -14.004  0.00  0.00    -0.271 OA
HETATM    4  H           1     -33.305  -1.679 -11.733  0.00  0.00     0.163 HD
ENDROOT
BRANCH   1   5
HETATM    5  C           1     -35.327  -0.970 -11.801  0.00  0.00     0.191 C 
BRANCH   5   6
HETATM    6  C           1     -36.367  -1.075 -12.907  0.00  0.00     0.094 C 
BRANCH   6   7
HETATM    7  C           1     -36.121  -0.008 -13.928  0.00  0.00     0.028 A 
HETATM    8  N           1     -36.839   0.143 -15.086  0.00  0.00    -0.354 N 
HETATM    9  C           1     -36.308   1.182 -15.689  0.00  0.00     0.180 A 
ATOM     10  HN          1     -37.618  -0.430 -15.411  1.00  0.00     0.166 HD
HETATM   11  N           1     -35.276   1.708 -14.966  0.00  0.00    -0.360 N 
HETATM   12  H           1     -34.691   2.539 -15.231  0.00  0.00     0.166 HD
HETATM   13  C           1     -35.144   0.955 -13.832  0.00  0.00     0.114 A 
ENDBRANCH   6   7
ENDBRANCH   5   6
BRANCH   5  14
HETATM   14  C           1     -35.959  -1.328 -10.478  0.00  0.00     0.197 C 
HETATM   15  O           1     -36.852  -2.201 -10.427  0.00  0.00    -0.646 OA
HETATM   16  O           1     -35.589  -0.751  -9.433  0.00  0.00    -0.646 OA
ENDBRANCH   5  14
ENDBRANCH   1   5
BRANCH   2  17
HETATM   17  C           1     -34.851  -4.299 -12.098  0.00  0.00     0.278 C 
BRANCH  17  18
HETATM   18  N           1     -34.904  -5.421 -13.092  0.00  0.00    -0.066 N 
HETATM   19  H           1     -34.289  -5.195 -13.906  0.00  0.00     0.275 HD
HETATM   20  H           1     -34.573  -6.303 -12.641  0.00  0.00     0.275 HD
HETATM   21  H           1     -35.887  -5.545 -13.424  0.00  0.00     0.275 HD
ENDBRANCH  17  18
BRANCH  17  22
HETATM   22  C           1     -33.823  -4.623 -11.023  0.00  0.00     0.017 C 
HETATM   23  C           1     -32.460  -4.831 -11.670  0.00  0.00     0.012 C 
HETATM   24  C           1     -34.236  -5.893 -10.291  0.00  0.00     0.012 C 
ENDBRANCH  17  22
ENDBRANCH   2  17
TORSDOF 7
ENDMDL
MODEL 5
REMARK VINA RESULT:      -5.7     12.976     15.578
REMARK  7 active torsions:
REMARK  status: ('A' for Active; 'I' for Inactive)
REMARK    1  A    between atoms: N_4  and  C_14 
REMARK    2  A    between atoms: N_5  and  C_12 
REMARK       I    between atoms: N_5  and  C_6 
REMARK    3  A    between atoms: C_6  and  C_14 
REMARK    4  A    between atoms: C_9  and  C_12 
REMARK    5  A    between atoms: C_9  and  C_16 
REMARK    6  A    between atoms: C_12  and  C_23 
REMARK    7  A    between atoms: C_14  and  C_17 
ROOT
HETATM    1  N           1     -20.620  -5.321  -6.556  0.00  0.00    -0.344 N 
HETATM    2  C           1     -20.330  -6.606  -6.185  0.00  0.00     0.249 C 
HETATM    3  O           1     -19.240  -7.072  -6.420  0.00  0.00    -0.271 OA
HETATM    4  H           1     -20.437  -4.557  -5.920  0.00  0.00     0.163 HD
ENDROOT
BRANCH   1   5
HETATM    5  C           1     -21.192  -5.056  -7.863  0.00  0.00     0.191 C 
BRANCH   5   6
HETATM    6  C           1     -22.365  -4.097  -7.718  0.00  0.00     0.094 C 
BRANCH   6   7
HETATM    7  C           1     -23.210  -4.150  -8.952  0.00  0.00     0.028 A 
HETATM    8  N           1     -22.995  -4.999 -10.008  0.00  0.00    -0.354 N 
HETATM    9  C           1     -23.947  -4.726 -10.870  0.00  0.00     0.180 A 
ATOM     10  HN          1     -22.254  -5.694 -10.102  1.00  0.00     0.166 HD
HETATM   11  N           1     -24.768  -3.735 -10.414  0.00  0.00    -0.360 N 
HETATM   12  H           1     -25.600  -3.337 -10.915  0.00  0.00     0.166 HD
HETATM   13  C           1     -24.307  -3.355  -9.183  0.00  0.00     0.114 A 
ENDBRANCH   6   7
ENDBRANCH   5   6
BRANCH   5  14
HETATM   14  C           1     -20.142  -4.439  -8.754  0.00  0.00     0.197 C 
HETATM   15  O           1     -20.034  -4.809  -9.943  0.00  0.00    -0.646 OA
HETATM   16  O           1     -19.381  -3.556  -8.303  0.00  0.00    -0.646 OA
ENDBRANCH   5  14
ENDBRANCH   1   5
BRANCH   2  17
HETATM   17  C           1     -21.371  -7.442  -5.481  0.00  0.00     0.278 C 
BRANCH  17  18
HETATM   18  N           1     -21.344  -8.838  -6.029  0.00  0.00    -0.066 N 
HETATM   19  H           1     -21.747  -9.496  -5.324  0.00  0.00     0.275 HD
HETATM   20  H           1     -21.910  -8.879  -6.906  0.00  0.00     0.275 HD
HETATM   21  H           1     -20.357  -9.111  -6.236  0.00  0.00     0.275 HD
ENDBRANCH  17  18
BRANCH  17  22
HETATM   22  C           1     -21.072  -7.476  -3.989  0.00  0.00     0.017 C 
HETATM   23  C           1     -21.459  -8.837  -3.425  0.00  0.00     0.012 C 
HETATM   24  C           1     -21.874  -6.390  -3.284  0.00  0.00     0.012 C 
ENDBRANCH  17  22
ENDBRANCH   2  17
TORSDOF 7
ENDMDL
MODEL 6
REMARK VINA RESULT:      -5.7      1.793      4.946
REMARK  7 active torsions:
REMARK  status: ('A' for Active; 'I' for Inactive)
REMARK    1  A    between atoms: N_4  and  C_14 
REMARK    2  A    between atoms: N_5  and  C_12 
REMARK       I    between atoms: N_5  and  C_6 
REMARK    3  A    between atoms: C_6  and  C_14 
REMARK    4  A    between atoms: C_9  and  C_12 
REMARK    5  A    between atoms: C_9  and  C_16 
REMARK    6  A    between atoms: C_12  and  C_23 
REMARK    7  A    between atoms: C_14  and  C_17 
ROOT
HETATM    1  N           1     -36.830   0.044 -11.841  0.00  0.00    -0.344 N 
HETATM    2  C           1     -36.970  -0.330 -13.150  0.00  0.00     0.249 C 
HETATM    3  O           1     -38.036  -0.734 -13.552  0.00  0.00    -0.271 OA
HETATM    4  H           1     -37.009   1.001 -11.567  0.00  0.00     0.163 HD
ENDROOT
BRANCH   1   5
HETATM    5  C           1     -36.424  -0.931 -10.848  0.00  0.00     0.191 C 
BRANCH   5   6
HETATM    6  C           1     -34.920  -1.150 -10.937  0.00  0.00     0.094 C 
BRANCH   6   7
HETATM    7  C           1     -34.627  -2.618 -10.929  0.00  0.00     0.028 A 
HETATM    8  N           1     -35.580  -3.603 -10.910  0.00  0.00    -0.354 N 
HETATM    9  C           1     -34.911  -4.733 -10.908  0.00  0.00     0.180 A 
ATOM     10  HN          1     -36.594  -3.484 -10.901  1.00  0.00     0.166 HD
HETATM   11  N           1     -33.562  -4.516 -10.924  0.00  0.00    -0.360 N 
HETATM   12  H           1     -32.814  -5.252 -10.926  0.00  0.00     0.166 HD
HETATM   13  C           1     -33.365  -3.163 -10.937  0.00  0.00     0.114 A 
ENDBRANCH   6   7
ENDBRANCH   5   6
BRANCH   5  14
HETATM   14  C           1     -36.779  -0.425  -9.472  0.00  0.00     0.197 C 
HETATM   15  O           1     -37.978  -0.281  -9.148  0.00  0.00    -0.646 OA
HETATM   16  O           1     -35.874  -0.148  -8.655  0.00  0.00    -0.646 OA
ENDBRANCH   5  14
ENDBRANCH   1   5
BRANCH   2  17
HETATM   17  C           1     -35.795  -0.239 -14.091  0.00  0.00     0.278 C 
BRANCH  17  18
HETATM   18  N           1     -35.136  -1.583 -14.199  0.00  0.00    -0.066 N 
HETATM   19  H           1     -35.741  -2.305 -13.746  0.00  0.00     0.275 HD
HETATM   20  H           1     -35.001  -1.824 -15.206  0.00  0.00     0.275 HD
HETATM   21  H           1     -34.209  -1.555 -13.718  0.00  0.00     0.275 HD
ENDBRANCH  17  18
BRANCH  17  22
HETATM   22  C           1     -36.277   0.201 -15.467  0.00  0.00     0.017 C 
HETATM   23  C           1     -35.777  -0.781 -16.518  0.00  0.00     0.012 C 
HETATM   24  C           1     -35.736   1.591 -15.774  0.00  0.00     0.012 C 
ENDBRANCH  17  22
ENDBRANCH   2  17
TORSDOF 7
ENDMDL
MODEL 7
REMARK VINA RESULT:      -5.7     13.789     16.905
REMARK  7 active torsions:
REMARK  status: ('A' for Active; 'I' for Inactive)
REMARK    1  A    between atoms: N_4  and  C_14 
REMARK    2  A    between atoms: N_5  and  C_12 
REMARK       I    between atoms: N_5  and  C_6 
REMARK    3  A    between atoms: C_6  and  C_14 
REMARK    4  A    between atoms: C_9  and  C_12 
REMARK    5  A    between atoms: C_9  and  C_16 
REMARK    6  A    between atoms: C_12  and  C_23 
REMARK    7  A    between atoms: C_14  and  C_17 
ROOT
HETATM    1  N           1     -20.693  -6.266  -6.892  0.00  0.00    -0.344 N 
HETATM    2  C           1     -21.189  -5.019  -7.157  0.00  0.00     0.249 C 
HETATM    3  O           1     -20.830  -4.073  -6.495  0.00  0.00    -0.271 OA
HETATM    4  H           1     -19.851  -6.585  -7.354  0.00  0.00     0.163 HD
ENDROOT
BRANCH   1   5
HETATM    5  C           1     -21.374  -7.132  -5.948  0.00  0.00     0.191 C 
BRANCH   5   6
HETATM    6  C           1     -20.352  -8.003  -5.229  0.00  0.00     0.094 C 
BRANCH   6   7
HETATM    7  C           1     -20.905  -9.384  -5.058  0.00  0.00     0.028 A 
HETATM    8  N           1     -20.829 -10.375  -6.002  0.00  0.00    -0.354 N 
HETATM    9  C           1     -21.427 -11.413  -5.462  0.00  0.00     0.180 A 
ATOM     10  HN          1     -20.400 -10.319  -6.926  1.00  0.00     0.166 HD
HETATM   11  N           1     -21.885 -11.129  -4.207  0.00  0.00    -0.360 N 
HETATM   12  H           1     -22.396 -11.788  -3.568  0.00  0.00     0.166 HD
HETATM   13  C           1     -21.557  -9.830  -3.934  0.00  0.00     0.114 A 
ENDBRANCH   6   7
ENDBRANCH   5   6
BRANCH   5  14
HETATM   14  C           1     -22.116  -6.290  -4.940  0.00  0.00     0.197 C 
HETATM   15  O           1     -21.527  -5.867  -3.921  0.00  0.00    -0.646 OA
HETATM   16  O           1     -23.322  -6.015  -5.124  0.00  0.00    -0.646 OA
ENDBRANCH   5  14
ENDBRANCH   1   5
BRANCH   2  17
HETATM   17  C           1     -22.184  -4.824  -8.274  0.00  0.00     0.278 C 
BRANCH  17  18
HETATM   18  N           1     -23.450  -4.242  -7.720  0.00  0.00    -0.066 N 
HETATM   19  H           1     -23.780  -3.468  -8.341  0.00  0.00     0.275 HD
HETATM   20  H           1     -24.183  -4.985  -7.671  0.00  0.00     0.275 HD
HETATM   21  H           1     -23.269  -3.865  -6.762  0.00  0.00     0.275 HD
ENDBRANCH  17  18
BRANCH  17  22
HETATM   22  C           1     -21.602  -3.876  -9.314  0.00  0.00     0.017 C 
HETATM   23  C           1     -22.653  -3.582 -10.376  0.00  0.00     0.012 C 
HETATM   24  C           1     -20.388  -4.522  -9.968  0.00  0.00     0.012 C 
ENDBRANCH  17  22
ENDBRANCH   2  17
TORSDOF 7
ENDMDL
MODEL 8
REMARK VINA RESULT:      -5.6      5.087      7.572
REMARK  7 active torsions:
REMARK  status: ('A' for Active; 'I' for Inactive)
REMARK    1  A    between atoms: N_4  and  C_14 
REMARK    2  A    between atoms: N_5  and  C_12 
REMARK       I    between atoms: N_5  and  C_6 
REMARK    3  A    between atoms: C_6  and  C_14 
REMARK    4  A    between atoms: C_9  and  C_12 
REMARK    5  A    between atoms: C_9  and  C_16 
REMARK    6  A    between atoms: C_12  and  C_23 
REMARK    7  A    between atoms: C_14  and  C_17 
ROOT
HETATM    1  N           1     -34.035  -4.486 -15.586  0.00  0.00    -0.344 N 
HETATM    2  C           1     -34.232  -3.750 -14.449  0.00  0.00     0.249 C 
HETATM    3  O           1     -34.632  -2.612 -14.528  0.00  0.00    -0.271 OA
HETATM    4  H           1     -34.788  -5.047 -15.963  0.00  0.00     0.163 HD
ENDROOT
BRANCH   1   5
HETATM    5  C           1     -32.745  -4.464 -16.249  0.00  0.00     0.191 C 
BRANCH   5   6
HETATM    6  C           1     -32.521  -5.787 -16.968  0.00  0.00     0.094 C 
BRANCH   6   7
HETATM    7  C           1     -31.072  -6.157 -16.896  0.00  0.00     0.028 A 
HETATM    8  N           1     -30.165  -5.591 -16.038  0.00  0.00    -0.354 N 
HETATM    9  C           1     -29.025  -6.189 -16.296  0.00  0.00     0.180 A 
ATOM     10  HN          1     -30.339  -4.860 -15.347  1.00  0.00     0.166 HD
HETATM   11  N           1     -29.160  -7.119 -17.287  0.00  0.00    -0.360 N 
HETATM   12  H           1     -28.399  -7.730 -17.674  0.00  0.00     0.166 HD
HETATM   13  C           1     -30.469  -7.110 -17.682  0.00  0.00     0.114 A 
ENDBRANCH   6   7
ENDBRANCH   5   6
BRANCH   5  14
HETATM   14  C           1     -32.713  -3.335 -17.248  0.00  0.00     0.197 C 
HETATM   15  O           1     -31.636  -3.012 -17.795  0.00  0.00    -0.646 OA
HETATM   16  O           1     -33.765  -2.721 -17.530  0.00  0.00    -0.646 OA
ENDBRANCH   5  14
ENDBRANCH   1   5
BRANCH   2  17
HETATM   17  C           1     -33.950  -4.358 -13.097  0.00  0.00     0.278 C 
BRANCH  17  18
HETATM   18  N           1     -32.468  -4.493 -12.910  0.00  0.00    -0.066 N 
HETATM   19  H           1     -32.196  -5.499 -12.993  0.00  0.00     0.275 HD
HETATM   20  H           1     -31.972  -3.937 -13.642  0.00  0.00     0.275 HD
HETATM   21  H           1     -32.203  -4.139 -11.963  0.00  0.00     0.275 HD
ENDBRANCH  17  18
BRANCH  17  22
HETATM   22  C           1     -34.519  -3.462 -12.007  0.00  0.00     0.017 C 
HETATM   23  C           1     -33.378  -2.816 -11.233  0.00  0.00     0.012 C 
HETATM   24  C           1     -35.368  -4.295 -11.055  0.00  0.00     0.012 C 
ENDBRANCH  17  22
ENDBRANCH   2  17
TORSDOF 7
ENDMDL
MODEL 9
REMARK VINA RESULT:      -5.3     16.098     18.592
REMARK  7 active torsions:
REMARK  status: ('A' for Active; 'I' for Inactive)
REMARK    1  A    between atoms: N_4  and  C_14 
REMARK    2  A    between atoms: N_5  and  C_12 
REMARK       I    between atoms: N_5  and  C_6 
REMARK    3  A    between atoms: C_6  and  C_14 
REMARK    4  A    between atoms: C_9  and  C_12 
REMARK    5  A    between atoms: C_9  and  C_16 
REMARK    6  A    between atoms: C_12  and  C_23 
REMARK    7  A    between atoms: C_14  and  C_17 
ROOT
HETATM    1  N           1     -21.299  -6.466  -2.979  0.00  0.00    -0.344 N 
HETATM    2  C           1     -21.670  -6.336  -4.290  0.00  0.00     0.249 C 
HETATM    3  O           1     -22.828  -6.136  -4.573  0.00  0.00    -0.271 OA
HETATM    4  H           1     -21.024  -5.650  -2.448  0.00  0.00     0.163 HD
ENDROOT
BRANCH   1   5
HETATM    5  C           1     -21.299  -7.773  -2.352  0.00  0.00     0.191 C 
BRANCH   5   6
HETATM    6  C           1     -19.867  -8.274  -2.223  0.00  0.00     0.094 C 
BRANCH   6   7
HETATM    7  C           1     -19.598  -9.301  -3.279  0.00  0.00     0.028 A 
HETATM    8  N           1     -18.449  -9.371  -4.023  0.00  0.00    -0.354 N 
HETATM    9  C           1     -18.617 -10.399  -4.822  0.00  0.00     0.180 A 
ATOM     10  HN          1     -17.637  -8.755  -3.967  1.00  0.00     0.166 HD
HETATM   11  N           1     -19.829 -10.995  -4.624  0.00  0.00    -0.360 N 
HETATM   12  H           1     -20.201 -11.833  -5.135  0.00  0.00     0.166 HD
HETATM   13  C           1     -20.471 -10.301  -3.636  0.00  0.00     0.114 A 
ENDBRANCH   6   7
ENDBRANCH   5   6
BRANCH   5  14
HETATM   14  C           1     -21.924  -7.674  -0.983  0.00  0.00     0.197 C 
HETATM   15  O           1     -22.776  -6.791  -0.747  0.00  0.00    -0.646 OA
HETATM   16  O           1     -21.589  -8.475  -0.083  0.00  0.00    -0.646 OA
ENDBRANCH   5  14
ENDBRANCH   1   5
BRANCH   2  17
HETATM   17  C           1     -20.634  -6.442  -5.382  0.00  0.00     0.278 C 
BRANCH  17  18
HETATM   18  N           1     -20.882  -7.683  -6.186  0.00  0.00    -0.066 N 
HETATM   19  H           1     -21.824  -8.069  -5.951  0.00  0.00     0.275 HD
HETATM   20  H           1     -20.845  -7.452  -7.204  0.00  0.00     0.275 HD
HETATM   21  H           1     -20.149  -8.394  -5.963  0.00  0.00     0.275 HD
ENDBRANCH  17  18
BRANCH  17  22
HETATM   22  C           1     -20.725  -5.223  -6.290  0.00  0.00     0.017 C 
HETATM   23  C           1     -21.353  -5.625  -7.618  0.00  0.00     0.012 C 
HETATM   24  C           1     -19.328  -4.668  -6.537  0.00  0.00     0.012 C 
ENDBRANCH  17  22
ENDBRANCH   2  17
TORSDOF 7
ENDMDL
