MODEL 1
REMARK VINA RESULT:      -5.8      0.000      0.000
REMARK  8 active torsions:
REMARK  status: ('A' for Active; 'I' for Inactive)
REMARK    1  A    between atoms: C_1  and  C_17 
REMARK    2  A    between atoms: C_1  and  C_2 
REMARK    3  A    between atoms: N_8  and  C_17 
REMARK       I    between atoms: N_8  and  C_9 
REMARK    4  A    between atoms: C_9  and  C_18 
REMARK    5  A    between atoms: C_15  and  C_17 
REMARK    6  A    between atoms: C_18  and  C_19 
REMARK    7  A    between atoms: C_18  and  N_20 
REMARK    8  A    between atoms: C_19  and  S_23 
ROOT
HETATM    1  N           1     -34.620  -0.734 -11.806  0.00  0.00    -0.344 N 
HETATM    2  C           1     -34.488  -2.085 -11.989  0.00  0.00     0.249 C 
HETATM    3  O           1     -34.308  -2.530 -13.097  0.00  0.00    -0.271 OA
HETATM    4  H           1     -33.803  -0.166 -11.625  0.00  0.00     0.163 HD
ENDROOT
BRANCH   1   5
HETATM    5  C           1     -35.931  -0.118 -11.873  0.00  0.00     0.191 C 
BRANCH   5   6
HETATM    6  C           1     -36.706  -0.703 -13.047  0.00  0.00     0.094 C 
BRANCH   6   7
HETATM    7  C           1     -36.605   0.221 -14.220  0.00  0.00     0.028 A 
HETATM    8  C           1     -37.548   0.328 -15.215  0.00  0.00     0.114 A 
HETATM    9  N           1     -37.056   1.275 -16.069  0.00  0.00    -0.360 N 
HETATM   10  C           1     -35.857   1.697 -15.567  0.00  0.00     0.180 A 
HETATM   11  H           1     -37.515   1.617 -16.949  0.00  0.00     0.166 HD
HETATM   12  N           1     -35.559   1.078 -14.450  0.00  0.00    -0.354 N 
ATOM     13  HN          1     -34.726   1.207 -13.875  1.00  0.00     0.166 HD
ENDBRANCH   6   7
ENDBRANCH   5   6
BRANCH   5  14
HETATM   14  C           1     -36.679  -0.391 -10.591  0.00  0.00     0.197 C 
HETATM   15  O           1     -36.264   0.084  -9.512  0.00  0.00    -0.646 OA
HETATM   16  O           1     -37.713  -1.094 -10.607  0.00  0.00    -0.646 OA
ENDBRANCH   5  14
ENDBRANCH   1   5
BRANCH   2  17
HETATM   17  C           1     -34.570  -3.018 -10.805  0.00  0.00     0.283 C 
BRANCH  17  18
HETATM   18  C           1     -33.434  -4.031 -10.877  0.00  0.00     0.113 C 
BRANCH  18  19
HETATM   19  S           1     -34.122  -5.710 -10.916  0.00  0.00    -0.180 SA
HETATM   20  H           1     -34.978  -5.487 -11.929  0.00  0.00     0.101 HD
ENDBRANCH  18  19
ENDBRANCH  17  18
BRANCH  17  21
HETATM   21  N           1     -35.884  -3.738 -10.827  0.00  0.00    -0.066 N 
HETATM   22  H           1     -36.487  -3.342 -11.585  0.00  0.00     0.275 HD
HETATM   23  H           1     -35.722  -4.754 -11.006  0.00  0.00     0.275 HD
HETATM   24  H           1     -36.363  -3.618  -9.905  0.00  0.00     0.275 HD
ENDBRANCH  17  21
ENDBRANCH   2  17
TORSDOF 8
ENDMDL
MODEL 2
REMARK VINA RESULT:      -5.8      2.507      5.562
REMARK  8 active torsions:
REMARK  status: ('A' for Active; 'I' for Inactive)
REMARK    1  A    between atoms: C_1  and  C_17 
REMARK    2  A    between atoms: C_1  and  C_2 
REMARK    3  A    between atoms: N_8  and  C_17 
REMARK       I    between atoms: N_8  and  C_9 
REMARK    4  A    between atoms: C_9  and  C_18 
REMARK    5  A    between atoms: C_15  and  C_17 
REMARK    6  A    between atoms: C_18  and  C_19 
REMARK    7  A    between atoms: C_18  and  N_20 
REMARK    8  A    between atoms: C_19  and  S_23 
ROOT
HETATM    1  N           1     -34.784  -1.454 -12.584  0.00  0.00    -0.344 N 
HETATM    2  C           1     -35.461  -0.334 -12.987  0.00  0.00     0.249 C 
HETATM    3  O           1     -35.195   0.740 -12.501  0.00  0.00    -0.271 OA
HETATM    4  H           1     -33.938  -1.733 -13.064  0.00  0.00     0.163 HD
ENDROOT
BRANCH   1   5
HETATM    5  C           1     -35.280  -2.241 -11.471  0.00  0.00     0.191 C 
BRANCH   5   6
HETATM    6  C           1     -34.109  -2.687 -10.605  0.00  0.00     0.094 C 
BRANCH   6   7
HETATM    7  C           1     -33.838  -4.139 -10.844  0.00  0.00     0.028 A 
HETATM    8  C           1     -32.812  -4.626 -11.619  0.00  0.00     0.114 A 
HETATM    9  N           1     -32.938  -5.986 -11.560  0.00  0.00    -0.360 N 
HETATM   10  C           1     -34.013  -6.264 -10.766  0.00  0.00     0.180 A 
HETATM   11  H           1     -32.320  -6.688 -12.036  0.00  0.00     0.166 HD
HETATM   12  N           1     -34.577  -5.167 -10.318  0.00  0.00    -0.354 N 
ATOM     13  HN          1     -35.392  -5.095  -9.708  1.00  0.00     0.166 HD
ENDBRANCH   6   7
ENDBRANCH   5   6
BRANCH   5  14
HETATM   14  C           1     -36.226  -1.402 -10.647  0.00  0.00     0.197 C 
HETATM   15  O           1     -35.786  -0.702  -9.709  0.00  0.00    -0.646 OA
HETATM   16  O           1     -37.451  -1.408 -10.901  0.00  0.00    -0.646 OA
ENDBRANCH   5  14
ENDBRANCH   1   5
BRANCH   2  17
HETATM   17  C           1     -36.542  -0.441 -14.035  0.00  0.00     0.283 C 
BRANCH  17  18
HETATM   18  C           1     -36.075   0.237 -15.317  0.00  0.00     0.113 C 
BRANCH  18  19
HETATM   19  S           1     -35.705  -1.024 -16.569  0.00  0.00    -0.180 SA
HETATM   20  H           1     -34.759  -0.313 -17.208  0.00  0.00     0.101 HD
ENDBRANCH  18  19
ENDBRANCH  17  18
BRANCH  17  21
HETATM   21  N           1     -37.787   0.231 -13.539  0.00  0.00    -0.066 N 
HETATM   22  H           1     -38.532  -0.487 -13.382  0.00  0.00     0.275 HD
HETATM   23  H           1     -37.583   0.722 -12.640  0.00  0.00     0.275 HD
HETATM   24  H           1     -38.116   0.924 -14.249  0.00  0.00     0.275 HD
ENDBRANCH  17  21
ENDBRANCH   2  17
TORSDOF 8
ENDMDL
MODEL 3
REMARK VINA RESULT:      -5.4      7.966      9.378
REMARK  8 active torsions:
REMARK  status: ('A' for Active; 'I' for Inactive)
REMARK    1  A    between atoms: C_1  and  C_17 
REMARK    2  A    between atoms: C_1  and  C_2 
REMARK    3  A    between atoms: N_8  and  C_17 
REMARK       I    between atoms: N_8  and  C_9 
REMARK    4  A    between atoms: C_9  and  C_18 
REMARK    5  A    between atoms: C_15  and  C_17 
REMARK    6  A    between atoms: C_18  and  C_19 
REMARK    7  A    between atoms: C_18  and  N_20 
REMARK    8  A    between atoms: C_19  and  S_23 
ROOT
HETATM    1  N           1     -29.057  -5.673 -15.665  0.00  0.00    -0.344 N 
HETATM    2  C           1     -27.845  -5.408 -16.245  0.00  0.00     0.249 C 
HETATM    3  O           1     -27.510  -4.265 -16.448  0.00  0.00    -0.271 OA
HETATM    4  H           1     -29.133  -5.740 -14.659  0.00  0.00     0.163 HD
ENDROOT
BRANCH   1   5
HETATM    5  C           1     -30.233  -5.857 -16.495  0.00  0.00     0.191 C 
BRANCH   5   6
HETATM    6  C           1     -30.578  -4.543 -17.182  0.00  0.00     0.094 C 
BRANCH   6   7
HETATM    7  C           1     -31.990  -4.166 -16.858  0.00  0.00     0.028 A 
HETATM    8  C           1     -32.776  -3.342 -17.627  0.00  0.00     0.114 A 
HETATM    9  N           1     -33.971  -3.273 -16.966  0.00  0.00    -0.360 N 
HETATM   10  C           1     -33.863  -4.045 -15.844  0.00  0.00     0.180 A 
HETATM   11  H           1     -34.817  -2.729 -17.265  0.00  0.00     0.166 HD
HETATM   12  N           1     -32.677  -4.598 -15.752  0.00  0.00    -0.354 N 
ATOM     13  HN          1     -32.339  -5.217 -15.016  1.00  0.00     0.166 HD
ENDBRANCH   6   7
ENDBRANCH   5   6
BRANCH   5  14
HETATM   14  C           1     -29.950  -6.911 -17.536  0.00  0.00     0.197 C 
HETATM   15  O           1     -29.917  -8.118 -17.213  0.00  0.00    -0.646 OA
HETATM   16  O           1     -29.748  -6.578 -18.725  0.00  0.00    -0.646 OA
ENDBRANCH   5  14
ENDBRANCH   1   5
BRANCH   2  17
HETATM   17  C           1     -26.929  -6.543 -16.631  0.00  0.00     0.283 C 
BRANCH  17  18
HETATM   18  C           1     -25.647  -6.462 -15.813  0.00  0.00     0.113 C 
BRANCH  18  19
HETATM   19  S           1     -24.356  -7.460 -16.610  0.00  0.00    -0.180 SA
HETATM   20  H           1     -24.257  -6.702 -17.716  0.00  0.00     0.101 HD
ENDBRANCH  18  19
ENDBRANCH  17  18
BRANCH  17  21
HETATM   21  N           1     -26.599  -6.444 -18.090  0.00  0.00    -0.066 N 
HETATM   22  H           1     -27.050  -5.591 -18.493  0.00  0.00     0.275 HD
HETATM   23  H           1     -25.563  -6.378 -18.209  0.00  0.00     0.275 HD
HETATM   24  H           1     -26.954  -7.293 -18.587  0.00  0.00     0.275 HD
ENDBRANCH  17  21
ENDBRANCH   2  17
TORSDOF 8
ENDMDL
MODEL 4
REMARK VINA RESULT:      -5.4     14.383     15.837
REMARK  8 active torsions:
REMARK  status: ('A' for Active; 'I' for Inactive)
REMARK    1  A    between atoms: C_1  and  C_17 
REMARK    2  A    between atoms: C_1  and  C_2 
REMARK    3  A    between atoms: N_8  and  C_17 
REMARK       I    between atoms: N_8  and  C_9 
REMARK    4  A    between atoms: C_9  and  C_18 
REMARK    5  A    between atoms: C_15  and  C_17 
REMARK    6  A    between atoms: C_18  and  C_19 
REMARK    7  A    between atoms: C_18  and  N_20 
REMARK    8  A    between atoms: C_19  and  S_23 
ROOT
HETATM    1  N           1     -22.118  -4.856  -6.261  0.00  0.00    -0.344 N 
HETATM    2  C           1     -21.350  -5.512  -5.337  0.00  0.00     0.249 C 
HETATM    3  O           1     -20.363  -4.983  -4.885  0.00  0.00    -0.271 OA
HETATM    4  H           1     -22.883  -4.267  -5.957  0.00  0.00     0.163 HD
ENDROOT
BRANCH   1   5
HETATM    5  C           1     -21.834  -5.003  -7.676  0.00  0.00     0.191 C 
BRANCH   5   6
HETATM    6  C           1     -22.436  -3.829  -8.438  0.00  0.00     0.094 C 
BRANCH   6   7
HETATM    7  C           1     -22.373  -4.104  -9.908  0.00  0.00     0.028 A 
HETATM    8  C           1     -23.321  -4.807 -10.613  0.00  0.00     0.114 A 
HETATM    9  N           1     -22.868  -4.816 -11.903  0.00  0.00    -0.360 N 
HETATM   10  C           1     -21.686  -4.131 -11.928  0.00  0.00     0.180 A 
HETATM   11  H           1     -23.341  -5.266 -12.725  0.00  0.00     0.166 HD
HETATM   12  N           1     -21.362  -3.688 -10.736  0.00  0.00    -0.354 N 
ATOM     13  HN          1     -20.534  -3.150 -10.480  1.00  0.00     0.166 HD
ENDBRANCH   6   7
ENDBRANCH   5   6
BRANCH   5  14
HETATM   14  C           1     -20.340  -5.027  -7.887  0.00  0.00     0.197 C 
HETATM   15  O           1     -19.736  -6.119  -7.961  0.00  0.00    -0.646 OA
HETATM   16  O           1     -19.705  -3.954  -7.987  0.00  0.00    -0.646 OA
ENDBRANCH   5  14
ENDBRANCH   1   5
BRANCH   2  17
HETATM   17  C           1     -21.737  -6.899  -4.884  0.00  0.00     0.283 C 
BRANCH  17  18
HETATM   18  C           1     -21.106  -7.185  -3.527  0.00  0.00     0.113 C 
BRANCH  18  19
HETATM   19  S           1     -22.100  -6.408  -2.222  0.00  0.00    -0.180 SA
HETATM   20  H           1     -21.534  -7.074  -1.200  0.00  0.00     0.101 HD
ENDBRANCH  18  19
ENDBRANCH  17  18
BRANCH  17  21
HETATM   21  N           1     -21.249  -7.905  -5.883  0.00  0.00    -0.066 N 
HETATM   22  H           1     -20.537  -8.526  -5.435  0.00  0.00     0.275 HD
HETATM   23  H           1     -22.053  -8.482  -6.217  0.00  0.00     0.275 HD
HETATM   24  H           1     -20.815  -7.408  -6.694  0.00  0.00     0.275 HD
ENDBRANCH  17  21
ENDBRANCH   2  17
TORSDOF 8
ENDMDL
MODEL 5
REMARK VINA RESULT:      -5.3     13.722     15.938
REMARK  8 active torsions:
REMARK  status: ('A' for Active; 'I' for Inactive)
REMARK    1  A    between atoms: C_1  and  C_17 
REMARK    2  A    between atoms: C_1  and  C_2 
REMARK    3  A    between atoms: N_8  and  C_17 
REMARK       I    between atoms: N_8  and  C_9 
REMARK    4  A    between atoms: C_9  and  C_18 
REMARK    5  A    between atoms: C_15  and  C_17 
REMARK    6  A    between atoms: C_18  and  C_19 
REMARK    7  A    between atoms: C_18  and  N_20 
REMARK    8  A    between atoms: C_19  and  S_23 
ROOT
HETATM    1  N           1     -22.206  -5.573  -5.694  0.00  0.00    -0.344 N 
HETATM    2  C           1     -21.596  -6.388  -4.778  0.00  0.00     0.249 C 
HETATM    3  O           1     -20.808  -5.925  -3.987  0.00  0.00    -0.271 OA
HETATM    4  H           1     -23.085  -5.127  -5.466  0.00  0.00     0.163 HD
ENDROOT
BRANCH   1   5
HETATM    5  C           1     -21.592  -5.349  -6.988  0.00  0.00     0.191 C 
BRANCH   5   6
HETATM    6  C           1     -21.938  -3.948  -7.476  0.00  0.00     0.094 C 
BRANCH   6   7
HETATM    7  C           1     -22.851  -4.043  -8.658  0.00  0.00     0.028 A 
HETATM    8  C           1     -22.487  -4.533  -9.890  0.00  0.00     0.114 A 
HETATM    9  N           1     -23.614  -4.435 -10.658  0.00  0.00    -0.360 N 
HETATM   10  C           1     -24.598  -3.901  -9.875  0.00  0.00     0.180 A 
HETATM   11  H           1     -23.707  -4.720 -11.664  0.00  0.00     0.166 HD
HETATM   12  N           1     -24.166  -3.654  -8.661  0.00  0.00    -0.354 N 
ATOM     13  HN          1     -24.696  -3.257  -7.885  1.00  0.00     0.166 HD
ENDBRANCH   6   7
ENDBRANCH   5   6
BRANCH   5  14
HETATM   14  C           1     -20.095  -5.483  -6.863  0.00  0.00     0.197 C 
HETATM   15  O           1     -19.410  -4.514  -6.471  0.00  0.00    -0.646 OA
HETATM   16  O           1     -19.538  -6.565  -7.152  0.00  0.00    -0.646 OA
ENDBRANCH   5  14
ENDBRANCH   1   5
BRANCH   2  17
HETATM   17  C           1     -21.905  -7.865  -4.758  0.00  0.00     0.283 C 
BRANCH  17  18
HETATM   18  C           1     -21.574  -8.435  -3.385  0.00  0.00     0.113 C 
BRANCH  18  19
HETATM   19  S           1     -21.648 -10.248  -3.447  0.00  0.00    -0.180 SA
HETATM   20  H           1     -20.623 -10.400  -4.304  0.00  0.00     0.101 HD
ENDBRANCH  18  19
ENDBRANCH  17  18
BRANCH  17  21
HETATM   21  N           1     -21.082  -8.561  -5.800  0.00  0.00    -0.066 N 
HETATM   22  H           1     -20.077  -8.293  -5.688  0.00  0.00     0.275 HD
HETATM   23  H           1     -21.180  -9.595  -5.688  0.00  0.00     0.275 HD
HETATM   24  H           1     -21.412  -8.280  -6.751  0.00  0.00     0.275 HD
ENDBRANCH  17  21
ENDBRANCH   2  17
TORSDOF 8
ENDMDL
MODEL 6
REMARK VINA RESULT:      -5.1     16.901     18.570
REMARK  8 active torsions:
REMARK  status: ('A' for Active; 'I' for Inactive)
REMARK    1  A    between atoms: C_1  and  C_17 
REMARK    2  A    between atoms: C_1  and  C_2 
REMARK    3  A    between atoms: N_8  and  C_17 
REMARK       I    between atoms: N_8  and  C_9 
REMARK    4  A    between atoms: C_9  and  C_18 
REMARK    5  A    between atoms: C_15  and  C_17 
REMARK    6  A    between atoms: C_18  and  C_19 
REMARK    7  A    between atoms: C_18  and  N_20 
REMARK    8  A    between atoms: C_19  and  S_23 
ROOT
HETATM    1  N           1     -20.840  -7.519  -5.964  0.00  0.00    -0.344 N 
HETATM    2  C           1     -20.331  -6.405  -6.578  0.00  0.00     0.249 C 
HETATM    3  O           1     -19.439  -6.514  -7.384  0.00  0.00    -0.271 OA
HETATM    4  H           1     -21.619  -8.013  -6.380  0.00  0.00     0.163 HD
ENDROOT
BRANCH   1   5
HETATM    5  C           1     -20.263  -7.990  -4.720  0.00  0.00     0.191 C 
BRANCH   5   6
HETATM    6  C           1     -21.353  -8.619  -3.863  0.00  0.00     0.094 C 
BRANCH   6   7
HETATM    7  C           1     -21.743  -7.668  -2.775  0.00  0.00     0.028 A 
HETATM    8  C           1     -21.972  -6.325  -2.955  0.00  0.00     0.114 A 
HETATM    9  N           1     -22.297  -5.851  -1.714  0.00  0.00    -0.360 N 
HETATM   10  C           1     -22.252  -6.906  -0.848  0.00  0.00     0.180 A 
HETATM   11  H           1     -22.537  -4.858  -1.472  0.00  0.00     0.166 HD
HETATM   12  N           1     -21.921  -8.018  -1.460  0.00  0.00    -0.354 N 
ATOM     13  HN          1     -21.818  -8.945  -1.047  1.00  0.00     0.166 HD
ENDBRANCH   6   7
ENDBRANCH   5   6
BRANCH   5  14
HETATM   14  C           1     -19.200  -9.018  -5.019  0.00  0.00     0.197 C 
HETATM   15  O           1     -18.232  -9.162  -4.241  0.00  0.00    -0.646 OA
HETATM   16  O           1     -19.287  -9.727  -6.046  0.00  0.00    -0.646 OA
ENDBRANCH   5  14
ENDBRANCH   1   5
BRANCH   2  17
HETATM   17  C           1     -20.884  -5.041  -6.244  0.00  0.00     0.283 C 
BRANCH  17  18
HETATM   18  C           1     -20.862  -4.165  -7.490  0.00  0.00     0.113 C 
BRANCH  18  19
HETATM   19  S           1     -22.483  -4.230  -8.305  0.00  0.00    -0.180 SA
HETATM   20  H           1     -23.058  -3.278  -7.549  0.00  0.00     0.101 HD
ENDBRANCH  18  19
ENDBRANCH  17  18
BRANCH  17  21
HETATM   21  N           1     -20.044  -4.410  -5.175  0.00  0.00    -0.066 N 
HETATM   22  H           1     -19.749  -5.140  -4.486  0.00  0.00     0.275 HD
HETATM   23  H           1     -19.198  -3.977  -5.607  0.00  0.00     0.275 HD
HETATM   24  H           1     -20.601  -3.674  -4.683  0.00  0.00     0.275 HD
ENDBRANCH  17  21
ENDBRANCH   2  17
TORSDOF 8
ENDMDL
MODEL 7
REMARK VINA RESULT:      -4.9     14.969     17.479
REMARK  8 active torsions:
REMARK  status: ('A' for Active; 'I' for Inactive)
REMARK    1  A    between atoms: C_1  and  C_17 
REMARK    2  A    between atoms: C_1  and  C_2 
REMARK    3  A    between atoms: N_8  and  C_17 
REMARK       I    between atoms: N_8  and  C_9 
REMARK    4  A    between atoms: C_9  and  C_18 
REMARK    5  A    between atoms: C_15  and  C_17 
REMARK    6  A    between atoms: C_18  and  C_19 
REMARK    7  A    between atoms: C_18  and  N_20 
REMARK    8  A    between atoms: C_19  and  S_23 
ROOT
HETATM    1  N           1     -20.565  -6.411  -6.719  0.00  0.00    -0.344 N 
HETATM    2  C           1     -20.980  -5.140  -7.018  0.00  0.00     0.249 C 
HETATM    3  O           1     -20.632  -4.213  -6.327  0.00  0.00    -0.271 OA
HETATM    4  H           1     -19.706  -6.768  -7.114  0.00  0.00     0.163 HD
ENDROOT
BRANCH   1   5
HETATM    5  C           1     -21.358  -7.243  -5.834  0.00  0.00     0.191 C 
BRANCH   5   6
HETATM    6  C           1     -20.435  -8.149  -5.030  0.00  0.00     0.094 C 
BRANCH   6   7
HETATM    7  C           1     -20.990  -9.539  -5.016  0.00  0.00     0.028 A 
HETATM    8  C           1     -21.726 -10.077  -3.987  0.00  0.00     0.114 A 
HETATM    9  N           1     -22.021 -11.350  -4.391  0.00  0.00    -0.360 N 
HETATM   10  C           1     -21.463 -11.529  -5.624  0.00  0.00     0.180 A 
HETATM   11  H           1     -22.576 -12.060  -3.852  0.00  0.00     0.166 HD
HETATM   12  N           1     -20.833 -10.451  -6.028  0.00  0.00    -0.354 N 
ATOM     13  HN          1     -20.334 -10.319  -6.908  1.00  0.00     0.166 HD
ENDBRANCH   6   7
ENDBRANCH   5   6
BRANCH   5  14
HETATM   14  C           1     -22.147  -6.365  -4.894  0.00  0.00     0.197 C 
HETATM   15  O           1     -21.640  -5.988  -3.816  0.00  0.00    -0.646 OA
HETATM   16  O           1     -23.311  -6.016  -5.193  0.00  0.00    -0.646 OA
ENDBRANCH   5  14
ENDBRANCH   1   5
BRANCH   2  17
HETATM   17  C           1     -21.873  -4.899  -8.210  0.00  0.00     0.283 C 
BRANCH  17  18
HETATM   18  C           1     -21.099  -4.139  -9.279  0.00  0.00     0.113 C 
BRANCH  18  19
HETATM   19  S           1     -22.163  -3.879 -10.727  0.00  0.00    -0.180 SA
HETATM   20  H           1     -23.324  -4.116 -10.092  0.00  0.00     0.101 HD
ENDBRANCH  18  19
ENDBRANCH  17  18
BRANCH  17  21
HETATM   21  N           1     -23.064  -4.094  -7.787  0.00  0.00    -0.066 N 
HETATM   22  H           1     -23.036  -3.157  -8.251  0.00  0.00     0.275 HD
HETATM   23  H           1     -23.939  -4.593  -8.064  0.00  0.00     0.275 HD
HETATM   24  H           1     -23.049  -3.968  -6.749  0.00  0.00     0.275 HD
ENDBRANCH  17  21
ENDBRANCH   2  17
TORSDOF 8
ENDMDL
MODEL 8
REMARK VINA RESULT:      -4.9     17.366     18.501
REMARK  8 active torsions:
REMARK  status: ('A' for Active; 'I' for Inactive)
REMARK    1  A    between atoms: C_1  and  C_17 
REMARK    2  A    between atoms: C_1  and  C_2 
REMARK    3  A    between atoms: N_8  and  C_17 
REMARK       I    between atoms: N_8  and  C_9 
REMARK    4  A    between atoms: C_9  and  C_18 
REMARK    5  A    between atoms: C_15  and  C_17 
REMARK    6  A    between atoms: C_18  and  C_19 
REMARK    7  A    between atoms: C_18  and  N_20 
REMARK    8  A    between atoms: C_19  and  S_23 
ROOT
HETATM    1  N           1     -21.385  -8.922  -3.489  0.00  0.00    -0.344 N 
HETATM    2  C           1     -20.284  -9.732  -3.576  0.00  0.00     0.249 C 
HETATM    3  O           1     -19.707 -10.077  -2.572  0.00  0.00    -0.271 OA
HETATM    4  H           1     -22.307  -9.330  -3.405  0.00  0.00     0.163 HD
ENDROOT
BRANCH   1   5
HETATM    5  C           1     -21.229  -7.480  -3.518  0.00  0.00     0.191 C 
BRANCH   5   6
HETATM    6  C           1     -22.027  -6.908  -4.682  0.00  0.00     0.094 C 
BRANCH   6   7
HETATM    7  C           1     -21.100  -6.202  -5.622  0.00  0.00     0.028 A 
HETATM    8  C           1     -20.455  -5.020  -5.344  0.00  0.00     0.114 A 
HETATM    9  N           1     -19.724  -4.743  -6.465  0.00  0.00    -0.360 N 
HETATM   10  C           1     -19.950  -5.748  -7.361  0.00  0.00     0.180 A 
HETATM   11  H           1     -19.102  -3.910  -6.611  0.00  0.00     0.166 HD
HETATM   12  N           1     -20.778  -6.645  -6.879  0.00  0.00    -0.354 N 
ATOM     13  HN          1     -21.110  -7.492  -7.341  1.00  0.00     0.166 HD
ENDBRANCH   6   7
ENDBRANCH   5   6
BRANCH   5  14
HETATM   14  C           1     -21.737  -6.896  -2.223  0.00  0.00     0.197 C 
HETATM   15  O           1     -22.412  -5.844  -2.234  0.00  0.00    -0.646 OA
HETATM   16  O           1     -21.482  -7.463  -1.138  0.00  0.00    -0.646 OA
ENDBRANCH   5  14
ENDBRANCH   1   5
BRANCH   2  17
HETATM   17  C           1     -19.789 -10.191  -4.926  0.00  0.00     0.283 C 
BRANCH  17  18
HETATM   18  C           1     -18.663  -9.277  -5.392  0.00  0.00     0.113 C 
BRANCH  18  19
HETATM   19  S           1     -17.119 -10.226  -5.500  0.00  0.00    -0.180 SA
HETATM   20  H           1     -16.603  -9.536  -6.532  0.00  0.00     0.101 HD
ENDBRANCH  18  19
ENDBRANCH  17  18
BRANCH  17  21
HETATM   21  N           1     -20.916 -10.140  -5.914  0.00  0.00    -0.066 N 
HETATM   22  H           1     -20.715 -10.792  -6.706  0.00  0.00     0.275 HD
HETATM   23  H           1     -21.804 -10.426  -5.445  0.00  0.00     0.275 HD
HETATM   24  H           1     -21.013  -9.166  -6.282  0.00  0.00     0.275 HD
ENDBRANCH  17  21
ENDBRANCH   2  17
TORSDOF 8
ENDMDL
MODEL 9
REMARK VINA RESULT:      -4.9      2.726      3.921
REMARK  8 active torsions:
REMARK  status: ('A' for Active; 'I' for Inactive)
REMARK    1  A    between atoms: C_1  and  C_17 
REMARK    2  A    between atoms: C_1  and  C_2 
REMARK    3  A    between atoms: N_8  and  C_17 
REMARK       I    between atoms: N_8  and  C_9 
REMARK    4  A    between atoms: C_9  and  C_18 
REMARK    5  A    between atoms: C_15  and  C_17 
REMARK    6  A    between atoms: C_18  and  C_19 
REMARK    7  A    between atoms: C_18  and  N_20 
REMARK    8  A    between atoms: C_19  and  S_23 
ROOT
HETATM    1  N           1     -34.532  -1.909 -12.250  0.00  0.00    -0.344 N 
HETATM    2  C           1     -34.443  -3.173 -12.768  0.00  0.00     0.249 C 
HETATM    3  O           1     -33.902  -3.353 -13.833  0.00  0.00    -0.271 OA
HETATM    4  H           1     -33.798  -1.557 -11.648  0.00  0.00     0.163 HD
ENDROOT
BRANCH   1   5
HETATM    5  C           1     -35.676  -1.075 -12.563  0.00  0.00     0.191 C 
BRANCH   5   6
HETATM    6  C           1     -35.613   0.203 -11.736  0.00  0.00     0.094 C 
BRANCH   6   7
HETATM    7  C           1     -36.455   0.046 -10.509  0.00  0.00     0.028 A 
HETATM    8  C           1     -37.024   1.085  -9.813  0.00  0.00     0.114 A 
HETATM    9  N           1     -37.696   0.494  -8.779  0.00  0.00    -0.360 N 
HETATM   10  C           1     -37.512  -0.855  -8.889  0.00  0.00     0.180 A 
HETATM   11  H           1     -38.253   0.985  -8.038  0.00  0.00     0.166 HD
HETATM   12  N           1     -36.766  -1.156  -9.926  0.00  0.00    -0.354 N 
ATOM     13  HN          1     -36.479  -2.086 -10.233  1.00  0.00     0.166 HD
ENDBRANCH   6   7
ENDBRANCH   5   6
BRANCH   5  14
HETATM   14  C           1     -35.656  -0.727 -14.030  0.00  0.00     0.197 C 
HETATM   15  O           1     -34.658  -0.161 -14.526  0.00  0.00    -0.646 OA
HETATM   16  O           1     -36.640  -1.003 -14.752  0.00  0.00    -0.646 OA
ENDBRANCH   5  14
ENDBRANCH   1   5
BRANCH   2  17
HETATM   17  C           1     -35.024  -4.342 -12.011  0.00  0.00     0.283 C 
BRANCH  17  18
HETATM   18  C           1     -34.237  -4.555 -10.724  0.00  0.00     0.113 C 
BRANCH  18  19
HETATM   19  S           1     -34.316  -6.305 -10.248  0.00  0.00    -0.180 SA
HETATM   20  H           1     -35.132  -6.127  -9.195  0.00  0.00     0.101 HD
ENDBRANCH  18  19
ENDBRANCH  17  18
BRANCH  17  21
HETATM   21  N           1     -34.942  -5.576 -12.857  0.00  0.00    -0.066 N 
HETATM   22  H           1     -35.791  -5.641 -13.464  0.00  0.00     0.275 HD
HETATM   23  H           1     -34.088  -5.531 -13.457  0.00  0.00     0.275 HD
HETATM   24  H           1     -34.891  -6.419 -12.240  0.00  0.00     0.275 HD
ENDBRANCH  17  21
ENDBRANCH   2  17
TORSDOF 8
ENDMDL
