MODEL 1
REMARK VINA RESULT:      -7.4      0.000      0.000
REMARK  10 active torsions:
REMARK  status: ('A' for Active; 'I' for Inactive)
REMARK    1  A    between atoms: O_2  and  C_16 
REMARK    2  A    between atoms: O_2  and  P_7 
REMARK    3  A    between atoms: N_6  and  C_22 
REMARK    4  A    between atoms: P_7  and  O_9 
REMARK    5  A    between atoms: C_14  and  C_27 
REMARK    6  A    between atoms: C_14  and  C_16 
REMARK    7  A    between atoms: C_14  and  N_19 
REMARK       I    between atoms: N_19  and  C_21 
REMARK    8  A    between atoms: C_20  and  C_22 
REMARK    9  A    between atoms: C_20  and  C_25 
REMARK   10  A    between atoms: C_21  and  C_22 
ROOT
HETATM    1  O           1     -33.646  -2.306 -11.018  0.00  0.00    -0.271 OA
HETATM    2  N           1     -34.931  -1.829 -12.782  0.00  0.00    -0.343 N 
HETATM    3  C           1     -34.210  -2.701 -12.011  0.00  0.00     0.249 C 
HETATM    4  H           1     -35.403  -2.161 -13.614  0.00  0.00     0.163 HD
ENDROOT
BRANCH   3   5
HETATM    5  C           1     -34.119  -4.155 -12.402  0.00  0.00     0.280 C 
BRANCH   5   6
HETATM    6  N           1     -33.656  -4.262 -13.825  0.00  0.00    -0.066 N 
HETATM    7  H           1     -34.474  -4.461 -14.445  0.00  0.00     0.275 HD
HETATM    8  H           1     -33.212  -3.362 -14.115  0.00  0.00     0.275 HD
HETATM    9  H           1     -32.961  -5.037 -13.908  0.00  0.00     0.275 HD
ENDBRANCH   5   6
BRANCH   5  10
HETATM   10  C           1     -33.125  -4.865 -11.493  0.00  0.00     0.101 C 
BRANCH  10  11
HETATM   11  C           1     -33.805  -6.006 -10.803  0.00  0.00     0.028 A 
HETATM   12  N           1     -33.336  -7.295 -10.781  0.00  0.00    -0.355 N 
HETATM   13  C           1     -34.215  -7.971 -10.080  0.00  0.00     0.180 A 
ATOM     14  HN          1     -32.486  -7.651 -11.216  1.00  0.00     0.166 HD
HETATM   15  N           1     -35.234  -7.170  -9.647  0.00  0.00    -0.360 N 
HETATM   16  C           1     -34.984  -5.906 -10.103  0.00  0.00     0.114 A 
HETATM   17  H           1     -36.058  -7.470  -9.069  0.00  0.00     0.166 HD
ENDBRANCH  10  11
ENDBRANCH   5  10
ENDBRANCH   3   5
BRANCH   2  18
HETATM   18  C           1     -35.019  -0.432 -12.406  0.00  0.00     0.210 C 
BRANCH  18  19
HETATM   19  C           1     -36.317  -0.187 -11.678  0.00  0.00     0.198 C 
HETATM   20  O           1     -36.313   0.389 -10.568  0.00  0.00    -0.646 OA
HETATM   21  O           1     -37.397  -0.559 -12.184  0.00  0.00    -0.646 OA
ENDBRANCH  18  19
BRANCH  18  22
HETATM   22  C           1     -34.969   0.435 -13.658  0.00  0.00     0.217 C 
BRANCH  22  23
HETATM   23  O           1     -35.030  -0.383 -14.795  0.00  0.00    -0.287 OA
BRANCH  23  24
HETATM   24  P           1     -36.301  -0.151 -15.766  0.00  0.00     0.406 P 
HETATM   25  O           1     -36.088  -0.875 -17.039  0.00  0.00    -0.624 OA
HETATM   26  O           1     -36.453   1.295 -16.041  0.00  0.00    -0.624 OA
BRANCH  24  27
HETATM   27  O           1     -37.635  -0.707 -15.047  0.00  0.00    -0.300 OA
HETATM   28  H           1     -37.486  -1.629 -14.934  0.00  0.00     0.223 HD
ENDBRANCH  24  27
ENDBRANCH  23  24
ENDBRANCH  22  23
ENDBRANCH  18  22
ENDBRANCH   2  18
TORSDOF 10
ENDMDL
MODEL 2
REMARK VINA RESULT:      -7.2      9.486     11.559
REMARK  10 active torsions:
REMARK  status: ('A' for Active; 'I' for Inactive)
REMARK    1  A    between atoms: O_2  and  C_16 
REMARK    2  A    between atoms: O_2  and  P_7 
REMARK    3  A    between atoms: N_6  and  C_22 
REMARK    4  A    between atoms: P_7  and  O_9 
REMARK    5  A    between atoms: C_14  and  C_27 
REMARK    6  A    between atoms: C_14  and  C_16 
REMARK    7  A    between atoms: C_14  and  N_19 
REMARK       I    between atoms: N_19  and  C_21 
REMARK    8  A    between atoms: C_20  and  C_22 
REMARK    9  A    between atoms: C_20  and  C_25 
REMARK   10  A    between atoms: C_21  and  C_22 
ROOT
HETATM    1  O           1     -28.243  -5.174 -19.074  0.00  0.00    -0.271 OA
HETATM    2  N           1     -27.627  -7.318 -19.200  0.00  0.00    -0.343 N 
HETATM    3  C           1     -28.486  -6.327 -18.806  0.00  0.00     0.249 C 
HETATM    4  H           1     -27.831  -8.283 -18.976  0.00  0.00     0.163 HD
ENDROOT
BRANCH   3   5
HETATM    5  C           1     -29.736  -6.675 -18.037  0.00  0.00     0.280 C 
BRANCH   5   6
HETATM    6  N           1     -29.675  -8.111 -17.606  0.00  0.00    -0.066 N 
HETATM    7  H           1     -29.394  -8.708 -18.417  0.00  0.00     0.275 HD
HETATM    8  H           1     -28.973  -8.214 -16.839  0.00  0.00     0.275 HD
HETATM    9  H           1     -30.614  -8.412 -17.261  0.00  0.00     0.275 HD
ENDBRANCH   5   6
BRANCH   5  10
HETATM   10  C           1     -29.842  -5.783 -16.808  0.00  0.00     0.101 C 
BRANCH  10  11
HETATM   11  C           1     -30.998  -4.845 -16.969  0.00  0.00     0.028 A 
HETATM   12  N           1     -32.269  -5.090 -16.515  0.00  0.00    -0.355 N 
HETATM   13  C           1     -32.968  -4.033 -16.855  0.00  0.00     0.180 A 
ATOM     14  HN          1     -32.601  -5.918 -16.019  1.00  0.00     0.166 HD
HETATM   15  N           1     -32.199  -3.113 -17.509  0.00  0.00    -0.360 N 
HETATM   16  C           1     -30.932  -3.621 -17.590  0.00  0.00     0.114 A 
HETATM   17  H           1     -32.521  -2.186 -17.882  0.00  0.00     0.166 HD
ENDBRANCH  10  11
ENDBRANCH   5  10
ENDBRANCH   3   5
BRANCH   2  18
HETATM   18  C           1     -26.426  -6.983 -19.940  0.00  0.00     0.210 C 
BRANCH  18  19
HETATM   19  C           1     -26.245  -7.961 -21.074  0.00  0.00     0.198 C 
HETATM   20  O           1     -27.195  -8.693 -21.427  0.00  0.00    -0.646 OA
HETATM   21  O           1     -25.145  -8.040 -21.662  0.00  0.00    -0.646 OA
ENDBRANCH  18  19
BRANCH  18  22
HETATM   22  C           1     -25.221  -7.055 -19.011  0.00  0.00     0.217 C 
BRANCH  22  23
HETATM   23  O           1     -25.411  -6.180 -17.932  0.00  0.00    -0.287 OA
BRANCH  23  24
HETATM   24  P           1     -25.352  -6.847 -16.462  0.00  0.00     0.406 P 
HETATM   25  O           1     -25.009  -5.811 -15.462  0.00  0.00    -0.624 OA
HETATM   26  O           1     -24.322  -7.910 -16.443  0.00  0.00    -0.624 OA
BRANCH  24  27
HETATM   27  O           1     -26.792  -7.485 -16.103  0.00  0.00    -0.300 OA
HETATM   28  H           1     -27.181  -7.692 -16.934  0.00  0.00     0.223 HD
ENDBRANCH  24  27
ENDBRANCH  23  24
ENDBRANCH  22  23
ENDBRANCH  18  22
ENDBRANCH   2  18
TORSDOF 10
ENDMDL
MODEL 3
REMARK VINA RESULT:      -6.1      9.519     11.285
REMARK  10 active torsions:
REMARK  status: ('A' for Active; 'I' for Inactive)
REMARK    1  A    between atoms: O_2  and  C_16 
REMARK    2  A    between atoms: O_2  and  P_7 
REMARK    3  A    between atoms: N_6  and  C_22 
REMARK    4  A    between atoms: P_7  and  O_9 
REMARK    5  A    between atoms: C_14  and  C_27 
REMARK    6  A    between atoms: C_14  and  C_16 
REMARK    7  A    between atoms: C_14  and  N_19 
REMARK       I    between atoms: N_19  and  C_21 
REMARK    8  A    between atoms: C_20  and  C_22 
REMARK    9  A    between atoms: C_20  and  C_25 
REMARK   10  A    between atoms: C_21  and  C_22 
ROOT
HETATM    1  O           1     -28.771  -6.751 -17.060  0.00  0.00    -0.271 OA
HETATM    2  N           1     -26.850  -5.613 -17.107  0.00  0.00    -0.343 N 
HETATM    3  C           1     -28.213  -5.681 -16.999  0.00  0.00     0.249 C 
HETATM    4  H           1     -26.382  -4.717 -17.055  0.00  0.00     0.163 HD
ENDROOT
BRANCH   3   5
HETATM    5  C           1     -29.018  -4.420 -16.804  0.00  0.00     0.280 C 
BRANCH   5   6
HETATM    6  N           1     -28.093  -3.239 -16.754  0.00  0.00    -0.066 N 
HETATM    7  H           1     -27.565  -3.170 -17.654  0.00  0.00     0.275 HD
HETATM    8  H           1     -28.651  -2.368 -16.611  0.00  0.00     0.275 HD
HETATM    9  H           1     -27.420  -3.356 -15.964  0.00  0.00     0.275 HD
ENDBRANCH   5   6
BRANCH   5  10
HETATM   10  C           1     -29.990  -4.252 -17.964  0.00  0.00     0.101 C 
BRANCH  10  11
HETATM   11  C           1     -31.379  -4.090 -17.432  0.00  0.00     0.028 A 
HETATM   12  N           1     -32.194  -3.018 -17.694  0.00  0.00    -0.355 N 
HETATM   13  C           1     -33.309  -3.264 -17.047  0.00  0.00     0.180 A 
ATOM     14  HN          1     -31.979  -2.203 -18.268  1.00  0.00     0.166 HD
HETATM   15  N           1     -33.248  -4.454 -16.379  0.00  0.00    -0.360 N 
HETATM   16  C           1     -32.015  -4.996 -16.616  0.00  0.00     0.114 A 
HETATM   17  H           1     -34.008  -4.876 -15.790  0.00  0.00     0.166 HD
ENDBRANCH  10  11
ENDBRANCH   5  10
ENDBRANCH   3   5
BRANCH   2  18
HETATM   18  C           1     -26.076  -6.825 -17.293  0.00  0.00     0.210 C 
BRANCH  18  19
HETATM   19  C           1     -25.196  -7.050 -16.089  0.00  0.00     0.198 C 
HETATM   20  O           1     -24.347  -7.968 -16.098  0.00  0.00    -0.646 OA
HETATM   21  O           1     -25.314  -6.319 -15.083  0.00  0.00    -0.646 OA
ENDBRANCH  18  19
BRANCH  18  22
HETATM   22  C           1     -25.208  -6.687 -18.537  0.00  0.00     0.217 C 
BRANCH  22  23
HETATM   23  O           1     -25.979  -6.957 -19.677  0.00  0.00    -0.287 OA
BRANCH  23  24
HETATM   24  P           1     -25.196  -7.633 -20.917  0.00  0.00     0.406 P 
HETATM   25  O           1     -24.728  -6.575 -21.842  0.00  0.00    -0.624 OA
HETATM   26  O           1     -26.110  -8.547 -21.638  0.00  0.00    -0.624 OA
BRANCH  24  27
HETATM   27  O           1     -23.927  -8.464 -20.364  0.00  0.00    -0.300 OA
HETATM   28  H           1     -23.327  -8.503 -21.088  0.00  0.00     0.223 HD
ENDBRANCH  24  27
ENDBRANCH  23  24
ENDBRANCH  22  23
ENDBRANCH  18  22
ENDBRANCH   2  18
TORSDOF 10
ENDMDL
MODEL 4
REMARK VINA RESULT:      -6.0     13.408     15.386
REMARK  10 active torsions:
REMARK  status: ('A' for Active; 'I' for Inactive)
REMARK    1  A    between atoms: O_2  and  C_16 
REMARK    2  A    between atoms: O_2  and  P_7 
REMARK    3  A    between atoms: N_6  and  C_22 
REMARK    4  A    between atoms: P_7  and  O_9 
REMARK    5  A    between atoms: C_14  and  C_27 
REMARK    6  A    between atoms: C_14  and  C_16 
REMARK    7  A    between atoms: C_14  and  N_19 
REMARK       I    between atoms: N_19  and  C_21 
REMARK    8  A    between atoms: C_20  and  C_22 
REMARK    9  A    between atoms: C_20  and  C_25 
REMARK   10  A    between atoms: C_21  and  C_22 
ROOT
HETATM    1  O           1     -21.017  -7.283  -6.718  0.00  0.00    -0.271 OA
HETATM    2  N           1     -21.601  -5.154  -6.378  0.00  0.00    -0.343 N 
HETATM    3  C           1     -21.263  -6.401  -5.928  0.00  0.00     0.249 C 
HETATM    4  H           1     -21.807  -4.416  -5.717  0.00  0.00     0.163 HD
ENDROOT
BRANCH   3   5
HETATM    5  C           1     -21.199  -6.677  -4.447  0.00  0.00     0.280 C 
BRANCH   5   6
HETATM    6  N           1     -22.437  -6.148  -3.786  0.00  0.00    -0.066 N 
HETATM    7  H           1     -22.300  -6.129  -2.750  0.00  0.00     0.275 HD
HETATM    8  H           1     -22.627  -5.180  -4.129  0.00  0.00     0.275 HD
HETATM    9  H           1     -23.247  -6.766  -4.018  0.00  0.00     0.275 HD
ENDBRANCH   5   6
BRANCH   5  10
HETATM   10  C           1     -21.102  -8.179  -4.212  0.00  0.00     0.101 C 
BRANCH  10  11
HETATM   11  C           1     -21.176  -8.461  -2.744  0.00  0.00     0.028 A 
HETATM   12  N           1     -20.564  -7.709  -1.774  0.00  0.00    -0.355 N 
HETATM   13  C           1     -20.876  -8.287  -0.638  0.00  0.00     0.180 A 
ATOM     14  HN          1     -19.989  -6.877  -1.907  1.00  0.00     0.166 HD
HETATM   15  N           1     -21.666  -9.384  -0.836  0.00  0.00    -0.360 N 
HETATM   16  C           1     -21.867  -9.508  -2.182  0.00  0.00     0.114 A 
HETATM   17  H           1     -22.049 -10.016  -0.090  0.00  0.00     0.166 HD
ENDBRANCH  10  11
ENDBRANCH   5  10
ENDBRANCH   3   5
BRANCH   2  18
HETATM   18  C           1     -21.662  -4.889  -7.802  0.00  0.00     0.210 C 
BRANCH  18  19
HETATM   19  C           1     -20.272  -4.625  -8.325  0.00  0.00     0.198 C 
HETATM   20  O           1     -19.363  -4.280  -7.539  0.00  0.00    -0.646 OA
HETATM   21  O           1     -20.028  -4.751  -9.544  0.00  0.00    -0.646 OA
ENDBRANCH  18  19
BRANCH  18  22
HETATM   22  C           1     -22.539  -3.670  -8.055  0.00  0.00     0.217 C 
BRANCH  22  23
HETATM   23  O           1     -23.743  -4.075  -8.648  0.00  0.00    -0.287 OA
BRANCH  23  24
HETATM   24  P           1     -23.801  -3.993 -10.261  0.00  0.00     0.406 P 
HETATM   25  O           1     -24.996  -3.223 -10.673  0.00  0.00    -0.624 OA
HETATM   26  O           1     -23.878  -5.360 -10.822  0.00  0.00    -0.624 OA
BRANCH  24  27
HETATM   27  O           1     -22.472  -3.258 -10.810  0.00  0.00    -0.300 OA
HETATM   28  H           1     -21.969  -3.056 -10.041  0.00  0.00     0.223 HD
ENDBRANCH  24  27
ENDBRANCH  23  24
ENDBRANCH  22  23
ENDBRANCH  18  22
ENDBRANCH   2  18
TORSDOF 10
ENDMDL
MODEL 5
REMARK VINA RESULT:      -5.8     13.713     15.669
REMARK  10 active torsions:
REMARK  status: ('A' for Active; 'I' for Inactive)
REMARK    1  A    between atoms: O_2  and  C_16 
REMARK    2  A    between atoms: O_2  and  P_7 
REMARK    3  A    between atoms: N_6  and  C_22 
REMARK    4  A    between atoms: P_7  and  O_9 
REMARK    5  A    between atoms: C_14  and  C_27 
REMARK    6  A    between atoms: C_14  and  C_16 
REMARK    7  A    between atoms: C_14  and  N_19 
REMARK       I    between atoms: N_19  and  C_21 
REMARK    8  A    between atoms: C_20  and  C_22 
REMARK    9  A    between atoms: C_20  and  C_25 
REMARK   10  A    between atoms: C_21  and  C_22 
ROOT
HETATM    1  O           1     -21.311  -7.546  -6.644  0.00  0.00    -0.271 OA
HETATM    2  N           1     -21.460  -5.333  -6.372  0.00  0.00    -0.343 N 
HETATM    3  C           1     -21.272  -6.601  -5.890  0.00  0.00     0.249 C 
HETATM    4  H           1     -21.428  -4.543  -5.741  0.00  0.00     0.163 HD
ENDROOT
BRANCH   3   5
HETATM    5  C           1     -21.019  -6.820  -4.420  0.00  0.00     0.280 C 
BRANCH   5   6
HETATM    6  N           1     -22.061  -6.094  -3.620  0.00  0.00    -0.066 N 
HETATM    7  H           1     -21.864  -5.068  -3.638  0.00  0.00     0.275 HD
HETATM    8  H           1     -23.004  -6.274  -4.034  0.00  0.00     0.275 HD
HETATM    9  H           1     -22.043  -6.435  -2.633  0.00  0.00     0.275 HD
ENDBRANCH   5   6
BRANCH   5  10
HETATM   10  C           1     -21.087  -8.308  -4.107  0.00  0.00     0.101 C 
BRANCH  10  11
HETATM   11  C           1     -19.708  -8.827  -3.844  0.00  0.00     0.028 A 
HETATM   12  N           1     -19.156  -8.976  -2.597  0.00  0.00    -0.355 N 
HETATM   13  C           1     -17.951  -9.453  -2.806  0.00  0.00     0.180 A 
ATOM     14  HN          1     -19.589  -8.763  -1.699  1.00  0.00     0.166 HD
HETATM   15  N           1     -17.703  -9.618  -4.139  0.00  0.00    -0.360 N 
HETATM   16  C           1     -18.821  -9.221  -4.818  0.00  0.00     0.114 A 
HETATM   17  H           1     -16.816  -9.984  -4.565  0.00  0.00     0.166 HD
ENDBRANCH  10  11
ENDBRANCH   5  10
ENDBRANCH   3   5
BRANCH   2  18
HETATM   18  C           1     -21.703  -5.124  -7.786  0.00  0.00     0.210 C 
BRANCH  18  19
HETATM   19  C           1     -20.466  -4.547  -8.429  0.00  0.00     0.198 C 
HETATM   20  O           1     -20.095  -4.957  -9.550  0.00  0.00    -0.646 OA
HETATM   21  O           1     -19.813  -3.658  -7.842  0.00  0.00    -0.646 OA
ENDBRANCH  18  19
BRANCH  18  22
HETATM   22  C           1     -22.865  -4.156  -7.963  0.00  0.00     0.217 C 
BRANCH  22  23
HETATM   23  O           1     -22.812  -3.592  -9.246  0.00  0.00    -0.287 OA
BRANCH  23  24
HETATM   24  P           1     -23.997  -4.019 -10.257  0.00  0.00     0.406 P 
HETATM   25  O           1     -23.419  -4.714 -11.429  0.00  0.00    -0.624 OA
HETATM   26  O           1     -24.718  -2.808 -10.710  0.00  0.00    -0.624 OA
BRANCH  24  27
HETATM   27  O           1     -25.023  -5.006  -9.498  0.00  0.00    -0.300 OA
HETATM   28  H           1     -24.679  -5.092  -8.626  0.00  0.00     0.223 HD
ENDBRANCH  24  27
ENDBRANCH  23  24
ENDBRANCH  22  23
ENDBRANCH  18  22
ENDBRANCH   2  18
TORSDOF 10
ENDMDL
MODEL 6
REMARK VINA RESULT:      -5.8     14.422     17.096
REMARK  10 active torsions:
REMARK  status: ('A' for Active; 'I' for Inactive)
REMARK    1  A    between atoms: O_2  and  C_16 
REMARK    2  A    between atoms: O_2  and  P_7 
REMARK    3  A    between atoms: N_6  and  C_22 
REMARK    4  A    between atoms: P_7  and  O_9 
REMARK    5  A    between atoms: C_14  and  C_27 
REMARK    6  A    between atoms: C_14  and  C_16 
REMARK    7  A    between atoms: C_14  and  N_19 
REMARK       I    between atoms: N_19  and  C_21 
REMARK    8  A    between atoms: C_20  and  C_22 
REMARK    9  A    between atoms: C_20  and  C_25 
REMARK   10  A    between atoms: C_21  and  C_22 
ROOT
HETATM    1  O           1     -23.139  -5.606  -5.727  0.00  0.00    -0.271 OA
HETATM    2  N           1     -21.159  -6.458  -5.141  0.00  0.00    -0.343 N 
HETATM    3  C           1     -21.938  -5.595  -5.863  0.00  0.00     0.249 C 
HETATM    4  H           1     -20.154  -6.449  -5.256  0.00  0.00     0.163 HD
ENDROOT
BRANCH   3   5
HETATM    5  C           1     -21.298  -4.631  -6.831  0.00  0.00     0.280 C 
BRANCH   5   6
HETATM    6  N           1     -19.839  -4.494  -6.509  0.00  0.00    -0.066 N 
HETATM    7  H           1     -19.508  -5.353  -6.013  0.00  0.00     0.275 HD
HETATM    8  H           1     -19.298  -4.374  -7.394  0.00  0.00     0.275 HD
HETATM    9  H           1     -19.694  -3.661  -5.896  0.00  0.00     0.275 HD
ENDBRANCH   5   6
BRANCH   5  10
HETATM   10  C           1     -21.455  -5.156  -8.252  0.00  0.00     0.101 C 
BRANCH  10  11
HETATM   11  C           1     -22.565  -4.422  -8.936  0.00  0.00     0.028 A 
HETATM   12  N           1     -23.725  -4.019  -8.326  0.00  0.00    -0.355 N 
HETATM   13  C           1     -24.420  -3.419  -9.264  0.00  0.00     0.180 A 
ATOM     14  HN          1     -23.991  -4.155  -7.351  1.00  0.00     0.166 HD
HETATM   15  N           1     -23.754  -3.418 -10.457  0.00  0.00    -0.360 N 
HETATM   16  C           1     -22.562  -4.059 -10.262  0.00  0.00     0.114 A 
HETATM   17  H           1     -24.095  -3.002 -11.358  0.00  0.00     0.166 HD
ENDBRANCH  10  11
ENDBRANCH   5  10
ENDBRANCH   3   5
BRANCH   2  18
HETATM   18  C           1     -21.775  -7.384  -4.210  0.00  0.00     0.210 C 
BRANCH  18  19
HETATM   19  C           1     -21.575  -6.888  -2.800  0.00  0.00     0.198 C 
HETATM   20  O           1     -22.266  -5.940  -2.366  0.00  0.00    -0.646 OA
HETATM   21  O           1     -20.720  -7.424  -2.064  0.00  0.00    -0.646 OA
ENDBRANCH  18  19
BRANCH  18  22
HETATM   22  C           1     -21.133  -8.757  -4.361  0.00  0.00     0.217 C 
BRANCH  22  23
HETATM   23  O           1     -20.195  -8.722  -5.402  0.00  0.00    -0.287 OA
BRANCH  23  24
HETATM   24  P           1     -18.873  -9.628  -5.195  0.00  0.00     0.406 P 
HETATM   25  O           1     -17.960  -9.440  -6.345  0.00  0.00    -0.624 OA
HETATM   26  O           1     -19.262 -11.053  -5.103  0.00  0.00    -0.624 OA
BRANCH  24  27
HETATM   27  O           1     -18.124  -9.184  -3.835  0.00  0.00    -0.300 OA
HETATM   28  H           1     -17.761  -8.337  -4.022  0.00  0.00     0.223 HD
ENDBRANCH  24  27
ENDBRANCH  23  24
ENDBRANCH  22  23
ENDBRANCH  18  22
ENDBRANCH   2  18
TORSDOF 10
ENDMDL
MODEL 7
REMARK VINA RESULT:      -5.8     15.386     17.348
REMARK  10 active torsions:
REMARK  status: ('A' for Active; 'I' for Inactive)
REMARK    1  A    between atoms: O_2  and  C_16 
REMARK    2  A    between atoms: O_2  and  P_7 
REMARK    3  A    between atoms: N_6  and  C_22 
REMARK    4  A    between atoms: P_7  and  O_9 
REMARK    5  A    between atoms: C_14  and  C_27 
REMARK    6  A    between atoms: C_14  and  C_16 
REMARK    7  A    between atoms: C_14  and  N_19 
REMARK       I    between atoms: N_19  and  C_21 
REMARK    8  A    between atoms: C_20  and  C_22 
REMARK    9  A    between atoms: C_20  and  C_25 
REMARK   10  A    between atoms: C_21  and  C_22 
ROOT
HETATM    1  O           1     -20.300  -5.251  -5.845  0.00  0.00    -0.271 OA
HETATM    2  N           1     -22.067  -6.199  -4.860  0.00  0.00    -0.343 N 
HETATM    3  C           1     -21.486  -5.482  -5.871  0.00  0.00     0.249 C 
HETATM    4  H           1     -23.060  -6.391  -4.882  0.00  0.00     0.163 HD
ENDROOT
BRANCH   3   5
HETATM    5  C           1     -22.327  -4.978  -7.018  0.00  0.00     0.280 C 
BRANCH   5   6
HETATM    6  N           1     -23.682  -4.585  -6.509  0.00  0.00    -0.066 N 
HETATM    7  H           1     -24.336  -4.459  -7.315  0.00  0.00     0.275 HD
HETATM    8  H           1     -24.047  -5.335  -5.879  0.00  0.00     0.275 HD
HETATM    9  H           1     -23.609  -3.689  -5.978  0.00  0.00     0.275 HD
ENDBRANCH   5   6
BRANCH   5  10
HETATM   10  C           1     -21.653  -3.767  -7.650  0.00  0.00     0.101 C 
BRANCH  10  11
HETATM   11  C           1     -21.528  -3.979  -9.126  0.00  0.00     0.028 A 
HETATM   12  N           1     -22.587  -4.086  -9.991  0.00  0.00    -0.355 N 
HETATM   13  C           1     -22.050  -4.262 -11.176  0.00  0.00     0.180 A 
ATOM     14  HN          1     -23.579  -4.039  -9.763  1.00  0.00     0.166 HD
HETATM   15  N           1     -20.686  -4.272 -11.111  0.00  0.00    -0.360 N 
HETATM   16  C           1     -20.336  -4.092  -9.801  0.00  0.00     0.114 A 
HETATM   17  H           1     -20.026  -4.396 -11.918  0.00  0.00     0.166 HD
ENDBRANCH  10  11
ENDBRANCH   5  10
ENDBRANCH   3   5
BRANCH   2  18
HETATM   18  C           1     -21.258  -6.683  -3.758  0.00  0.00     0.210 C 
BRANCH  18  19
HETATM   19  C           1     -20.891  -8.126  -4.000  0.00  0.00     0.198 C 
HETATM   20  O           1     -19.691  -8.477  -3.984  0.00  0.00    -0.646 OA
HETATM   21  O           1     -21.785  -8.971  -4.215  0.00  0.00    -0.646 OA
ENDBRANCH  18  19
BRANCH  18  22
HETATM   22  C           1     -22.048  -6.571  -2.461  0.00  0.00     0.217 C 
BRANCH  22  23
HETATM   23  O           1     -21.305  -7.129  -1.411  0.00  0.00    -0.287 OA
BRANCH  23  24
HETATM   24  P           1     -22.130  -8.044  -0.367  0.00  0.00     0.406 P 
HETATM   25  O           1     -22.479  -9.333  -1.007  0.00  0.00    -0.624 OA
HETATM   26  O           1     -23.370  -7.341   0.031  0.00  0.00    -0.624 OA
BRANCH  24  27
HETATM   27  O           1     -21.224  -8.321   0.940  0.00  0.00    -0.300 OA
HETATM   28  H           1     -21.034  -7.468   1.290  0.00  0.00     0.223 HD
ENDBRANCH  24  27
ENDBRANCH  23  24
ENDBRANCH  22  23
ENDBRANCH  18  22
ENDBRANCH   2  18
TORSDOF 10
ENDMDL
MODEL 8
REMARK VINA RESULT:      -5.6     14.647     17.256
REMARK  10 active torsions:
REMARK  status: ('A' for Active; 'I' for Inactive)
REMARK    1  A    between atoms: O_2  and  C_16 
REMARK    2  A    between atoms: O_2  and  P_7 
REMARK    3  A    between atoms: N_6  and  C_22 
REMARK    4  A    between atoms: P_7  and  O_9 
REMARK    5  A    between atoms: C_14  and  C_27 
REMARK    6  A    between atoms: C_14  and  C_16 
REMARK    7  A    between atoms: C_14  and  N_19 
REMARK       I    between atoms: N_19  and  C_21 
REMARK    8  A    between atoms: C_20  and  C_22 
REMARK    9  A    between atoms: C_20  and  C_25 
REMARK   10  A    between atoms: C_21  and  C_22 
ROOT
HETATM    1  O           1     -20.106  -4.464  -5.118  0.00  0.00    -0.271 OA
HETATM    2  N           1     -20.701  -6.437  -5.980  0.00  0.00    -0.343 N 
HETATM    3  C           1     -20.500  -5.086  -6.076  0.00  0.00     0.249 C 
HETATM    4  H           1     -21.031  -6.957  -6.782  0.00  0.00     0.163 HD
ENDROOT
BRANCH   3   5
HETATM    5  C           1     -20.771  -4.374  -7.377  0.00  0.00     0.280 C 
BRANCH   5   6
HETATM    6  N           1     -19.470  -4.048  -8.050  0.00  0.00    -0.066 N 
HETATM    7  H           1     -18.731  -3.895  -7.327  0.00  0.00     0.275 HD
HETATM    8  H           1     -19.191  -4.842  -8.669  0.00  0.00     0.275 HD
HETATM    9  H           1     -19.581  -3.181  -8.622  0.00  0.00     0.275 HD
ENDBRANCH   5   6
BRANCH   5  10
HETATM   10  C           1     -21.599  -5.272  -8.287  0.00  0.00     0.101 C 
BRANCH  10  11
HETATM   11  C           1     -22.648  -4.455  -8.975  0.00  0.00     0.028 A 
HETATM   12  N           1     -23.816  -4.035  -8.392  0.00  0.00    -0.355 N 
HETATM   13  C           1     -24.444  -3.357  -9.324  0.00  0.00     0.180 A 
ATOM     14  HN          1     -24.130  -4.211  -7.438  1.00  0.00     0.166 HD
HETATM   15  N           1     -23.727  -3.322 -10.487  0.00  0.00    -0.360 N 
HETATM   16  C           1     -22.572  -4.023 -10.278  0.00  0.00     0.114 A 
HETATM   17  H           1     -24.011  -2.844 -11.377  0.00  0.00     0.166 HD
ENDBRANCH  10  11
ENDBRANCH   5  10
ENDBRANCH   3   5
BRANCH   2  18
HETATM   18  C           1     -20.439  -7.121  -4.729  0.00  0.00     0.210 C 
BRANCH  18  19
HETATM   19  C           1     -19.545  -8.309  -4.983  0.00  0.00     0.198 C 
HETATM   20  O           1     -19.305  -9.119  -4.061  0.00  0.00    -0.646 OA
HETATM   21  O           1     -19.045  -8.485  -6.114  0.00  0.00    -0.646 OA
ENDBRANCH  18  19
BRANCH  18  22
HETATM   22  C           1     -21.754  -7.596  -4.125  0.00  0.00     0.217 C 
BRANCH  22  23
HETATM   23  O           1     -21.972  -6.940  -2.905  0.00  0.00    -0.287 OA
BRANCH  23  24
HETATM   24  P           1     -21.626  -7.787  -1.574  0.00  0.00     0.406 P 
HETATM   25  O           1     -22.171  -9.157  -1.705  0.00  0.00    -0.624 OA
HETATM   26  O           1     -22.232  -7.127  -0.397  0.00  0.00    -0.624 OA
BRANCH  24  27
HETATM   27  O           1     -20.024  -7.862  -1.385  0.00  0.00    -0.300 OA
HETATM   28  H           1     -19.846  -7.361  -0.609  0.00  0.00     0.223 HD
ENDBRANCH  24  27
ENDBRANCH  23  24
ENDBRANCH  22  23
ENDBRANCH  18  22
ENDBRANCH   2  18
TORSDOF 10
ENDMDL
MODEL 9
REMARK VINA RESULT:      -5.6     25.445     26.809
REMARK  10 active torsions:
REMARK  status: ('A' for Active; 'I' for Inactive)
REMARK    1  A    between atoms: O_2  and  C_16 
REMARK    2  A    between atoms: O_2  and  P_7 
REMARK    3  A    between atoms: N_6  and  C_22 
REMARK    4  A    between atoms: P_7  and  O_9 
REMARK    5  A    between atoms: C_14  and  C_27 
REMARK    6  A    between atoms: C_14  and  C_16 
REMARK    7  A    between atoms: C_14  and  N_19 
REMARK       I    between atoms: N_19  and  C_21 
REMARK    8  A    between atoms: C_20  and  C_22 
REMARK    9  A    between atoms: C_20  and  C_25 
REMARK   10  A    between atoms: C_21  and  C_22 
ROOT
HETATM    1  O           1     -10.456   5.585 -22.128  0.00  0.00    -0.271 OA
HETATM    2  N           1     -10.613   7.263 -20.661  0.00  0.00    -0.343 N 
HETATM    3  C           1     -10.460   5.938 -20.972  0.00  0.00     0.249 C 
HETATM    4  H           1     -10.616   7.558 -19.694  0.00  0.00     0.163 HD
ENDROOT
BRANCH   3   5
HETATM    5  C           1     -10.298   4.919 -19.872  0.00  0.00     0.280 C 
BRANCH   5   6
HETATM    6  N           1      -9.391   5.470 -18.810  0.00  0.00    -0.066 N 
HETATM    7  H           1      -9.853   6.282 -18.343  0.00  0.00     0.275 HD
HETATM    8  H           1      -9.195   4.727 -18.102  0.00  0.00     0.275 HD
HETATM    9  H           1      -8.495   5.782 -19.246  0.00  0.00     0.275 HD
ENDBRANCH   5   6
BRANCH   5  10
HETATM   10  C           1     -11.658   4.607 -19.262  0.00  0.00     0.101 C 
BRANCH  10  11
HETATM   11  C           1     -12.605   4.184 -20.342  0.00  0.00     0.028 A 
HETATM   12  N           1     -12.410   3.110 -21.172  0.00  0.00    -0.355 N 
HETATM   13  C           1     -13.458   3.088 -21.962  0.00  0.00     0.180 A 
ATOM     14  HN          1     -11.620   2.465 -21.174  1.00  0.00     0.166 HD
HETATM   15  N           1     -14.322   4.106 -21.675  0.00  0.00    -0.360 N 
HETATM   16  C           1     -13.788   4.818 -20.637  0.00  0.00     0.114 A 
HETATM   17  H           1     -15.231   4.305 -22.161  0.00  0.00     0.166 HD
ENDBRANCH  10  11
ENDBRANCH   5  10
ENDBRANCH   3   5
BRANCH   2  18
HETATM   18  C           1     -10.768   8.242 -21.719  0.00  0.00     0.210 C 
BRANCH  18  19
HETATM   19  C           1      -9.703   9.301 -21.585  0.00  0.00     0.198 C 
HETATM   20  O           1      -9.297   9.640 -20.452  0.00  0.00    -0.646 OA
HETATM   21  O           1      -9.225   9.840 -22.606  0.00  0.00    -0.646 OA
ENDBRANCH  18  19
BRANCH  18  22
HETATM   22  C           1     -12.143   8.889 -21.614  0.00  0.00     0.217 C 
BRANCH  22  23
HETATM   23  O           1     -12.821   8.369 -20.503  0.00  0.00    -0.287 OA
BRANCH  23  24
HETATM   24  P           1     -12.834   9.299 -19.182  0.00  0.00     0.406 P 
HETATM   25  O           1     -13.912   8.851 -18.273  0.00  0.00    -0.624 OA
HETATM   26  O           1     -13.073  10.706 -19.573  0.00  0.00    -0.624 OA
BRANCH  24  27
HETATM   27  O           1     -11.411   9.183 -18.428  0.00  0.00    -0.300 OA
HETATM   28  H           1     -11.510   9.688 -17.640  0.00  0.00     0.223 HD
ENDBRANCH  24  27
ENDBRANCH  23  24
ENDBRANCH  22  23
ENDBRANCH  18  22
ENDBRANCH   2  18
TORSDOF 10
ENDMDL
