MODEL 1
REMARK VINA RESULT:      -6.8      0.000      0.000
REMARK  8 active torsions:
REMARK  status: ('A' for Active; 'I' for Inactive)
REMARK    1  A    between atoms: C_3  and  C_9 
REMARK    2  A    between atoms: C_3  and  C_16 
REMARK    3  A    between atoms: N_4  and  C_9 
REMARK    4  A    between atoms: C_9  and  C_19 
REMARK    5  A    between atoms: Se_10  and  C_20 
REMARK    6  A    between atoms: N_12  and  C_13 
REMARK       I    between atoms: N_12  and  C_19 
REMARK    7  A    between atoms: C_13  and  C_20 
REMARK    8  A    between atoms: C_13  and  C_14 
ROOT
HETATM    1  C           1     -21.198  -5.663  -6.955  0.00  0.00     0.278 C 
ENDROOT
BRANCH   1   2
HETATM    2  C           1     -20.846  -5.223  -5.539  0.00  0.00     0.081 C 
BRANCH   2   3
HETATM    3  C           1     -21.126  -6.340  -4.585  0.00  0.00    -0.056 A 
HETATM    4  C           1     -21.216  -7.651  -5.052  0.00  0.00     0.007 A 
HETATM    5  C           1     -21.478  -8.692  -4.162  0.00  0.00     0.001 A 
HETATM    6  C           1     -21.649  -8.423  -2.805  0.00  0.00     0.000 A 
HETATM    7  C           1     -21.560  -7.112  -2.337  0.00  0.00     0.001 A 
HETATM    8  C           1     -21.298  -6.070  -3.227  0.00  0.00     0.007 A 
ENDBRANCH   2   3
ENDBRANCH   1   2
BRANCH   1   9
HETATM    9  N           1     -19.956  -6.128  -7.656  0.00  0.00    -0.066 N 
HETATM   10  H           1     -19.514  -6.900  -7.107  0.00  0.00     0.275 HD
HETATM   11  H           1     -20.206  -6.478  -8.608  0.00  0.00     0.275 HD
HETATM   12  H           1     -19.285  -5.332  -7.741  0.00  0.00     0.275 HD
ENDBRANCH   1   9
BRANCH   1  13
HETATM   13  C           1     -21.795  -4.500  -7.709  0.00  0.00     0.249 C 
HETATM   14  O           1     -21.834  -3.405  -7.201  0.00  0.00    -0.271 OA
HETATM   15  N           1     -22.294  -4.687  -8.971  0.00  0.00    -0.345 N 
HETATM   16  H           1     -22.262  -5.605  -9.397  0.00  0.00     0.163 HD
BRANCH  15  17
HETATM   17  C           1     -22.868  -3.571  -9.696  0.00  0.00     0.185 C 
BRANCH  17  18
HETATM   18  C           1     -22.014  -3.266 -10.920  0.00  0.00     0.039 C 
BRANCH  18  19
HETATM   19 Se           1     -20.433  -4.407 -10.910  0.00  0.00     0.000 Se
HETATM   20  H           1     -20.005  -4.023 -12.264  0.00  0.00     0.000 HD
ENDBRANCH  18  19
ENDBRANCH  17  18
BRANCH  17  21
HETATM   21  C           1     -24.268  -3.923 -10.135  0.00  0.00     0.196 C 
HETATM   22  O           1     -24.775  -5.012  -9.792  0.00  0.00    -0.646 OA
HETATM   23  O           1     -24.920  -3.126 -10.844  0.00  0.00    -0.646 OA
ENDBRANCH  17  21
ENDBRANCH  15  17
ENDBRANCH   1  13
TORSDOF 8
ENDMDL
MODEL 2
REMARK VINA RESULT:      -6.6      3.498      6.970
REMARK  8 active torsions:
REMARK  status: ('A' for Active; 'I' for Inactive)
REMARK    1  A    between atoms: C_3  and  C_9 
REMARK    2  A    between atoms: C_3  and  C_16 
REMARK    3  A    between atoms: N_4  and  C_9 
REMARK    4  A    between atoms: C_9  and  C_19 
REMARK    5  A    between atoms: Se_10  and  C_20 
REMARK    6  A    between atoms: N_12  and  C_13 
REMARK       I    between atoms: N_12  and  C_19 
REMARK    7  A    between atoms: C_13  and  C_20 
REMARK    8  A    between atoms: C_13  and  C_14 
ROOT
HETATM    1  C           1     -22.297  -5.193  -6.836  0.00  0.00     0.278 C 
ENDROOT
BRANCH   1   2
HETATM    2  C           1     -21.714  -3.921  -7.437  0.00  0.00     0.081 C 
BRANCH   2   3
HETATM    3  C           1     -21.662  -4.050  -8.926  0.00  0.00    -0.056 A 
HETATM    4  C           1     -20.432  -4.059  -9.584  0.00  0.00     0.007 A 
HETATM    5  C           1     -20.384  -4.178 -10.972  0.00  0.00     0.001 A 
HETATM    6  C           1     -21.565  -4.289 -11.704  0.00  0.00     0.000 A 
HETATM    7  C           1     -22.796  -4.280 -11.048  0.00  0.00     0.001 A 
HETATM    8  C           1     -22.845  -4.160  -9.659  0.00  0.00     0.007 A 
ENDBRANCH   2   3
ENDBRANCH   1   2
BRANCH   1   9
HETATM    9  N           1     -23.654  -4.901  -6.269  0.00  0.00    -0.066 N 
HETATM   10  H           1     -24.141  -5.800  -6.049  0.00  0.00     0.275 HD
HETATM   11  H           1     -23.551  -4.339  -5.394  0.00  0.00     0.275 HD
HETATM   12  H           1     -24.215  -4.362  -6.967  0.00  0.00     0.275 HD
ENDBRANCH   1   9
BRANCH   1  13
HETATM   13  C           1     -21.390  -5.692  -5.737  0.00  0.00     0.249 C 
HETATM   14  O           1     -20.559  -4.957  -5.258  0.00  0.00    -0.271 OA
HETATM   15  N           1     -21.508  -6.979  -5.282  0.00  0.00    -0.345 N 
HETATM   16  H           1     -22.204  -7.595  -5.684  0.00  0.00     0.163 HD
BRANCH  15  17
HETATM   17  C           1     -20.638  -7.458  -4.227  0.00  0.00     0.185 C 
BRANCH  17  18
HETATM   18  C           1     -21.477  -7.883  -3.030  0.00  0.00     0.039 C 
BRANCH  18  19
HETATM   19 Se           1     -22.047  -6.302  -2.041  0.00  0.00     0.000 Se
HETATM   20  H           1     -20.790  -5.569  -2.263  0.00  0.00     0.000 HD
ENDBRANCH  18  19
ENDBRANCH  17  18
BRANCH  17  21
HETATM   21  C           1     -19.843  -8.638  -4.729  0.00  0.00     0.196 C 
HETATM   22  O           1     -20.273  -9.322  -5.683  0.00  0.00    -0.646 OA
HETATM   23  O           1     -18.755  -8.933  -4.190  0.00  0.00    -0.646 OA
ENDBRANCH  17  21
ENDBRANCH  15  17
ENDBRANCH   1  13
TORSDOF 8
ENDMDL
MODEL 3
REMARK VINA RESULT:      -6.5      3.322      6.910
REMARK  8 active torsions:
REMARK  status: ('A' for Active; 'I' for Inactive)
REMARK    1  A    between atoms: C_3  and  C_9 
REMARK    2  A    between atoms: C_3  and  C_16 
REMARK    3  A    between atoms: N_4  and  C_9 
REMARK    4  A    between atoms: C_9  and  C_19 
REMARK    5  A    between atoms: Se_10  and  C_20 
REMARK    6  A    between atoms: N_12  and  C_13 
REMARK       I    between atoms: N_12  and  C_19 
REMARK    7  A    between atoms: C_13  and  C_20 
REMARK    8  A    between atoms: C_13  and  C_14 
ROOT
HETATM    1  C           1     -21.030  -5.030  -6.220  0.00  0.00     0.278 C 
ENDROOT
BRANCH   1   2
HETATM    2  C           1     -20.648  -5.754  -7.504  0.00  0.00     0.081 C 
BRANCH   2   3
HETATM    3  C           1     -21.067  -4.934  -8.684  0.00  0.00    -0.056 A 
HETATM    4  C           1     -20.165  -4.689  -9.719  0.00  0.00     0.007 A 
HETATM    5  C           1     -20.556  -3.924 -10.818  0.00  0.00     0.001 A 
HETATM    6  C           1     -21.847  -3.404 -10.882  0.00  0.00     0.000 A 
HETATM    7  C           1     -22.750  -3.648  -9.846  0.00  0.00     0.001 A 
HETATM    8  C           1     -22.360  -4.413  -8.747  0.00  0.00     0.007 A 
ENDBRANCH   2   3
ENDBRANCH   1   2
BRANCH   1   9
HETATM    9  N           1     -19.794  -4.484  -5.568  0.00  0.00    -0.066 N 
HETATM   10  H           1     -19.147  -5.271  -5.334  0.00  0.00     0.275 HD
HETATM   11  H           1     -19.318  -3.825  -6.224  0.00  0.00     0.275 HD
HETATM   12  H           1     -20.057  -3.977  -4.693  0.00  0.00     0.275 HD
ENDBRANCH   1   9
BRANCH   1  13
HETATM   13  C           1     -21.709  -5.997  -5.280  0.00  0.00     0.249 C 
HETATM   14  O           1     -22.914  -6.055  -5.240  0.00  0.00    -0.271 OA
HETATM   15  N           1     -20.957  -6.808  -4.472  0.00  0.00    -0.345 N 
HETATM   16  H           1     -19.946  -6.759  -4.506  0.00  0.00     0.163 HD
BRANCH  15  17
HETATM   17  C           1     -21.608  -7.737  -3.570  0.00  0.00     0.185 C 
BRANCH  17  18
HETATM   18  C           1     -20.934  -9.099  -3.668  0.00  0.00     0.039 C 
BRANCH  18  19
HETATM   19 Se           1     -19.333  -8.954  -4.771  0.00  0.00     0.000 Se
HETATM   20  H           1     -20.009  -9.374  -6.010  0.00  0.00     0.000 HD
ENDBRANCH  18  19
ENDBRANCH  17  18
BRANCH  17  21
HETATM   21  C           1     -21.499  -7.222  -2.156  0.00  0.00     0.196 C 
HETATM   22  O           1     -22.235  -6.289  -1.771  0.00  0.00    -0.646 OA
HETATM   23  O           1     -20.672  -7.730  -1.368  0.00  0.00    -0.646 OA
ENDBRANCH  17  21
ENDBRANCH  15  17
ENDBRANCH   1  13
TORSDOF 8
ENDMDL
MODEL 4
REMARK VINA RESULT:      -6.1      3.795      6.992
REMARK  8 active torsions:
REMARK  status: ('A' for Active; 'I' for Inactive)
REMARK    1  A    between atoms: C_3  and  C_9 
REMARK    2  A    between atoms: C_3  and  C_16 
REMARK    3  A    between atoms: N_4  and  C_9 
REMARK    4  A    between atoms: C_9  and  C_19 
REMARK    5  A    between atoms: Se_10  and  C_20 
REMARK    6  A    between atoms: N_12  and  C_13 
REMARK       I    between atoms: N_12  and  C_19 
REMARK    7  A    between atoms: C_13  and  C_20 
REMARK    8  A    between atoms: C_13  and  C_14 
ROOT
HETATM    1  C           1     -21.655  -5.813  -6.672  0.00  0.00     0.278 C 
ENDROOT
BRANCH   1   2
HETATM    2  C           1     -20.964  -4.520  -7.085  0.00  0.00     0.081 C 
BRANCH   2   3
HETATM    3  C           1     -21.177  -4.285  -8.547  0.00  0.00    -0.056 A 
HETATM    4  C           1     -20.146  -4.539  -9.452  0.00  0.00     0.007 A 
HETATM    5  C           1     -20.345  -4.318 -10.814  0.00  0.00     0.001 A 
HETATM    6  C           1     -21.573  -3.844 -11.273  0.00  0.00     0.000 A 
HETATM    7  C           1     -22.604  -3.589 -10.368  0.00  0.00     0.001 A 
HETATM    8  C           1     -22.406  -3.809  -9.005  0.00  0.00     0.007 A 
ENDBRANCH   2   3
ENDBRANCH   1   2
BRANCH   1   9
HETATM    9  N           1     -22.646  -5.523  -5.583  0.00  0.00    -0.066 N 
HETATM   10  H           1     -23.335  -6.308  -5.521  0.00  0.00     0.275 HD
HETATM   11  H           1     -22.143  -5.429  -4.672  0.00  0.00     0.275 HD
HETATM   12  H           1     -23.149  -4.633  -5.798  0.00  0.00     0.275 HD
ENDBRANCH   1   9
BRANCH   1  13
HETATM   13  C           1     -20.626  -6.795  -6.166  0.00  0.00     0.249 C 
HETATM   14  O           1     -19.545  -6.866  -6.699  0.00  0.00    -0.271 OA
HETATM   15  N           1     -20.919  -7.607  -5.102  0.00  0.00    -0.345 N 
HETATM   16  H           1     -21.826  -7.548  -4.656  0.00  0.00     0.163 HD
BRANCH  15  17
HETATM   17  C           1     -19.932  -8.550  -4.616  0.00  0.00     0.185 C 
BRANCH  17  18
HETATM   18  C           1     -19.977  -8.594  -3.095  0.00  0.00     0.039 C 
BRANCH  18  19
HETATM   19 Se           1     -21.290  -7.308  -2.445  0.00  0.00     0.000 Se
HETATM   20  H           1     -20.641  -6.150  -3.079  0.00  0.00     0.000 HD
ENDBRANCH  18  19
ENDBRANCH  17  18
BRANCH  17  21
HETATM   21  C           1     -20.232  -9.921  -5.169  0.00  0.00     0.196 C 
HETATM   22  O           1     -19.471 -10.434  -6.016  0.00  0.00    -0.646 OA
HETATM   23  O           1     -21.244 -10.543  -4.780  0.00  0.00    -0.646 OA
ENDBRANCH  17  21
ENDBRANCH  15  17
ENDBRANCH   1  13
TORSDOF 8
ENDMDL
MODEL 5
REMARK VINA RESULT:      -6.1      2.791      4.213
REMARK  8 active torsions:
REMARK  status: ('A' for Active; 'I' for Inactive)
REMARK    1  A    between atoms: C_3  and  C_9 
REMARK    2  A    between atoms: C_3  and  C_16 
REMARK    3  A    between atoms: N_4  and  C_9 
REMARK    4  A    between atoms: C_9  and  C_19 
REMARK    5  A    between atoms: Se_10  and  C_20 
REMARK    6  A    between atoms: N_12  and  C_13 
REMARK       I    between atoms: N_12  and  C_19 
REMARK    7  A    between atoms: C_13  and  C_20 
REMARK    8  A    between atoms: C_13  and  C_14 
ROOT
HETATM    1  C           1     -21.873  -7.777  -4.088  0.00  0.00     0.278 C 
ENDROOT
BRANCH   1   2
HETATM    2  C           1     -20.881  -7.246  -3.061  0.00  0.00     0.081 C 
BRANCH   2   3
HETATM    3  C           1     -21.323  -7.644  -1.688  0.00  0.00    -0.056 A 
HETATM    4  C           1     -20.671  -8.680  -1.018  0.00  0.00     0.007 A 
HETATM    5  C           1     -21.083  -9.051   0.261  0.00  0.00     0.001 A 
HETATM    6  C           1     -22.146  -8.388   0.871  0.00  0.00     0.000 A 
HETATM    7  C           1     -22.799  -7.353   0.202  0.00  0.00     0.001 A 
HETATM    8  C           1     -22.388  -6.981  -1.078  0.00  0.00     0.007 A 
ENDBRANCH   2   3
ENDBRANCH   1   2
BRANCH   1   9
HETATM    9  N           1     -21.769  -9.272  -4.156  0.00  0.00    -0.066 N 
HETATM   10  H           1     -21.836  -9.670  -3.192  0.00  0.00     0.275 HD
HETATM   11  H           1     -22.549  -9.647  -4.742  0.00  0.00     0.275 HD
HETATM   12  H           1     -20.853  -9.538  -4.582  0.00  0.00     0.275 HD
ENDBRANCH   1   9
BRANCH   1  13
HETATM   13  C           1     -21.558  -7.189  -5.442  0.00  0.00     0.249 C 
HETATM   14  O           1     -21.107  -7.890  -6.316  0.00  0.00    -0.271 OA
HETATM   15  N           1     -21.784  -5.859  -5.681  0.00  0.00    -0.345 N 
HETATM   16  H           1     -22.162  -5.271  -4.949  0.00  0.00     0.163 HD
BRANCH  15  17
HETATM   17  C           1     -21.482  -5.295  -6.981  0.00  0.00     0.185 C 
BRANCH  17  18
HETATM   18  C           1     -22.597  -4.342  -7.393  0.00  0.00     0.039 C 
BRANCH  18  19
HETATM   19 Se           1     -22.885  -4.471  -9.317  0.00  0.00     0.000 Se
HETATM   20  H           1     -23.405  -5.847  -9.263  0.00  0.00     0.000 HD
ENDBRANCH  18  19
ENDBRANCH  17  18
BRANCH  17  21
HETATM   21  C           1     -20.177  -4.541  -6.911  0.00  0.00     0.196 C 
HETATM   22  O           1     -19.774  -3.894  -7.901  0.00  0.00    -0.646 OA
HETATM   23  O           1     -19.497  -4.565  -5.861  0.00  0.00    -0.646 OA
ENDBRANCH  17  21
ENDBRANCH  15  17
ENDBRANCH   1  13
TORSDOF 8
ENDMDL
MODEL 6
REMARK VINA RESULT:      -6.1     11.793     14.446
REMARK  8 active torsions:
REMARK  status: ('A' for Active; 'I' for Inactive)
REMARK    1  A    between atoms: C_3  and  C_9 
REMARK    2  A    between atoms: C_3  and  C_16 
REMARK    3  A    between atoms: N_4  and  C_9 
REMARK    4  A    between atoms: C_9  and  C_19 
REMARK    5  A    between atoms: Se_10  and  C_20 
REMARK    6  A    between atoms: N_12  and  C_13 
REMARK       I    between atoms: N_12  and  C_19 
REMARK    7  A    between atoms: C_13  and  C_20 
REMARK    8  A    between atoms: C_13  and  C_14 
ROOT
HETATM    1  C           1     -26.366  -7.819 -20.651  0.00  0.00     0.278 C 
ENDROOT
BRANCH   1   2
HETATM    2  C           1     -25.569  -7.403 -21.881  0.00  0.00     0.081 C 
BRANCH   2   3
HETATM    3  C           1     -24.168  -7.915 -21.765  0.00  0.00    -0.056 A 
HETATM    4  C           1     -23.530  -7.928 -20.526  0.00  0.00     0.007 A 
HETATM    5  C           1     -22.224  -8.405 -20.419  0.00  0.00     0.001 A 
HETATM    6  C           1     -21.556  -8.870 -21.550  0.00  0.00     0.000 A 
HETATM    7  C           1     -22.193  -8.857 -22.791  0.00  0.00     0.001 A 
HETATM    8  C           1     -23.500  -8.380 -22.899  0.00  0.00     0.007 A 
ENDBRANCH   2   3
ENDBRANCH   1   2
BRANCH   1   9
HETATM    9  N           1     -27.472  -8.745 -21.062  0.00  0.00    -0.066 N 
HETATM   10  H           1     -28.348  -8.491 -20.552  0.00  0.00     0.275 HD
HETATM   11  H           1     -27.631  -8.659 -22.092  0.00  0.00     0.275 HD
HETATM   12  H           1     -27.206  -9.729 -20.831  0.00  0.00     0.275 HD
ENDBRANCH   1   9
BRANCH   1  13
HETATM   13  C           1     -26.955  -6.594 -19.995  0.00  0.00     0.249 C 
HETATM   14  O           1     -27.063  -5.566 -20.620  0.00  0.00    -0.271 OA
HETATM   15  N           1     -27.367  -6.647 -18.689  0.00  0.00    -0.345 N 
HETATM   16  H           1     -27.275  -7.509 -18.165  0.00  0.00     0.163 HD
BRANCH  15  17
HETATM   17  C           1     -27.932  -5.471 -18.059  0.00  0.00     0.185 C 
BRANCH  17  18
HETATM   18  C           1     -29.445  -5.621 -17.968  0.00  0.00     0.039 C 
BRANCH  18  19
HETATM   19 Se           1     -29.900  -7.502 -17.730  0.00  0.00     0.000 Se
HETATM   20  H           1     -30.351  -7.688 -19.118  0.00  0.00     0.000 HD
ENDBRANCH  18  19
ENDBRANCH  17  18
BRANCH  17  21
HETATM   21  C           1     -27.358  -5.320 -16.672  0.00  0.00     0.196 C 
HETATM   22  O           1     -28.078  -4.904 -15.739  0.00  0.00    -0.646 OA
HETATM   23  O           1     -26.161  -5.609 -16.456  0.00  0.00    -0.646 OA
ENDBRANCH  17  21
ENDBRANCH  15  17
ENDBRANCH   1  13
TORSDOF 8
ENDMDL
MODEL 7
REMARK VINA RESULT:      -5.9      2.258      3.516
REMARK  8 active torsions:
REMARK  status: ('A' for Active; 'I' for Inactive)
REMARK    1  A    between atoms: C_3  and  C_9 
REMARK    2  A    between atoms: C_3  and  C_16 
REMARK    3  A    between atoms: N_4  and  C_9 
REMARK    4  A    between atoms: C_9  and  C_19 
REMARK    5  A    between atoms: Se_10  and  C_20 
REMARK    6  A    between atoms: N_12  and  C_13 
REMARK       I    between atoms: N_12  and  C_19 
REMARK    7  A    between atoms: C_13  and  C_20 
REMARK    8  A    between atoms: C_13  and  C_14 
ROOT
HETATM    1  C           1     -21.480  -8.075  -4.390  0.00  0.00     0.278 C 
ENDROOT
BRANCH   1   2
HETATM    2  C           1     -20.623  -8.211  -3.138  0.00  0.00     0.081 C 
BRANCH   2   3
HETATM    3  C           1     -21.507  -8.387  -1.944  0.00  0.00    -0.056 A 
HETATM    4  C           1     -21.983  -9.655  -1.609  0.00  0.00     0.007 A 
HETATM    5  C           1     -22.807  -9.819  -0.497  0.00  0.00     0.001 A 
HETATM    6  C           1     -23.157  -8.717   0.281  0.00  0.00     0.000 A 
HETATM    7  C           1     -22.682  -7.449  -0.053  0.00  0.00     0.001 A 
HETATM    8  C           1     -21.857  -7.283  -1.166  0.00  0.00     0.007 A 
ENDBRANCH   2   3
ENDBRANCH   1   2
BRANCH   1   9
HETATM    9  N           1     -21.052  -9.097  -5.401  0.00  0.00    -0.066 N 
HETATM   10  H           1     -20.235  -9.633  -5.030  0.00  0.00     0.275 HD
HETATM   11  H           1     -21.843  -9.754  -5.587  0.00  0.00     0.275 HD
HETATM   12  H           1     -20.780  -8.617  -6.288  0.00  0.00     0.275 HD
ENDBRANCH   1   9
BRANCH   1  13
HETATM   13  C           1     -21.308  -6.692  -4.970  0.00  0.00     0.249 C 
HETATM   14  O           1     -20.984  -5.773  -4.256  0.00  0.00    -0.271 OA
HETATM   15  N           1     -21.520  -6.479  -6.306  0.00  0.00    -0.345 N 
HETATM   16  H           1     -21.792  -7.249  -6.904  0.00  0.00     0.163 HD
BRANCH  15  17
HETATM   17  C           1     -21.355  -5.151  -6.864  0.00  0.00     0.185 C 
BRANCH  17  18
HETATM   18  C           1     -20.467  -5.225  -8.098  0.00  0.00     0.039 C 
BRANCH  18  19
HETATM   19 Se           1     -18.992  -3.963  -7.915  0.00  0.00     0.000 Se
HETATM   20  H           1     -19.487  -3.055  -8.962  0.00  0.00     0.000 HD
ENDBRANCH  18  19
ENDBRANCH  17  18
BRANCH  17  21
HETATM   21  C           1     -22.705  -4.597  -7.248  0.00  0.00     0.196 C 
HETATM   22  O           1     -23.684  -4.752  -6.487  0.00  0.00    -0.646 OA
HETATM   23  O           1     -22.843  -3.982  -8.327  0.00  0.00    -0.646 OA
ENDBRANCH  17  21
ENDBRANCH  15  17
ENDBRANCH   1  13
TORSDOF 8
ENDMDL
MODEL 8
REMARK VINA RESULT:      -5.9      3.790      6.984
REMARK  8 active torsions:
REMARK  status: ('A' for Active; 'I' for Inactive)
REMARK    1  A    between atoms: C_3  and  C_9 
REMARK    2  A    between atoms: C_3  and  C_16 
REMARK    3  A    between atoms: N_4  and  C_9 
REMARK    4  A    between atoms: C_9  and  C_19 
REMARK    5  A    between atoms: Se_10  and  C_20 
REMARK    6  A    between atoms: N_12  and  C_13 
REMARK       I    between atoms: N_12  and  C_19 
REMARK    7  A    between atoms: C_13  and  C_20 
REMARK    8  A    between atoms: C_13  and  C_14 
ROOT
HETATM    1  C           1     -21.715  -5.922  -6.387  0.00  0.00     0.278 C 
ENDROOT
BRANCH   1   2
HETATM    2  C           1     -20.951  -4.662  -6.772  0.00  0.00     0.081 C 
BRANCH   2   3
HETATM    3  C           1     -21.113  -4.407  -8.237  0.00  0.00    -0.056 A 
HETATM    4  C           1     -20.081  -4.727  -9.119  0.00  0.00     0.007 A 
HETATM    5  C           1     -20.233  -4.489 -10.485  0.00  0.00     0.001 A 
HETATM    6  C           1     -21.415  -3.931 -10.969  0.00  0.00     0.000 A 
HETATM    7  C           1     -22.447  -3.611 -10.088  0.00  0.00     0.001 A 
HETATM    8  C           1     -22.297  -3.849  -8.721  0.00  0.00     0.007 A 
ENDBRANCH   2   3
ENDBRANCH   1   2
BRANCH   1   9
HETATM    9  N           1     -23.044  -5.540  -5.804  0.00  0.00    -0.066 N 
HETATM   10  H           1     -22.999  -5.603  -4.762  0.00  0.00     0.275 HD
HETATM   11  H           1     -23.277  -4.561  -6.084  0.00  0.00     0.275 HD
HETATM   12  H           1     -23.780  -6.190  -6.161  0.00  0.00     0.275 HD
ENDBRANCH   1   9
BRANCH   1  13
HETATM   13  C           1     -20.923  -6.699  -5.364  0.00  0.00     0.249 C 
HETATM   14  O           1     -20.777  -6.257  -4.249  0.00  0.00    -0.271 OA
HETATM   15  N           1     -20.368  -7.905  -5.699  0.00  0.00    -0.345 N 
HETATM   16  H           1     -20.490  -8.275  -6.634  0.00  0.00     0.163 HD
BRANCH  15  17
HETATM   17  C           1     -19.608  -8.652  -4.717  0.00  0.00     0.185 C 
BRANCH  17  18
HETATM   18  C           1     -20.481  -9.750  -4.125  0.00  0.00     0.039 C 
BRANCH  18  19
HETATM   19 Se           1     -21.081 -10.942  -5.546  0.00  0.00     0.000 Se
HETATM   20  H           1     -22.085 -10.002  -6.068  0.00  0.00     0.000 HD
ENDBRANCH  18  19
ENDBRANCH  17  18
BRANCH  17  21
HETATM   21  C           1     -18.402  -9.271  -5.381  0.00  0.00     0.196 C 
HETATM   22  O           1     -17.647 -10.024  -4.729  0.00  0.00    -0.646 OA
HETATM   23  O           1     -18.158  -9.030  -6.583  0.00  0.00    -0.646 OA
ENDBRANCH  17  21
ENDBRANCH  15  17
ENDBRANCH   1  13
TORSDOF 8
ENDMDL
MODEL 9
REMARK VINA RESULT:      -5.9      4.263      7.201
REMARK  8 active torsions:
REMARK  status: ('A' for Active; 'I' for Inactive)
REMARK    1  A    between atoms: C_3  and  C_9 
REMARK    2  A    between atoms: C_3  and  C_16 
REMARK    3  A    between atoms: N_4  and  C_9 
REMARK    4  A    between atoms: C_9  and  C_19 
REMARK    5  A    between atoms: Se_10  and  C_20 
REMARK    6  A    between atoms: N_12  and  C_13 
REMARK       I    between atoms: N_12  and  C_19 
REMARK    7  A    between atoms: C_13  and  C_20 
REMARK    8  A    between atoms: C_13  and  C_14 
ROOT
HETATM    1  C           1     -21.660  -6.334  -4.860  0.00  0.00     0.278 C 
ENDROOT
BRANCH   1   2
HETATM    2  C           1     -20.634  -5.286  -5.272  0.00  0.00     0.081 C 
BRANCH   2   3
HETATM    3  C           1     -20.858  -4.902  -6.700  0.00  0.00    -0.056 A 
HETATM    4  C           1     -22.126  -4.507  -7.126  0.00  0.00     0.007 A 
HETATM    5  C           1     -22.335  -4.150  -8.458  0.00  0.00     0.001 A 
HETATM    6  C           1     -21.276  -4.187  -9.364  0.00  0.00     0.000 A 
HETATM    7  C           1     -20.008  -4.582  -8.939  0.00  0.00     0.001 A 
HETATM    8  C           1     -19.798  -4.940  -7.607  0.00  0.00     0.007 A 
ENDBRANCH   2   3
ENDBRANCH   1   2
BRANCH   1   9
HETATM    9  N           1     -22.098  -6.075  -3.448  0.00  0.00    -0.066 N 
HETATM   10  H           1     -22.545  -5.132  -3.389  0.00  0.00     0.275 HD
HETATM   11  H           1     -22.788  -6.806  -3.159  0.00  0.00     0.275 HD
HETATM   12  H           1     -21.268  -6.108  -2.815  0.00  0.00     0.275 HD
ENDBRANCH   1   9
BRANCH   1  13
HETATM   13  C           1     -21.042  -7.708  -4.950  0.00  0.00     0.249 C 
HETATM   14  O           1     -21.157  -8.357  -5.962  0.00  0.00    -0.271 OA
HETATM   15  N           1     -20.351  -8.219  -3.884  0.00  0.00    -0.345 N 
HETATM   16  H           1     -20.256  -7.675  -3.035  0.00  0.00     0.163 HD
BRANCH  15  17
HETATM   17  C           1     -19.758  -9.538  -3.971  0.00  0.00     0.185 C 
BRANCH  17  18
HETATM   18  C           1     -18.246  -9.408  -4.102  0.00  0.00     0.039 C 
BRANCH  18  19
HETATM   19 Se           1     -17.700  -9.946  -5.894  0.00  0.00     0.000 Se
HETATM   20  H           1     -16.290 -10.152  -5.528  0.00  0.00     0.000 HD
ENDBRANCH  18  19
ENDBRANCH  17  18
BRANCH  17  21
HETATM   21  C           1     -20.088 -10.321  -2.724  0.00  0.00     0.196 C 
HETATM   22  O           1     -20.425  -9.721  -1.680  0.00  0.00    -0.646 OA
HETATM   23  O           1     -20.025 -11.569  -2.734  0.00  0.00    -0.646 OA
ENDBRANCH  17  21
ENDBRANCH  15  17
ENDBRANCH   1  13
TORSDOF 8
ENDMDL
