MODEL 1
REMARK VINA RESULT:      -5.8      0.000      0.000
REMARK  8 active torsions:
REMARK  status: ('A' for Active; 'I' for Inactive)
REMARK    1  A    between atoms: N_1  and  C_8 
REMARK       I    between atoms: N_1  and  C_14 
REMARK    2  A    between atoms: N_6  and  C_13 
REMARK    3  A    between atoms: C_8  and  C_16 
REMARK    4  A    between atoms: C_8  and  C_18 
REMARK    5  A    between atoms: C_12  and  C_13 
REMARK    6  A    between atoms: C_12  and  S_15 
REMARK    7  A    between atoms: C_13  and  C_14 
REMARK    8  A    between atoms: C_16  and  O_20 
ROOT
HETATM    1  N           1     -22.133  -4.796  -9.075  0.00  0.00    -0.343 N 
HETATM    2  O           1     -21.682  -3.437  -7.361  0.00  0.00    -0.271 OA
HETATM    3  H           1     -22.138  -5.738  -9.444  0.00  0.00     0.163 HD
HETATM    4  C           1     -21.687  -4.562  -7.802  0.00  0.00     0.249 C 
ENDROOT
BRANCH   1   5
HETATM    5  C           1     -22.597  -3.693  -9.894  0.00  0.00     0.214 C 
BRANCH   5   6
HETATM    6  C           1     -21.807  -3.661 -11.196  0.00  0.00     0.147 C 
HETATM    7  C           1     -20.429  -4.268 -10.967  0.00  0.00     0.042 C 
BRANCH   6   8
HETATM    8  O           1     -22.488  -4.400 -12.174  0.00  0.00    -0.393 OA
HETATM    9  H           1     -22.538  -5.287 -11.860  0.00  0.00     0.210 HD
ENDBRANCH   6   8
ENDBRANCH   5   6
BRANCH   5  10
HETATM   10  C           1     -24.064  -3.877 -10.200  0.00  0.00     0.199 C 
HETATM   11  O           1     -24.715  -2.944 -10.717  0.00  0.00    -0.646 OA
HETATM   12  O           1     -24.625  -4.962  -9.937  0.00  0.00    -0.646 OA
ENDBRANCH   5  10
ENDBRANCH   1   5
BRANCH   4  13
HETATM   13  C           1     -21.204  -5.709  -6.949  0.00  0.00     0.283 C 
BRANCH  13  14
HETATM   14  N           1     -19.922  -6.245  -7.514  0.00  0.00    -0.066 N 
HETATM   15  H           1     -20.136  -6.935  -8.269  0.00  0.00     0.275 HD
HETATM   16  H           1     -19.377  -6.714  -6.756  0.00  0.00     0.275 HD
HETATM   17  H           1     -19.361  -5.459  -7.912  0.00  0.00     0.275 HD
ENDBRANCH  13  14
BRANCH  13  18
HETATM   18  C           1     -20.966  -5.220  -5.527  0.00  0.00     0.113 C 
BRANCH  18  19
HETATM   19  S           1     -21.612  -6.440  -4.349  0.00  0.00    -0.180 SA
HETATM   20  H           1     -20.890  -6.016  -3.296  0.00  0.00     0.101 HD
ENDBRANCH  18  19
ENDBRANCH  13  18
ENDBRANCH   4  13
TORSDOF 8
ENDMDL
MODEL 2
REMARK VINA RESULT:      -4.7      1.755      2.497
REMARK  8 active torsions:
REMARK  status: ('A' for Active; 'I' for Inactive)
REMARK    1  A    between atoms: N_1  and  C_8 
REMARK       I    between atoms: N_1  and  C_14 
REMARK    2  A    between atoms: N_6  and  C_13 
REMARK    3  A    between atoms: C_8  and  C_16 
REMARK    4  A    between atoms: C_8  and  C_18 
REMARK    5  A    between atoms: C_12  and  C_13 
REMARK    6  A    between atoms: C_12  and  S_15 
REMARK    7  A    between atoms: C_13  and  C_14 
REMARK    8  A    between atoms: C_16  and  O_20 
ROOT
HETATM    1  N           1     -22.251  -4.300  -9.109  0.00  0.00    -0.343 N 
HETATM    2  O           1     -20.381  -5.396  -8.570  0.00  0.00    -0.271 OA
HETATM    3  H           1     -23.032  -3.735  -8.803  0.00  0.00     0.163 HD
HETATM    4  C           1     -21.314  -4.721  -8.204  0.00  0.00     0.249 C 
ENDROOT
BRANCH   1   5
HETATM    5  C           1     -22.123  -4.664 -10.506  0.00  0.00     0.214 C 
BRANCH   5   6
HETATM    6  C           1     -23.509  -4.833 -11.115  0.00  0.00     0.147 C 
HETATM    7  C           1     -24.466  -3.832 -10.481  0.00  0.00     0.042 C 
BRANCH   6   8
HETATM    8  O           1     -23.442  -4.606 -12.497  0.00  0.00    -0.393 OA
HETATM    9  H           1     -23.461  -5.450 -12.914  0.00  0.00     0.210 HD
ENDBRANCH   6   8
ENDBRANCH   5   6
BRANCH   5  10
HETATM   10  C           1     -21.378  -3.577 -11.243  0.00  0.00     0.199 C 
HETATM   11  O           1     -21.971  -2.529 -11.576  0.00  0.00    -0.646 OA
HETATM   12  O           1     -20.169  -3.727 -11.519  0.00  0.00    -0.646 OA
ENDBRANCH   5  10
ENDBRANCH   1   5
BRANCH   4  13
HETATM   13  C           1     -21.447  -4.342  -6.749  0.00  0.00     0.283 C 
BRANCH  13  14
HETATM   14  N           1     -22.720  -4.913  -6.199  0.00  0.00    -0.066 N 
HETATM   15  H           1     -22.783  -5.927  -6.447  0.00  0.00     0.275 HD
HETATM   16  H           1     -23.535  -4.402  -6.607  0.00  0.00     0.275 HD
HETATM   17  H           1     -22.728  -4.810  -5.159  0.00  0.00     0.275 HD
ENDBRANCH  13  14
BRANCH  13  18
HETATM   18  C           1     -20.263  -4.899  -5.969  0.00  0.00     0.113 C 
BRANCH  18  19
HETATM   19  S           1     -20.761  -6.420  -5.113  0.00  0.00    -0.180 SA
HETATM   20  H           1     -19.515  -6.831  -4.819  0.00  0.00     0.101 HD
ENDBRANCH  18  19
ENDBRANCH  13  18
ENDBRANCH   4  13
TORSDOF 8
ENDMDL
MODEL 3
REMARK VINA RESULT:      -4.5      2.425      3.618
REMARK  8 active torsions:
REMARK  status: ('A' for Active; 'I' for Inactive)
REMARK    1  A    between atoms: N_1  and  C_8 
REMARK       I    between atoms: N_1  and  C_14 
REMARK    2  A    between atoms: N_6  and  C_13 
REMARK    3  A    between atoms: C_8  and  C_16 
REMARK    4  A    between atoms: C_8  and  C_18 
REMARK    5  A    between atoms: C_12  and  C_13 
REMARK    6  A    between atoms: C_12  and  S_15 
REMARK    7  A    between atoms: C_13  and  C_14 
REMARK    8  A    between atoms: C_16  and  O_20 
ROOT
HETATM    1  N           1     -21.504  -5.044  -6.734  0.00  0.00    -0.343 N 
HETATM    2  O           1     -21.043  -7.229  -6.762  0.00  0.00    -0.271 OA
HETATM    3  H           1     -21.642  -4.204  -6.188  0.00  0.00     0.163 HD
HETATM    4  C           1     -21.208  -6.226  -6.110  0.00  0.00     0.249 C 
ENDROOT
BRANCH   1   5
HETATM    5  C           1     -21.621  -4.997  -8.179  0.00  0.00     0.214 C 
BRANCH   5   6
HETATM    6  C           1     -22.792  -4.103  -8.564  0.00  0.00     0.147 C 
HETATM    7  C           1     -23.400  -4.598  -9.869  0.00  0.00     0.042 C 
BRANCH   6   8
HETATM    8  O           1     -23.762  -4.142  -7.551  0.00  0.00    -0.393 OA
HETATM    9  H           1     -23.322  -4.409  -6.762  0.00  0.00     0.210 HD
ENDBRANCH   6   8
ENDBRANCH   5   6
BRANCH   5  10
HETATM   10  C           1     -20.348  -4.442  -8.769  0.00  0.00     0.199 C 
HETATM   11  O           1     -19.622  -3.686  -8.088  0.00  0.00    -0.646 OA
HETATM   12  O           1     -20.020  -4.739  -9.937  0.00  0.00    -0.646 OA
ENDBRANCH   5  10
ENDBRANCH   1   5
BRANCH   4  13
HETATM   13  C           1     -21.086  -6.275  -4.606  0.00  0.00     0.283 C 
BRANCH  13  14
HETATM   14  N           1     -22.445  -6.117  -3.990  0.00  0.00    -0.066 N 
HETATM   15  H           1     -23.098  -5.701  -4.692  0.00  0.00     0.275 HD
HETATM   16  H           1     -22.379  -5.490  -3.158  0.00  0.00     0.275 HD
HETATM   17  H           1     -22.804  -7.053  -3.695  0.00  0.00     0.275 HD
ENDBRANCH  13  14
BRANCH  13  18
HETATM   18  C           1     -20.492  -7.613  -4.188  0.00  0.00     0.113 C 
BRANCH  18  19
HETATM   19  S           1     -21.028  -8.015  -2.501  0.00  0.00    -0.180 SA
HETATM   20  H           1     -20.183  -9.047  -2.326  0.00  0.00     0.101 HD
ENDBRANCH  18  19
ENDBRANCH  13  18
ENDBRANCH   4  13
TORSDOF 8
ENDMDL
MODEL 4
REMARK VINA RESULT:      -4.1      6.783      8.837
REMARK  8 active torsions:
REMARK  status: ('A' for Active; 'I' for Inactive)
REMARK    1  A    between atoms: N_1  and  C_8 
REMARK       I    between atoms: N_1  and  C_14 
REMARK    2  A    between atoms: N_6  and  C_13 
REMARK    3  A    between atoms: C_8  and  C_16 
REMARK    4  A    between atoms: C_8  and  C_18 
REMARK    5  A    between atoms: C_12  and  C_13 
REMARK    6  A    between atoms: C_12  and  S_15 
REMARK    7  A    between atoms: C_13  and  C_14 
REMARK    8  A    between atoms: C_16  and  O_20 
ROOT
HETATM    1  N           1     -21.472  -8.465  -2.651  0.00  0.00    -0.343 N 
HETATM    2  O           1     -19.315  -8.938  -2.982  0.00  0.00    -0.271 OA
HETATM    3  H           1     -22.365  -8.207  -3.052  0.00  0.00     0.163 HD
HETATM    4  C           1     -20.380  -8.630  -3.461  0.00  0.00     0.249 C 
ENDROOT
BRANCH   1   5
HETATM    5  C           1     -21.349  -8.662  -1.220  0.00  0.00     0.214 C 
BRANCH   5   6
HETATM    6  C           1     -21.975  -7.480  -0.491  0.00  0.00     0.147 C 
HETATM    7  C           1     -22.305  -6.382  -1.493  0.00  0.00     0.042 C 
BRANCH   6   8
HETATM    8  O           1     -23.150  -7.897   0.151  0.00  0.00    -0.393 OA
HETATM    9  H           1     -23.065  -8.823   0.305  0.00  0.00     0.210 HD
ENDBRANCH   6   8
ENDBRANCH   5   6
BRANCH   5  10
HETATM   10  C           1     -22.061  -9.933  -0.823  0.00  0.00     0.199 C 
HETATM   11  O           1     -21.769 -10.503   0.250  0.00  0.00    -0.646 OA
HETATM   12  O           1     -22.942 -10.413  -1.568  0.00  0.00    -0.646 OA
ENDBRANCH   5  10
ENDBRANCH   1   5
BRANCH   4  13
HETATM   13  C           1     -20.508  -8.426  -4.950  0.00  0.00     0.283 C 
BRANCH  13  14
HETATM   14  N           1     -20.838  -9.734  -5.607  0.00  0.00    -0.066 N 
HETATM   15  H           1     -21.054 -10.446  -4.873  0.00  0.00     0.275 HD
HETATM   16  H           1     -20.022 -10.053  -6.175  0.00  0.00     0.275 HD
HETATM   17  H           1     -21.670  -9.612  -6.227  0.00  0.00     0.275 HD
ENDBRANCH  13  14
BRANCH  13  18
HETATM   18  C           1     -21.619  -7.423  -5.232  0.00  0.00     0.113 C 
BRANCH  18  19
HETATM   19  S           1     -20.927  -5.745  -5.272  0.00  0.00    -0.180 SA
HETATM   20  H           1     -21.479  -5.338  -4.115  0.00  0.00     0.101 HD
ENDBRANCH  18  19
ENDBRANCH  13  18
ENDBRANCH   4  13
TORSDOF 8
ENDMDL
MODEL 5
REMARK VINA RESULT:      -4.1      2.482      3.179
REMARK  8 active torsions:
REMARK  status: ('A' for Active; 'I' for Inactive)
REMARK    1  A    between atoms: N_1  and  C_8 
REMARK       I    between atoms: N_1  and  C_14 
REMARK    2  A    between atoms: N_6  and  C_13 
REMARK    3  A    between atoms: C_8  and  C_16 
REMARK    4  A    between atoms: C_8  and  C_18 
REMARK    5  A    between atoms: C_12  and  C_13 
REMARK    6  A    between atoms: C_12  and  S_15 
REMARK    7  A    between atoms: C_13  and  C_14 
REMARK    8  A    between atoms: C_16  and  O_20 
ROOT
HETATM    1  N           1     -21.108  -5.889  -6.958  0.00  0.00    -0.343 N 
HETATM    2  O           1     -21.436  -5.573  -4.771  0.00  0.00    -0.271 OA
HETATM    3  H           1     -20.963  -6.541  -7.718  0.00  0.00     0.163 HD
HETATM    4  C           1     -21.263  -6.352  -5.679  0.00  0.00     0.249 C 
ENDROOT
BRANCH   1   5
HETATM    5  C           1     -21.151  -4.464  -7.223  0.00  0.00     0.214 C 
BRANCH   5   6
HETATM    6  C           1     -19.986  -4.081  -8.125  0.00  0.00     0.147 C 
HETATM    7  C           1     -18.674  -4.346  -7.399  0.00  0.00     0.042 C 
BRANCH   6   8
HETATM    8  O           1     -20.033  -4.845  -9.300  0.00  0.00    -0.393 OA
HETATM    9  H           1     -20.743  -5.457  -9.199  0.00  0.00     0.210 HD
ENDBRANCH   6   8
ENDBRANCH   5   6
BRANCH   5  10
HETATM   10  C           1     -22.452  -4.119  -7.907  0.00  0.00     0.199 C 
HETATM   11  O           1     -22.441  -3.544  -9.016  0.00  0.00    -0.646 OA
HETATM   12  O           1     -23.539  -4.410  -7.363  0.00  0.00    -0.646 OA
ENDBRANCH   5  10
ENDBRANCH   1   5
BRANCH   4  13
HETATM   13  C           1     -21.218  -7.834  -5.403  0.00  0.00     0.283 C 
BRANCH  13  14
HETATM   14  N           1     -19.831  -8.347  -5.655  0.00  0.00    -0.066 N 
HETATM   15  H           1     -19.654  -8.378  -6.685  0.00  0.00     0.275 HD
HETATM   16  H           1     -19.737  -9.308  -5.255  0.00  0.00     0.275 HD
HETATM   17  H           1     -19.137  -7.711  -5.202  0.00  0.00     0.275 HD
ENDBRANCH  13  14
BRANCH  13  18
HETATM   18  C           1     -21.597  -8.093  -3.950  0.00  0.00     0.113 C 
BRANCH  18  19
HETATM   19  S           1     -21.097  -9.773  -3.482  0.00  0.00    -0.180 SA
HETATM   20  H           1     -19.788  -9.498  -3.346  0.00  0.00     0.101 HD
ENDBRANCH  18  19
ENDBRANCH  13  18
ENDBRANCH   4  13
TORSDOF 8
ENDMDL
MODEL 6
REMARK VINA RESULT:      -4.1      5.396      6.981
REMARK  8 active torsions:
REMARK  status: ('A' for Active; 'I' for Inactive)
REMARK    1  A    between atoms: N_1  and  C_8 
REMARK       I    between atoms: N_1  and  C_14 
REMARK    2  A    between atoms: N_6  and  C_13 
REMARK    3  A    between atoms: C_8  and  C_16 
REMARK    4  A    between atoms: C_8  and  C_18 
REMARK    5  A    between atoms: C_12  and  C_13 
REMARK    6  A    between atoms: C_12  and  S_15 
REMARK    7  A    between atoms: C_13  and  C_14 
REMARK    8  A    between atoms: C_16  and  O_20 
ROOT
HETATM    1  N           1     -20.285  -8.171  -4.163  0.00  0.00    -0.343 N 
HETATM    2  O           1     -21.020  -9.618  -5.697  0.00  0.00    -0.271 OA
HETATM    3  H           1     -19.511  -7.825  -3.612  0.00  0.00     0.163 HD
HETATM    4  C           1     -20.094  -9.205  -5.039  0.00  0.00     0.249 C 
ENDROOT
BRANCH   1   5
HETATM    5  C           1     -21.599  -7.572  -4.024  0.00  0.00     0.214 C 
BRANCH   5   6
HETATM    6  C           1     -21.870  -7.282  -2.554  0.00  0.00     0.147 C 
HETATM    7  C           1     -20.652  -7.671  -1.727  0.00  0.00     0.042 C 
BRANCH   6   8
HETATM    8  O           1     -22.130  -5.913  -2.389  0.00  0.00    -0.393 OA
HETATM    9  H           1     -22.826  -5.841  -1.758  0.00  0.00     0.210 HD
ENDBRANCH   6   8
ENDBRANCH   5   6
BRANCH   5  10
HETATM   10  C           1     -21.650  -6.285  -4.810  0.00  0.00     0.199 C 
HETATM   11  O           1     -22.725  -5.910  -5.325  0.00  0.00    -0.646 OA
HETATM   12  O           1     -20.618  -5.594  -4.945  0.00  0.00    -0.646 OA
ENDBRANCH   5  10
ENDBRANCH   1   5
BRANCH   4  13
HETATM   13  C           1     -18.727  -9.828  -5.184  0.00  0.00     0.283 C 
BRANCH  13  14
HETATM   14  N           1     -18.048  -9.265  -6.397  0.00  0.00    -0.066 N 
HETATM   15  H           1     -18.002  -9.997  -7.142  0.00  0.00     0.275 HD
HETATM   16  H           1     -17.081  -8.962  -6.145  0.00  0.00     0.275 HD
HETATM   17  H           1     -18.590  -8.444  -6.750  0.00  0.00     0.275 HD
ENDBRANCH  13  14
BRANCH  13  18
HETATM   18  C           1     -17.894  -9.519  -3.947  0.00  0.00     0.113 C 
BRANCH  18  19
HETATM   19  S           1     -16.166  -9.987  -4.246  0.00  0.00    -0.180 SA
HETATM   20  H           1     -15.901 -10.363  -2.983  0.00  0.00     0.101 HD
ENDBRANCH  18  19
ENDBRANCH  13  18
ENDBRANCH   4  13
TORSDOF 8
ENDMDL
MODEL 7
REMARK VINA RESULT:      -4.0     17.631     18.281
REMARK  8 active torsions:
REMARK  status: ('A' for Active; 'I' for Inactive)
REMARK    1  A    between atoms: N_1  and  C_8 
REMARK       I    between atoms: N_1  and  C_14 
REMARK    2  A    between atoms: N_6  and  C_13 
REMARK    3  A    between atoms: C_8  and  C_16 
REMARK    4  A    between atoms: C_8  and  C_18 
REMARK    5  A    between atoms: C_12  and  C_13 
REMARK    6  A    between atoms: C_12  and  S_15 
REMARK    7  A    between atoms: C_13  and  C_14 
REMARK    8  A    between atoms: C_16  and  O_20 
ROOT
HETATM    1  N           1     -10.211 -12.554 -19.734  0.00  0.00    -0.343 N 
HETATM    2  O           1      -8.821 -13.636 -18.361  0.00  0.00    -0.271 OA
HETATM    3  H           1     -11.153 -12.435 -20.081  0.00  0.00     0.163 HD
HETATM    4  C           1      -9.947 -13.495 -18.776  0.00  0.00     0.249 C 
ENDROOT
BRANCH   1   5
HETATM    5  C           1      -9.138 -11.727 -20.252  0.00  0.00     0.214 C 
BRANCH   5   6
HETATM    6  C           1      -9.282 -11.596 -21.762  0.00  0.00     0.147 C 
HETATM    7  C           1      -8.793 -12.874 -22.431  0.00  0.00     0.042 C 
BRANCH   6   8
HETATM    8  O           1     -10.631 -11.386 -22.086  0.00  0.00    -0.393 OA
HETATM    9  H           1     -10.756 -10.454 -22.145  0.00  0.00     0.210 HD
ENDBRANCH   6   8
ENDBRANCH   5   6
BRANCH   5  10
HETATM   10  C           1      -9.208 -10.358 -19.619  0.00  0.00     0.199 C 
HETATM   11  O           1      -9.730  -9.408 -20.241  0.00  0.00    -0.646 OA
HETATM   12  O           1      -8.745 -10.176 -18.473  0.00  0.00    -0.646 OA
ENDBRANCH   5  10
ENDBRANCH   1   5
BRANCH   4  13
HETATM   13  C           1     -11.064 -14.356 -18.237  0.00  0.00     0.283 C 
BRANCH  13  14
HETATM   14  N           1     -11.680 -15.135 -19.361  0.00  0.00    -0.066 N 
HETATM   15  H           1     -11.340 -14.756 -20.274  0.00  0.00     0.275 HD
HETATM   16  H           1     -12.720 -15.052 -19.312  0.00  0.00     0.275 HD
HETATM   17  H           1     -11.405 -16.140 -19.279  0.00  0.00     0.275 HD
ENDBRANCH  13  14
BRANCH  13  18
HETATM   18  C           1     -10.506 -15.319 -17.198  0.00  0.00     0.113 C 
BRANCH  18  19
HETATM   19  S           1     -11.828 -15.811 -16.055  0.00  0.00    -0.180 SA
HETATM   20  H           1     -12.753 -14.963 -16.537  0.00  0.00     0.101 HD
ENDBRANCH  18  19
ENDBRANCH  13  18
ENDBRANCH   4  13
TORSDOF 8
ENDMDL
MODEL 8
REMARK VINA RESULT:      -4.0      2.997      5.051
REMARK  8 active torsions:
REMARK  status: ('A' for Active; 'I' for Inactive)
REMARK    1  A    between atoms: N_1  and  C_8 
REMARK       I    between atoms: N_1  and  C_14 
REMARK    2  A    between atoms: N_6  and  C_13 
REMARK    3  A    between atoms: C_8  and  C_16 
REMARK    4  A    between atoms: C_8  and  C_18 
REMARK    5  A    between atoms: C_12  and  C_13 
REMARK    6  A    between atoms: C_12  and  S_15 
REMARK    7  A    between atoms: C_13  and  C_14 
REMARK    8  A    between atoms: C_16  and  O_20 
ROOT
HETATM    1  N           1     -21.363  -4.963  -8.736  0.00  0.00    -0.343 N 
HETATM    2  O           1     -20.119  -3.858 -10.226  0.00  0.00    -0.271 OA
HETATM    3  H           1     -22.271  -5.326  -8.479  0.00  0.00     0.163 HD
HETATM    4  C           1     -21.204  -4.292  -9.919  0.00  0.00     0.249 C 
ENDROOT
BRANCH   1   5
HETATM    5  C           1     -20.229  -5.151  -7.852  0.00  0.00     0.214 C 
BRANCH   5   6
HETATM    6  C           1     -20.180  -4.013  -6.842  0.00  0.00     0.147 C 
HETATM    7  C           1     -21.489  -3.235  -6.889  0.00  0.00     0.042 C 
BRANCH   6   8
HETATM    8  O           1     -19.995  -4.538  -5.555  0.00  0.00    -0.393 OA
HETATM    9  H           1     -19.914  -5.472  -5.650  0.00  0.00     0.210 HD
ENDBRANCH   6   8
ENDBRANCH   5   6
BRANCH   5  10
HETATM   10  C           1     -20.373  -6.465  -7.123  0.00  0.00     0.199 C 
HETATM   11  O           1     -19.355  -7.105  -6.784  0.00  0.00    -0.646 OA
HETATM   12  O           1     -21.509  -6.911  -6.859  0.00  0.00    -0.646 OA
ENDBRANCH   5  10
ENDBRANCH   1   5
BRANCH   4  13
HETATM   13  C           1     -22.383  -4.097 -10.840  0.00  0.00     0.283 C 
BRANCH  13  14
HETATM   14  N           1     -22.094  -4.739 -12.165  0.00  0.00    -0.066 N 
HETATM   15  H           1     -22.994  -4.948 -12.653  0.00  0.00     0.275 HD
HETATM   16  H           1     -21.564  -5.626 -12.012  0.00  0.00     0.275 HD
HETATM   17  H           1     -21.525  -4.088 -12.751  0.00  0.00     0.275 HD
ENDBRANCH  13  14
BRANCH  13  18
HETATM   18  C           1     -23.620  -4.738 -10.225  0.00  0.00     0.113 C 
BRANCH  18  19
HETATM   19  S           1     -24.754  -3.442  -9.650  0.00  0.00    -0.180 SA
HETATM   20  H           1     -23.967  -2.998  -8.654  0.00  0.00     0.101 HD
ENDBRANCH  18  19
ENDBRANCH  13  18
ENDBRANCH   4  13
TORSDOF 8
ENDMDL
MODEL 9
REMARK VINA RESULT:      -3.9      7.664      8.887
REMARK  8 active torsions:
REMARK  status: ('A' for Active; 'I' for Inactive)
REMARK    1  A    between atoms: N_1  and  C_8 
REMARK       I    between atoms: N_1  and  C_14 
REMARK    2  A    between atoms: N_6  and  C_13 
REMARK    3  A    between atoms: C_8  and  C_16 
REMARK    4  A    between atoms: C_8  and  C_18 
REMARK    5  A    between atoms: C_12  and  C_13 
REMARK    6  A    between atoms: C_12  and  S_15 
REMARK    7  A    between atoms: C_13  and  C_14 
REMARK    8  A    between atoms: C_16  and  O_20 
ROOT
HETATM    1  N           1     -21.158  -8.488  -2.704  0.00  0.00    -0.343 N 
HETATM    2  O           1     -19.062  -9.259  -2.653  0.00  0.00    -0.271 OA
HETATM    3  H           1     -21.971  -8.250  -3.257  0.00  0.00     0.163 HD
HETATM    4  C           1     -20.033  -8.976  -3.314  0.00  0.00     0.249 C 
ENDROOT
BRANCH   1   5
HETATM    5  C           1     -21.183  -8.311  -1.265  0.00  0.00     0.214 C 
BRANCH   5   6
HETATM    6  C           1     -21.914  -7.019  -0.926  0.00  0.00     0.147 C 
HETATM    7  C           1     -22.175  -6.233  -2.205  0.00  0.00     0.042 C 
BRANCH   6   8
HETATM    8  O           1     -23.134  -7.322  -0.305  0.00  0.00    -0.393 OA
HETATM    9  H           1     -23.294  -8.239  -0.450  0.00  0.00     0.210 HD
ENDBRANCH   6   8
ENDBRANCH   5   6
BRANCH   5  10
HETATM   10  C           1     -21.899  -9.477  -0.628  0.00  0.00     0.199 C 
HETATM   11  O           1     -22.788 -10.085  -1.260  0.00  0.00    -0.646 OA
HETATM   12  O           1     -21.601  -9.833   0.532  0.00  0.00    -0.646 OA
ENDBRANCH   5  10
ENDBRANCH   1   5
BRANCH   4  13
HETATM   13  C           1     -20.007  -9.160  -4.812  0.00  0.00     0.283 C 
BRANCH  13  14
HETATM   14  N           1     -20.526  -7.919  -5.476  0.00  0.00    -0.066 N 
HETATM   15  H           1     -19.776  -7.507  -6.077  0.00  0.00     0.275 HD
HETATM   16  H           1     -20.809  -7.226  -4.747  0.00  0.00     0.275 HD
HETATM   17  H           1     -21.352  -8.160  -6.068  0.00  0.00     0.275 HD
ENDBRANCH  13  14
BRANCH  13  18
HETATM   18  C           1     -18.577  -9.418  -5.267  0.00  0.00     0.113 C 
BRANCH  18  19
HETATM   19  S           1     -18.455 -11.089  -5.965  0.00  0.00    -0.180 SA
HETATM   20  H           1     -19.438 -11.626  -5.220  0.00  0.00     0.101 HD
ENDBRANCH  18  19
ENDBRANCH  13  18
ENDBRANCH   4  13
TORSDOF 8
ENDMDL
