MODEL 1
REMARK VINA RESULT:      -6.1      0.000      0.000
REMARK  9 active torsions:
REMARK  status: ('A' for Active; 'I' for Inactive)
REMARK       I    between atoms: C_1  and  N_6 
REMARK    1  A    between atoms: C_1  and  C_3 
REMARK    2  A    between atoms: C_3  and  C_4 
REMARK    3  A    between atoms: C_3  and  N_13 
REMARK    4  A    between atoms: C_4  and  C_9 
REMARK    5  A    between atoms: N_6  and  C_15 
REMARK    6  A    between atoms: C_8  and  C_21 
REMARK    7  A    between atoms: C_8  and  C_15 
REMARK    8  A    between atoms: C_11  and  C_15 
REMARK    9  A    between atoms: Se_20  and  C_21 
ROOT
HETATM    1  C           1     -33.145  -4.496 -16.686  0.00  0.00     0.280 C 
ENDROOT
BRANCH   1   2
HETATM    2  C           1     -33.923  -4.530 -15.394  0.00  0.00     0.249 C 
HETATM    3  N           1     -33.387  -3.987 -14.257  0.00  0.00    -0.345 N 
HETATM    4  H           1     -32.469  -3.563 -14.284  0.00  0.00     0.163 HD
HETATM    5  O           1     -35.019  -5.035 -15.362  0.00  0.00    -0.271 OA
BRANCH   3   6
HETATM    6  C           1     -34.135  -4.019 -13.015  0.00  0.00     0.185 C 
BRANCH   6   7
HETATM    7  C           1     -33.170  -4.161 -11.845  0.00  0.00     0.036 C 
BRANCH   7   8
HETATM    8  C           1     -33.218  -5.590 -11.319  0.00  0.00     0.003 C 
BRANCH   8   9
HETATM    9 Se           1     -34.820  -5.830 -10.234  0.00  0.00     0.000 Se
HETATM   10  C           1     -34.682  -7.772 -10.165  0.00  0.00     0.000 C 
ENDBRANCH   8   9
ENDBRANCH   7   8
ENDBRANCH   6   7
BRANCH   6  11
HETATM   11  C           1     -34.918  -2.738 -12.868  0.00  0.00     0.196 C 
HETATM   12  O           1     -35.669  -2.575 -11.882  0.00  0.00    -0.646 OA
HETATM   13  O           1     -34.817  -1.841 -13.732  0.00  0.00    -0.646 OA
ENDBRANCH   6  11
ENDBRANCH   3   6
ENDBRANCH   1   2
BRANCH   1  14
HETATM   14  C           1     -31.654  -4.436 -16.380  0.00  0.00     0.101 C 
BRANCH  14  15
HETATM   15  C           1     -30.945  -5.521 -17.128  0.00  0.00     0.028 A 
HETATM   16  C           1     -29.759  -5.359 -17.804  0.00  0.00     0.114 A 
HETATM   17  N           1     -29.481  -6.589 -18.332  0.00  0.00    -0.360 N 
HETATM   18  C           1     -30.490  -7.431 -17.964  0.00  0.00     0.180 A 
HETATM   19  H           1     -28.644  -6.839 -18.915  0.00  0.00     0.166 HD
HETATM   20  N           1     -31.391  -6.813 -17.235  0.00  0.00    -0.355 N 
ATOM     21  HN          1     -32.242  -7.210 -16.834  1.00  0.00     0.166 HD
ENDBRANCH  14  15
ENDBRANCH   1  14
BRANCH   1  22
HETATM   22  N           1     -33.542  -3.286 -17.477  0.00  0.00    -0.066 N 
HETATM   23  H           1     -32.726  -2.638 -17.557  0.00  0.00     0.275 HD
HETATM   24  H           1     -33.848  -3.579 -18.432  0.00  0.00     0.275 HD
HETATM   25  H           1     -34.329  -2.797 -16.992  0.00  0.00     0.275 HD
ENDBRANCH   1  22
TORSDOF 9
ENDMDL
MODEL 2
REMARK VINA RESULT:      -5.9     13.916     14.887
REMARK  9 active torsions:
REMARK  status: ('A' for Active; 'I' for Inactive)
REMARK       I    between atoms: C_1  and  N_6 
REMARK    1  A    between atoms: C_1  and  C_3 
REMARK    2  A    between atoms: C_3  and  C_4 
REMARK    3  A    between atoms: C_3  and  N_13 
REMARK    4  A    between atoms: C_4  and  C_9 
REMARK    5  A    between atoms: N_6  and  C_15 
REMARK    6  A    between atoms: C_8  and  C_21 
REMARK    7  A    between atoms: C_8  and  C_15 
REMARK    8  A    between atoms: C_11  and  C_15 
REMARK    9  A    between atoms: Se_20  and  C_21 
ROOT
HETATM    1  C           1     -20.911  -4.255  -7.478  0.00  0.00     0.280 C 
ENDROOT
BRANCH   1   2
HETATM    2  C           1     -20.658  -4.955  -6.166  0.00  0.00     0.249 C 
HETATM    3  N           1     -21.167  -6.208  -5.949  0.00  0.00    -0.345 N 
HETATM    4  H           1     -21.714  -6.663  -6.668  0.00  0.00     0.163 HD
HETATM    5  O           1     -20.006  -4.412  -5.307  0.00  0.00    -0.271 OA
BRANCH   3   6
HETATM    6  C           1     -20.925  -6.881  -4.688  0.00  0.00     0.185 C 
BRANCH   6   7
HETATM    7  C           1     -22.116  -6.671  -3.762  0.00  0.00     0.036 C 
BRANCH   7   8
HETATM    8  C           1     -21.641  -6.040  -2.459  0.00  0.00     0.003 C 
BRANCH   8   9
HETATM    9 Se           1     -22.290  -7.093  -0.952  0.00  0.00     0.000 Se
HETATM   10  C           1     -20.815  -8.365  -0.994  0.00  0.00     0.000 C 
ENDBRANCH   8   9
ENDBRANCH   7   8
ENDBRANCH   6   7
BRANCH   6  11
HETATM   11  C           1     -20.735  -8.357  -4.936  0.00  0.00     0.196 C 
HETATM   12  O           1     -21.495  -9.185  -4.389  0.00  0.00    -0.646 OA
HETATM   13  O           1     -19.817  -8.752  -5.687  0.00  0.00    -0.646 OA
ENDBRANCH   6  11
ENDBRANCH   3   6
ENDBRANCH   1   2
BRANCH   1  14
HETATM   14  C           1     -21.691  -5.178  -8.405  0.00  0.00     0.101 C 
BRANCH  14  15
HETATM   15  C           1     -22.792  -4.410  -9.067  0.00  0.00     0.028 A 
HETATM   16  C           1     -22.794  -4.027 -10.387  0.00  0.00     0.114 A 
HETATM   17  N           1     -23.974  -3.358 -10.560  0.00  0.00    -0.360 N 
HETATM   18  C           1     -24.626  -3.360  -9.361  0.00  0.00     0.180 A 
HETATM   19  H           1     -24.314  -2.921 -11.452  0.00  0.00     0.166 HD
HETATM   20  N           1     -23.935  -3.989  -8.438  0.00  0.00    -0.355 N 
ATOM     21  HN          1     -24.194  -4.134  -7.461  1.00  0.00     0.166 HD
ENDBRANCH  14  15
ENDBRANCH   1  14
BRANCH   1  22
HETATM   22  N           1     -19.601  -3.898  -8.114  0.00  0.00    -0.066 N 
HETATM   23  H           1     -18.822  -4.104  -7.449  0.00  0.00     0.275 HD
HETATM   24  H           1     -19.472  -4.462  -8.985  0.00  0.00     0.275 HD
HETATM   25  H           1     -19.596  -2.880  -8.353  0.00  0.00     0.275 HD
ENDBRANCH   1  22
TORSDOF 9
ENDMDL
MODEL 3
REMARK VINA RESULT:      -5.7     14.331     15.335
REMARK  9 active torsions:
REMARK  status: ('A' for Active; 'I' for Inactive)
REMARK       I    between atoms: C_1  and  N_6 
REMARK    1  A    between atoms: C_1  and  C_3 
REMARK    2  A    between atoms: C_3  and  C_4 
REMARK    3  A    between atoms: C_3  and  N_13 
REMARK    4  A    between atoms: C_4  and  C_9 
REMARK    5  A    between atoms: N_6  and  C_15 
REMARK    6  A    between atoms: C_8  and  C_21 
REMARK    7  A    between atoms: C_8  and  C_15 
REMARK    8  A    between atoms: C_11  and  C_15 
REMARK    9  A    between atoms: Se_20  and  C_21 
ROOT
HETATM    1  C           1     -21.215  -4.793  -6.553  0.00  0.00     0.280 C 
ENDROOT
BRANCH   1   2
HETATM    2  C           1     -21.814  -5.787  -5.589  0.00  0.00     0.249 C 
HETATM    3  N           1     -20.998  -6.545  -4.791  0.00  0.00    -0.345 N 
HETATM    4  H           1     -19.994  -6.438  -4.849  0.00  0.00     0.163 HD
HETATM    5  O           1     -23.013  -5.914  -5.519  0.00  0.00    -0.271 OA
BRANCH   3   6
HETATM    6  C           1     -21.574  -7.500  -3.864  0.00  0.00     0.185 C 
BRANCH   6   7
HETATM    7  C           1     -20.733  -8.770  -3.856  0.00  0.00     0.036 C 
BRANCH   7   8
HETATM    8  C           1     -19.559  -8.608  -4.811  0.00  0.00     0.003 C 
BRANCH   8   9
HETATM    9 Se           1     -18.065  -9.700  -4.198  0.00  0.00     0.000 Se
HETATM   10  C           1     -18.864 -10.114  -2.470  0.00  0.00     0.000 C 
ENDBRANCH   8   9
ENDBRANCH   7   8
ENDBRANCH   6   7
BRANCH   6  11
HETATM   11  C           1     -21.596  -6.903  -2.479  0.00  0.00     0.196 C 
HETATM   12  O           1     -20.889  -7.397  -1.574  0.00  0.00    -0.646 OA
HETATM   13  O           1     -22.323  -5.916  -2.235  0.00  0.00    -0.646 OA
ENDBRANCH   6  11
ENDBRANCH   3   6
ENDBRANCH   1   2
BRANCH   1  14
HETATM   14  C           1     -21.330  -5.332  -7.974  0.00  0.00     0.101 C 
BRANCH  14  15
HETATM   15  C           1     -22.373  -4.559  -8.718  0.00  0.00     0.028 A 
HETATM   16  C           1     -22.286  -4.205 -10.044  0.00  0.00     0.114 A 
HETATM   17  N           1     -23.440  -3.519 -10.304  0.00  0.00    -0.360 N 
HETATM   18  C           1     -24.166  -3.484  -9.148  0.00  0.00     0.180 A 
HETATM   19  H           1     -23.717  -3.096 -11.225  0.00  0.00     0.166 HD
HETATM   20  N           1     -23.546  -4.105  -8.171  0.00  0.00    -0.355 N 
ATOM     21  HN          1     -23.866  -4.224  -7.210  1.00  0.00     0.166 HD
ENDBRANCH  14  15
ENDBRANCH   1  14
BRANCH   1  22
HETATM   22  N           1     -19.770  -4.579  -6.216  0.00  0.00    -0.066 N 
HETATM   23  H           1     -19.696  -4.023  -5.334  0.00  0.00     0.275 HD
HETATM   24  H           1     -19.302  -5.505  -6.083  0.00  0.00     0.275 HD
HETATM   25  H           1     -19.303  -4.061  -6.995  0.00  0.00     0.275 HD
ENDBRANCH   1  22
TORSDOF 9
ENDMDL
MODEL 4
REMARK VINA RESULT:      -5.7      5.301      7.933
REMARK  9 active torsions:
REMARK  status: ('A' for Active; 'I' for Inactive)
REMARK       I    between atoms: C_1  and  N_6 
REMARK    1  A    between atoms: C_1  and  C_3 
REMARK    2  A    between atoms: C_3  and  C_4 
REMARK    3  A    between atoms: C_3  and  N_13 
REMARK    4  A    between atoms: C_4  and  C_9 
REMARK    5  A    between atoms: N_6  and  C_15 
REMARK    6  A    between atoms: C_8  and  C_21 
REMARK    7  A    between atoms: C_8  and  C_15 
REMARK    8  A    between atoms: C_11  and  C_15 
REMARK    9  A    between atoms: Se_20  and  C_21 
ROOT
HETATM    1  C           1     -30.039  -3.685 -17.149  0.00  0.00     0.280 C 
ENDROOT
BRANCH   1   2
HETATM    2  C           1     -29.358  -5.010 -17.394  0.00  0.00     0.249 C 
HETATM    3  N           1     -28.133  -5.263 -16.836  0.00  0.00    -0.345 N 
HETATM    4  H           1     -27.685  -4.562 -16.261  0.00  0.00     0.163 HD
HETATM    5  O           1     -29.893  -5.846 -18.080  0.00  0.00    -0.271 OA
BRANCH   3   6
HETATM    6  C           1     -27.479  -6.535 -17.071  0.00  0.00     0.185 C 
BRANCH   6   7
HETATM    7  C           1     -26.249  -6.321 -17.944  0.00  0.00     0.036 C 
BRANCH   7   8
HETATM    8  C           1     -26.648  -6.400 -19.411  0.00  0.00     0.003 C 
BRANCH   8   9
HETATM    9 Se           1     -25.233  -7.278 -20.424  0.00  0.00     0.000 Se
HETATM   10  C           1     -23.919  -7.179 -18.989  0.00  0.00     0.000 C 
ENDBRANCH   8   9
ENDBRANCH   7   8
ENDBRANCH   6   7
BRANCH   6  11
HETATM   11  C           1     -27.060  -7.135 -15.751  0.00  0.00     0.196 C 
HETATM   12  O           1     -25.847  -7.270 -15.484  0.00  0.00    -0.646 OA
HETATM   13  O           1     -27.927  -7.498 -14.927  0.00  0.00    -0.646 OA
ENDBRANCH   6  11
ENDBRANCH   3   6
ENDBRANCH   1   2
BRANCH   1  14
HETATM   14  C           1     -31.250  -3.560 -18.066  0.00  0.00     0.101 C 
BRANCH  14  15
HETATM   15  C           1     -32.504  -3.653 -17.253  0.00  0.00     0.028 A 
HETATM   16  C           1     -32.733  -4.592 -16.275  0.00  0.00     0.114 A 
HETATM   17  N           1     -33.984  -4.311 -15.801  0.00  0.00    -0.360 N 
HETATM   18  C           1     -34.455  -3.235 -16.498  0.00  0.00     0.180 A 
HETATM   19  H           1     -34.491  -4.829 -15.041  0.00  0.00     0.166 HD
HETATM   20  N           1     -33.581  -2.815 -17.384  0.00  0.00    -0.355 N 
ATOM     21  HN          1     -33.681  -2.033 -18.031  1.00  0.00     0.166 HD
ENDBRANCH  14  15
ENDBRANCH   1  14
BRANCH   1  22
HETATM   22  N           1     -29.079  -2.570 -17.435  0.00  0.00    -0.066 N 
HETATM   23  H           1     -28.934  -2.490 -18.467  0.00  0.00     0.275 HD
HETATM   24  H           1     -29.469  -1.672 -17.068  0.00  0.00     0.275 HD
HETATM   25  H           1     -28.165  -2.769 -16.968  0.00  0.00     0.275 HD
ENDBRANCH   1  22
TORSDOF 9
ENDMDL
MODEL 5
REMARK VINA RESULT:      -5.7     14.023     14.918
REMARK  9 active torsions:
REMARK  status: ('A' for Active; 'I' for Inactive)
REMARK       I    between atoms: C_1  and  N_6 
REMARK    1  A    between atoms: C_1  and  C_3 
REMARK    2  A    between atoms: C_3  and  C_4 
REMARK    3  A    between atoms: C_3  and  N_13 
REMARK    4  A    between atoms: C_4  and  C_9 
REMARK    5  A    between atoms: N_6  and  C_15 
REMARK    6  A    between atoms: C_8  and  C_21 
REMARK    7  A    between atoms: C_8  and  C_15 
REMARK    8  A    between atoms: C_11  and  C_15 
REMARK    9  A    between atoms: Se_20  and  C_21 
ROOT
HETATM    1  C           1     -22.227  -4.924  -7.441  0.00  0.00     0.280 C 
ENDROOT
BRANCH   1   2
HETATM    2  C           1     -21.376  -5.387  -6.283  0.00  0.00     0.249 C 
HETATM    3  N           1     -21.484  -6.673  -5.826  0.00  0.00    -0.345 N 
HETATM    4  H           1     -22.134  -7.312  -6.264  0.00  0.00     0.163 HD
HETATM    5  O           1     -20.600  -4.624  -5.761  0.00  0.00    -0.271 OA
BRANCH   3   6
HETATM    6  C           1     -20.667  -7.118  -4.714  0.00  0.00     0.185 C 
BRANCH   6   7
HETATM    7  C           1     -21.566  -7.535  -3.557  0.00  0.00     0.036 C 
BRANCH   7   8
HETATM    8  C           1     -21.761  -6.355  -2.616  0.00  0.00     0.003 C 
BRANCH   8   9
HETATM    9 Se           1     -22.273  -7.008  -0.851  0.00  0.00     0.000 Se
HETATM   10  C           1     -21.031  -8.509  -0.866  0.00  0.00     0.000 C 
ENDBRANCH   8   9
ENDBRANCH   7   8
ENDBRANCH   6   7
BRANCH   6  11
HETATM   11  C           1     -19.828  -8.295  -5.148  0.00  0.00     0.196 C 
HETATM   12  O           1     -19.041  -8.179  -6.112  0.00  0.00    -0.646 OA
HETATM   13  O           1     -19.921  -9.385  -4.544  0.00  0.00    -0.646 OA
ENDBRANCH   6  11
ENDBRANCH   3   6
ENDBRANCH   1   2
BRANCH   1  14
HETATM   14  C           1     -21.539  -3.761  -8.144  0.00  0.00     0.101 C 
BRANCH  14  15
HETATM   15  C           1     -21.594  -3.969  -9.625  0.00  0.00     0.028 A 
HETATM   16  C           1     -20.554  -3.718 -10.488  0.00  0.00     0.114 A 
HETATM   17  N           1     -21.034  -4.043 -11.726  0.00  0.00    -0.360 N 
HETATM   18  C           1     -22.322  -4.469 -11.567  0.00  0.00     0.180 A 
HETATM   19  H           1     -20.509  -3.976 -12.633  0.00  0.00     0.166 HD
HETATM   20  N           1     -22.688  -4.435 -10.306  0.00  0.00    -0.355 N 
ATOM     21  HN          1     -23.594  -4.699  -9.917  1.00  0.00     0.166 HD
ENDBRANCH  14  15
ENDBRANCH   1  14
BRANCH   1  22
HETATM   22  N           1     -23.564  -4.477  -6.930  0.00  0.00    -0.066 N 
HETATM   23  H           1     -24.316  -5.064  -7.357  0.00  0.00     0.275 HD
HETATM   24  H           1     -23.592  -4.581  -5.890  0.00  0.00     0.275 HD
HETATM   25  H           1     -23.718  -3.475  -7.184  0.00  0.00     0.275 HD
ENDBRANCH   1  22
TORSDOF 9
ENDMDL
MODEL 6
REMARK VINA RESULT:      -5.4     14.852     15.895
REMARK  9 active torsions:
REMARK  status: ('A' for Active; 'I' for Inactive)
REMARK       I    between atoms: C_1  and  N_6 
REMARK    1  A    between atoms: C_1  and  C_3 
REMARK    2  A    between atoms: C_3  and  C_4 
REMARK    3  A    between atoms: C_3  and  N_13 
REMARK    4  A    between atoms: C_4  and  C_9 
REMARK    5  A    between atoms: N_6  and  C_15 
REMARK    6  A    between atoms: C_8  and  C_21 
REMARK    7  A    between atoms: C_8  and  C_15 
REMARK    8  A    between atoms: C_11  and  C_15 
REMARK    9  A    between atoms: Se_20  and  C_21 
ROOT
HETATM    1  C           1     -21.864  -6.260  -6.021  0.00  0.00     0.280 C 
ENDROOT
BRANCH   1   2
HETATM    2  C           1     -20.672  -7.130  -5.704  0.00  0.00     0.249 C 
HETATM    3  N           1     -20.710  -7.978  -4.629  0.00  0.00    -0.345 N 
HETATM    4  H           1     -21.536  -8.020  -4.047  0.00  0.00     0.163 HD
HETATM    5  O           1     -19.686  -7.080  -6.399  0.00  0.00    -0.271 OA
BRANCH   3   6
HETATM    6  C           1     -19.565  -8.814  -4.324  0.00  0.00     0.185 C 
BRANCH   6   7
HETATM    7  C           1     -19.401  -8.921  -2.813  0.00  0.00     0.036 C 
BRANCH   7   8
HETATM    8  C           1     -20.422  -8.024  -2.127  0.00  0.00     0.003 C 
BRANCH   8   9
HETATM    9 Se           1     -21.783  -9.125  -1.268  0.00  0.00     0.000 Se
HETATM   10  C           1     -22.525  -7.669  -0.207  0.00  0.00     0.000 C 
ENDBRANCH   8   9
ENDBRANCH   7   8
ENDBRANCH   6   7
BRANCH   6  11
HETATM   11  C           1     -19.780 -10.190  -4.905  0.00  0.00     0.196 C 
HETATM   12  O           1     -20.296 -11.089  -4.208  0.00  0.00    -0.646 OA
HETATM   13  O           1     -19.439 -10.430  -6.084  0.00  0.00    -0.646 OA
ENDBRANCH   6  11
ENDBRANCH   3   6
ENDBRANCH   1   2
BRANCH   1  14
HETATM   14  C           1     -21.386  -4.870  -6.421  0.00  0.00     0.101 C 
BRANCH  14  15
HETATM   15  C           1     -22.124  -4.420  -7.643  0.00  0.00     0.028 A 
HETATM   16  C           1     -21.538  -4.166  -8.860  0.00  0.00     0.114 A 
HETATM   17  N           1     -22.567  -3.787  -9.676  0.00  0.00    -0.360 N 
HETATM   18  C           1     -23.714  -3.824  -8.935  0.00  0.00     0.180 A 
HETATM   19  H           1     -22.489  -3.515 -10.688  0.00  0.00     0.166 HD
HETATM   20  N           1     -23.477  -4.204  -7.701  0.00  0.00    -0.355 N 
ATOM     21  HN          1     -24.154  -4.314  -6.945  1.00  0.00     0.166 HD
ENDBRANCH  14  15
ENDBRANCH   1  14
BRANCH   1  22
HETATM   22  N           1     -22.743  -6.157  -4.810  0.00  0.00    -0.066 N 
HETATM   23  H           1     -23.488  -6.888  -4.856  0.00  0.00     0.275 HD
HETATM   24  H           1     -22.167  -6.301  -3.949  0.00  0.00     0.275 HD
HETATM   25  H           1     -23.185  -5.210  -4.781  0.00  0.00     0.275 HD
ENDBRANCH   1  22
TORSDOF 9
ENDMDL
MODEL 7
REMARK VINA RESULT:      -5.2     14.146     15.182
REMARK  9 active torsions:
REMARK  status: ('A' for Active; 'I' for Inactive)
REMARK       I    between atoms: C_1  and  N_6 
REMARK    1  A    between atoms: C_1  and  C_3 
REMARK    2  A    between atoms: C_3  and  C_4 
REMARK    3  A    between atoms: C_3  and  N_13 
REMARK    4  A    between atoms: C_4  and  C_9 
REMARK    5  A    between atoms: N_6  and  C_15 
REMARK    6  A    between atoms: C_8  and  C_21 
REMARK    7  A    between atoms: C_8  and  C_15 
REMARK    8  A    between atoms: C_11  and  C_15 
REMARK    9  A    between atoms: Se_20  and  C_21 
ROOT
HETATM    1  C           1     -21.264  -4.980  -6.256  0.00  0.00     0.280 C 
ENDROOT
BRANCH   1   2
HETATM    2  C           1     -21.838  -6.016  -5.321  0.00  0.00     0.249 C 
HETATM    3  N           1     -21.005  -6.882  -4.664  0.00  0.00    -0.345 N 
HETATM    4  H           1     -20.005  -6.828  -4.807  0.00  0.00     0.163 HD
HETATM    5  O           1     -23.032  -6.081  -5.150  0.00  0.00    -0.271 OA
BRANCH   3   6
HETATM    6  C           1     -21.556  -7.878  -3.766  0.00  0.00     0.185 C 
BRANCH   6   7
HETATM    7  C           1     -20.955  -9.241  -4.087  0.00  0.00     0.036 C 
BRANCH   7   8
HETATM    8  C           1     -21.962 -10.331  -3.749  0.00  0.00     0.003 C 
BRANCH   8   9
HETATM    9 Se           1     -21.636 -11.889  -4.876  0.00  0.00     0.000 Se
HETATM   10  C           1     -22.396 -13.165  -3.615  0.00  0.00     0.000 C 
ENDBRANCH   8   9
ENDBRANCH   7   8
ENDBRANCH   6   7
BRANCH   6  11
HETATM   11  C           1     -21.226  -7.506  -2.342  0.00  0.00     0.196 C 
HETATM   12  O           1     -22.015  -6.794  -1.683  0.00  0.00    -0.646 OA
HETATM   13  O           1     -20.163  -7.908  -1.821  0.00  0.00    -0.646 OA
ENDBRANCH   6  11
ENDBRANCH   3   6
ENDBRANCH   1   2
BRANCH   1  14
HETATM   14  C           1     -21.306  -5.506  -7.685  0.00  0.00     0.101 C 
BRANCH  14  15
HETATM   15  C           1     -22.256  -4.680  -8.494  0.00  0.00     0.028 A 
HETATM   16  C           1     -22.029  -4.269  -9.786  0.00  0.00     0.114 A 
HETATM   17  N           1     -23.140  -3.549 -10.130  0.00  0.00    -0.360 N 
HETATM   18  C           1     -23.979  -3.552  -9.052  0.00  0.00     0.180 A 
HETATM   19  H           1     -23.314  -3.080 -11.052  0.00  0.00     0.166 HD
HETATM   20  N           1     -23.471  -4.228  -8.048  0.00  0.00    -0.355 N 
ATOM     21  HN          1     -23.890  -4.384  -7.131  1.00  0.00     0.166 HD
ENDBRANCH  14  15
ENDBRANCH   1  14
BRANCH   1  22
HETATM   22  N           1     -19.844  -4.692  -5.871  0.00  0.00    -0.066 N 
HETATM   23  H           1     -19.828  -4.027  -5.065  0.00  0.00     0.275 HD
HETATM   24  H           1     -19.370  -5.583  -5.595  0.00  0.00     0.275 HD
HETATM   25  H           1     -19.342  -4.267  -6.684  0.00  0.00     0.275 HD
ENDBRANCH   1  22
TORSDOF 9
ENDMDL
MODEL 8
REMARK VINA RESULT:      -5.2     15.165     16.277
REMARK  9 active torsions:
REMARK  status: ('A' for Active; 'I' for Inactive)
REMARK       I    between atoms: C_1  and  N_6 
REMARK    1  A    between atoms: C_1  and  C_3 
REMARK    2  A    between atoms: C_3  and  C_4 
REMARK    3  A    between atoms: C_3  and  N_13 
REMARK    4  A    between atoms: C_4  and  C_9 
REMARK    5  A    between atoms: N_6  and  C_15 
REMARK    6  A    between atoms: C_8  and  C_21 
REMARK    7  A    between atoms: C_8  and  C_15 
REMARK    8  A    between atoms: C_11  and  C_15 
REMARK    9  A    between atoms: Se_20  and  C_21 
ROOT
HETATM    1  C           1     -21.403  -6.179  -5.543  0.00  0.00     0.280 C 
ENDROOT
BRANCH   1   2
HETATM    2  C           1     -20.328  -7.229  -5.677  0.00  0.00     0.249 C 
HETATM    3  N           1     -20.238  -8.238  -4.756  0.00  0.00    -0.345 N 
HETATM    4  H           1     -20.891  -8.279  -3.985  0.00  0.00     0.163 HD
HETATM    5  O           1     -19.548  -7.181  -6.598  0.00  0.00    -0.271 OA
BRANCH   3   6
HETATM    6  C           1     -19.205  -9.248  -4.885  0.00  0.00     0.185 C 
BRANCH   6   7
HETATM    7  C           1     -18.532  -9.462  -3.535  0.00  0.00     0.036 C 
BRANCH   7   8
HETATM    8  C           1     -19.464  -8.998  -2.424  0.00  0.00     0.003 C 
BRANCH   8   9
HETATM    9 Se           1     -20.235 -10.549  -1.531  0.00  0.00     0.000 Se
HETATM   10  C           1     -22.008 -10.319  -2.305  0.00  0.00     0.000 C 
ENDBRANCH   8   9
ENDBRANCH   7   8
ENDBRANCH   6   7
BRANCH   6  11
HETATM   11  C           1     -19.825 -10.543  -5.348  0.00  0.00     0.196 C 
HETATM   12  O           1     -19.308 -11.634  -5.025  0.00  0.00    -0.646 OA
HETATM   13  O           1     -20.855 -10.525  -6.056  0.00  0.00    -0.646 OA
ENDBRANCH   6  11
ENDBRANCH   3   6
ENDBRANCH   1   2
BRANCH   1  14
HETATM   14  C           1     -20.926  -4.880  -6.181  0.00  0.00     0.101 C 
BRANCH  14  15
HETATM   15  C           1     -21.908  -4.444  -7.223  0.00  0.00     0.028 A 
HETATM   16  C           1     -23.274  -4.548  -7.101  0.00  0.00     0.114 A 
HETATM   17  N           1     -23.773  -4.040  -8.268  0.00  0.00    -0.360 N 
HETATM   18  C           1     -22.711  -3.657  -9.036  0.00  0.00     0.180 A 
HETATM   19  H           1     -24.788  -3.960  -8.527  0.00  0.00     0.166 HD
HETATM   20  N           1     -21.569  -3.890  -8.430  0.00  0.00    -0.355 N 
ATOM     21  HN          1     -20.631  -3.699  -8.782  1.00  0.00     0.166 HD
ENDBRANCH  14  15
ENDBRANCH   1  14
BRANCH   1  22
HETATM   22  N           1     -21.693  -5.945  -4.091  0.00  0.00    -0.066 N 
HETATM   23  H           1     -22.479  -5.262  -3.997  0.00  0.00     0.275 HD
HETATM   24  H           1     -21.963  -6.848  -3.639  0.00  0.00     0.275 HD
HETATM   25  H           1     -20.841  -5.561  -3.622  0.00  0.00     0.275 HD
ENDBRANCH   1  22
TORSDOF 9
ENDMDL
MODEL 9
REMARK VINA RESULT:      -5.2      3.343      6.714
REMARK  9 active torsions:
REMARK  status: ('A' for Active; 'I' for Inactive)
REMARK       I    between atoms: C_1  and  N_6 
REMARK    1  A    between atoms: C_1  and  C_3 
REMARK    2  A    between atoms: C_3  and  C_4 
REMARK    3  A    between atoms: C_3  and  N_13 
REMARK    4  A    between atoms: C_4  and  C_9 
REMARK    5  A    between atoms: N_6  and  C_15 
REMARK    6  A    between atoms: C_8  and  C_21 
REMARK    7  A    between atoms: C_8  and  C_15 
REMARK    8  A    between atoms: C_11  and  C_15 
REMARK    9  A    between atoms: Se_20  and  C_21 
ROOT
HETATM    1  C           1     -33.895  -4.225 -15.437  0.00  0.00     0.280 C 
ENDROOT
BRANCH   1   2
HETATM    2  C           1     -32.748  -4.227 -16.418  0.00  0.00     0.249 C 
HETATM    3  N           1     -31.694  -5.083 -16.238  0.00  0.00    -0.345 N 
HETATM    4  H           1     -31.685  -5.713 -15.447  0.00  0.00     0.163 HD
HETATM    5  O           1     -32.760  -3.475 -17.362  0.00  0.00    -0.271 OA
BRANCH   3   6
HETATM    6  C           1     -30.592  -5.085 -17.181  0.00  0.00     0.185 C 
BRANCH   6   7
HETATM    7  C           1     -29.290  -4.808 -16.440  0.00  0.00     0.036 C 
BRANCH   7   8
HETATM    8  C           1     -29.187  -5.730 -15.233  0.00  0.00     0.003 C 
BRANCH   8   9
HETATM    9 Se           1     -27.822  -7.083 -15.561  0.00  0.00     0.000 Se
HETATM   10  C           1     -26.730  -5.940 -16.701  0.00  0.00     0.000 C 
ENDBRANCH   8   9
ENDBRANCH   7   8
ENDBRANCH   6   7
BRANCH   6  11
HETATM   11  C           1     -30.511  -6.432 -17.855  0.00  0.00     0.196 C 
HETATM   12  O           1     -31.377  -7.302 -17.619  0.00  0.00    -0.646 OA
HETATM   13  O           1     -29.577  -6.678 -18.648  0.00  0.00    -0.646 OA
ENDBRANCH   6  11
ENDBRANCH   3   6
ENDBRANCH   1   2
BRANCH   1  14
HETATM   14  C           1     -33.354  -4.389 -14.023  0.00  0.00     0.101 C 
BRANCH  14  15
HETATM   15  C           1     -34.205  -3.610 -13.069  0.00  0.00     0.028 A 
HETATM   16  C           1     -34.748  -4.118 -11.912  0.00  0.00     0.114 A 
HETATM   17  N           1     -35.441  -3.077 -11.359  0.00  0.00    -0.360 N 
HETATM   18  C           1     -35.293  -2.000 -12.187  0.00  0.00     0.180 A 
HETATM   19  H           1     -35.986  -3.101 -10.462  0.00  0.00     0.166 HD
HETATM   20  N           1     -34.551  -2.293 -13.230  0.00  0.00    -0.355 N 
ATOM     21  HN          1     -34.288  -1.673 -13.997  1.00  0.00     0.166 HD
ENDBRANCH  14  15
ENDBRANCH   1  14
BRANCH   1  22
HETATM   22  N           1     -34.822  -5.361 -15.751  0.00  0.00    -0.066 N 
HETATM   23  H           1     -34.794  -6.060 -14.976  0.00  0.00     0.275 HD
HETATM   24  H           1     -35.797  -4.996 -15.855  0.00  0.00     0.275 HD
HETATM   25  H           1     -34.524  -5.817 -16.644  0.00  0.00     0.275 HD
ENDBRANCH   1  22
TORSDOF 9
ENDMDL
