MODEL 1
REMARK VINA RESULT:      -5.9      0.000      0.000
REMARK  11 active torsions:
REMARK  status: ('A' for Active; 'I' for Inactive)
REMARK    1  A    between atoms: C_1  and  C_21 
REMARK    2  A    between atoms: C_6  and  C_13 
REMARK    3  A    between atoms: C_6  and  C_7 
REMARK    4  A    between atoms: C_9  and  N_14 
REMARK    5  A    between atoms: C_9  and  C_10 
REMARK    6  A    between atoms: C_10  and  C_19 
REMARK    7  A    between atoms: N_12  and  C_13 
REMARK    8  A    between atoms: C_13  and  C_22 
REMARK    9  A    between atoms: C_19  and  C_20 
REMARK   10  A    between atoms: C_20  and  C_21 
REMARK   11  A    between atoms: C_21  and  N_23 
REMARK       I    between atoms: C_22  and  N_23 
ROOT
HETATM    1  H           1     -20.639  -4.530  -4.635  0.00  0.00     0.163 HD
HETATM    2  O           1     -21.932  -7.385  -4.773  0.00  0.00    -0.271 OA
HETATM    3  C           1     -21.439  -6.403  -4.270  0.00  0.00     0.249 C 
HETATM    4  N           1     -21.052  -5.352  -5.057  0.00  0.00    -0.345 N 
ENDROOT
BRANCH   4   5
HETATM    5  C           1     -21.233  -5.417  -6.494  0.00  0.00     0.185 C 
BRANCH   5   6
HETATM    6  C           1     -19.900  -5.663  -7.157  0.00  0.00     0.196 C 
HETATM    7  O           1     -19.295  -4.719  -7.711  0.00  0.00    -0.646 OA
HETATM    8  O           1     -19.401  -6.809  -7.151  0.00  0.00    -0.646 OA
ENDBRANCH   5   6
BRANCH   5   9
HETATM    9  C           1     -21.813  -4.099  -6.991  0.00  0.00     0.036 C 
BRANCH   9  10
HETATM   10  C           1     -23.110  -4.366  -7.744  0.00  0.00     0.004 C 
BRANCH  10  11
HETATM   11  C           1     -22.973  -3.881  -9.181  0.00  0.00     0.027 C 
BRANCH  11  12
HETATM   12  C           1     -24.149  -4.391 -10.004  0.00  0.00     0.229 C 
BRANCH  12  13
HETATM   13  N           1     -25.372  -3.583  -9.685  0.00  0.00    -0.079 N 
HETATM   14  H           1     -26.215  -4.059 -10.079  0.00  0.00     0.274 HD
HETATM   15  H           1     -25.474  -3.498  -8.649  0.00  0.00     0.274 HD
HETATM   16  H           1     -25.279  -2.631 -10.105  0.00  0.00     0.274 HD
ENDBRANCH  12  13
ENDBRANCH  11  12
ENDBRANCH  10  11
ENDBRANCH   9  10
ENDBRANCH   5   9
ENDBRANCH   4   5
BRANCH   3  17
HETATM   17  C           1     -21.251  -6.336  -2.774  0.00  0.00     0.275 C 
BRANCH  17  18
HETATM   18  C           1     -20.815  -7.701  -2.255  0.00  0.00     0.046 C 
BRANCH  18  19
HETATM   19  C           1     -21.839  -8.213  -1.251  0.00  0.00    -0.020 C 
HETATM   20  C           1     -22.254  -9.630  -1.626  0.00  0.00     0.009 C 
HETATM   21  C           1     -21.225  -8.218   0.143  0.00  0.00     0.009 C 
ENDBRANCH  18  19
ENDBRANCH  17  18
BRANCH  17  22
HETATM   22  N           1     -22.545  -5.945  -2.125  0.00  0.00    -0.066 N 
HETATM   23  H           1     -22.361  -5.242  -1.375  0.00  0.00     0.275 HD
HETATM   24  H           1     -23.182  -5.531  -2.842  0.00  0.00     0.275 HD
HETATM   25  H           1     -22.994  -6.791  -1.706  0.00  0.00     0.275 HD
ENDBRANCH  17  22
ENDBRANCH   3  17
TORSDOF 11
ENDMDL
MODEL 2
REMARK VINA RESULT:      -5.9     14.219     15.725
REMARK  11 active torsions:
REMARK  status: ('A' for Active; 'I' for Inactive)
REMARK    1  A    between atoms: C_1  and  C_21 
REMARK    2  A    between atoms: C_6  and  C_13 
REMARK    3  A    between atoms: C_6  and  C_7 
REMARK    4  A    between atoms: C_9  and  N_14 
REMARK    5  A    between atoms: C_9  and  C_10 
REMARK    6  A    between atoms: C_10  and  C_19 
REMARK    7  A    between atoms: N_12  and  C_13 
REMARK    8  A    between atoms: C_13  and  C_22 
REMARK    9  A    between atoms: C_19  and  C_20 
REMARK   10  A    between atoms: C_20  and  C_21 
REMARK   11  A    between atoms: C_21  and  N_23 
REMARK       I    between atoms: C_22  and  N_23 
ROOT
HETATM    1  H           1     -27.448  -6.942 -20.108  0.00  0.00     0.163 HD
HETATM    2  O           1     -25.809  -6.232 -17.528  0.00  0.00    -0.271 OA
HETATM    3  C           1     -26.004  -6.569 -18.672  0.00  0.00     0.249 C 
HETATM    4  N           1     -27.284  -6.660 -19.149  0.00  0.00    -0.345 N 
ENDROOT
BRANCH   4   5
HETATM    5  C           1     -28.405  -6.353 -18.282  0.00  0.00     0.185 C 
BRANCH   5   6
HETATM    6  C           1     -29.416  -7.471 -18.355  0.00  0.00     0.196 C 
HETATM    7  O           1     -29.429  -8.238 -19.343  0.00  0.00    -0.646 OA
HETATM    8  O           1     -30.240  -7.631 -17.428  0.00  0.00    -0.646 OA
ENDBRANCH   5   6
BRANCH   5   9
HETATM    9  C           1     -29.054  -5.052 -18.733  0.00  0.00     0.036 C 
BRANCH   9  10
HETATM   10  C           1     -29.265  -4.144 -17.528  0.00  0.00     0.004 C 
BRANCH  10  11
HETATM   11  C           1     -30.670  -3.557 -17.573  0.00  0.00     0.027 C 
BRANCH  11  12
HETATM   12  C           1     -31.643  -4.517 -16.903  0.00  0.00     0.229 C 
BRANCH  12  13
HETATM   13  N           1     -30.951  -5.229 -15.778  0.00  0.00    -0.079 N 
HETATM   14  H           1     -30.031  -5.594 -16.112  0.00  0.00     0.274 HD
HETATM   15  H           1     -30.795  -4.564 -14.988  0.00  0.00     0.274 HD
HETATM   16  H           1     -31.545  -6.024 -15.452  0.00  0.00     0.274 HD
ENDBRANCH  12  13
ENDBRANCH  11  12
ENDBRANCH  10  11
ENDBRANCH   9  10
ENDBRANCH   5   9
ENDBRANCH   4   5
BRANCH   3  17
HETATM   17  C           1     -24.838  -6.887 -19.574  0.00  0.00     0.275 C 
BRANCH  17  18
HETATM   18  C           1     -25.223  -8.013 -20.525  0.00  0.00     0.046 C 
BRANCH  18  19
HETATM   19  C           1     -24.603  -7.758 -21.893  0.00  0.00    -0.020 C 
HETATM   20  C           1     -24.497  -6.258 -22.132  0.00  0.00     0.009 C 
HETATM   21  C           1     -23.213  -8.379 -21.942  0.00  0.00     0.009 C 
ENDBRANCH  18  19
ENDBRANCH  17  18
BRANCH  17  22
HETATM   22  N           1     -23.666  -7.316 -18.742  0.00  0.00    -0.066 N 
HETATM   23  H           1     -23.902  -7.215 -17.729  0.00  0.00     0.275 HD
HETATM   24  H           1     -23.440  -8.315 -18.948  0.00  0.00     0.275 HD
HETATM   25  H           1     -22.840  -6.717 -18.968  0.00  0.00     0.275 HD
ENDBRANCH  17  22
ENDBRANCH   3  17
TORSDOF 11
ENDMDL
MODEL 3
REMARK VINA RESULT:      -5.9     13.454     15.521
REMARK  11 active torsions:
REMARK  status: ('A' for Active; 'I' for Inactive)
REMARK    1  A    between atoms: C_1  and  C_21 
REMARK    2  A    between atoms: C_6  and  C_13 
REMARK    3  A    between atoms: C_6  and  C_7 
REMARK    4  A    between atoms: C_9  and  N_14 
REMARK    5  A    between atoms: C_9  and  C_10 
REMARK    6  A    between atoms: C_10  and  C_19 
REMARK    7  A    between atoms: N_12  and  C_13 
REMARK    8  A    between atoms: C_13  and  C_22 
REMARK    9  A    between atoms: C_19  and  C_20 
REMARK   10  A    between atoms: C_20  and  C_21 
REMARK   11  A    between atoms: C_21  and  N_23 
REMARK       I    between atoms: C_22  and  N_23 
ROOT
HETATM    1  H           1     -26.068  -6.745 -17.555  0.00  0.00     0.163 HD
HETATM    2  O           1     -26.901  -5.904 -20.461  0.00  0.00    -0.271 OA
HETATM    3  C           1     -26.219  -6.387 -19.588  0.00  0.00     0.249 C 
HETATM    4  N           1     -26.639  -6.341 -18.286  0.00  0.00    -0.345 N 
ENDROOT
BRANCH   4   5
HETATM    5  C           1     -27.903  -5.712 -17.954  0.00  0.00     0.185 C 
BRANCH   5   6
HETATM    6  C           1     -27.729  -4.854 -16.725  0.00  0.00     0.196 C 
HETATM    7  O           1     -27.935  -3.622 -16.789  0.00  0.00    -0.646 OA
HETATM    8  O           1     -27.380  -5.375 -15.643  0.00  0.00    -0.646 OA
ENDBRANCH   5   6
BRANCH   5   9
HETATM    9  C           1     -28.947  -6.786 -17.680  0.00  0.00     0.036 C 
BRANCH   9  10
HETATM   10  C           1     -30.336  -6.232 -17.970  0.00  0.00     0.004 C 
BRANCH  10  11
HETATM   11  C           1     -30.878  -5.540 -16.727  0.00  0.00     0.027 C 
BRANCH  11  12
HETATM   12  C           1     -31.737  -4.353 -17.141  0.00  0.00     0.229 C 
BRANCH  12  13
HETATM   13  N           1     -30.856  -3.239 -17.624  0.00  0.00    -0.079 N 
HETATM   14  H           1     -30.482  -2.711 -16.803  0.00  0.00     0.274 HD
HETATM   15  H           1     -30.061  -3.637 -18.174  0.00  0.00     0.274 HD
HETATM   16  H           1     -31.411  -2.595 -18.231  0.00  0.00     0.274 HD
ENDBRANCH  12  13
ENDBRANCH  11  12
ENDBRANCH  10  11
ENDBRANCH   9  10
ENDBRANCH   5   9
ENDBRANCH   4   5
BRANCH   3  17
HETATM   17  C           1     -24.904  -7.041 -19.934  0.00  0.00     0.275 C 
BRANCH  17  18
HETATM   18  C           1     -25.149  -8.200 -20.891  0.00  0.00     0.046 C 
BRANCH  18  19
HETATM   19  C           1     -24.157  -8.126 -22.044  0.00  0.00    -0.020 C 
HETATM   20  C           1     -24.103  -6.701 -22.578  0.00  0.00     0.009 C 
HETATM   21  C           1     -22.775  -8.536 -21.552  0.00  0.00     0.009 C 
ENDBRANCH  18  19
ENDBRANCH  17  18
BRANCH  17  22
HETATM   22  N           1     -24.258  -7.556 -18.681  0.00  0.00    -0.066 N 
HETATM   23  H           1     -23.323  -7.105 -18.560  0.00  0.00     0.275 HD
HETATM   24  H           1     -24.863  -7.330 -17.860  0.00  0.00     0.275 HD
HETATM   25  H           1     -24.138  -8.592 -18.752  0.00  0.00     0.275 HD
ENDBRANCH  17  22
ENDBRANCH   3  17
TORSDOF 11
ENDMDL
MODEL 4
REMARK VINA RESULT:      -5.8      1.994      6.910
REMARK  11 active torsions:
REMARK  status: ('A' for Active; 'I' for Inactive)
REMARK    1  A    between atoms: C_1  and  C_21 
REMARK    2  A    between atoms: C_6  and  C_13 
REMARK    3  A    between atoms: C_6  and  C_7 
REMARK    4  A    between atoms: C_9  and  N_14 
REMARK    5  A    between atoms: C_9  and  C_10 
REMARK    6  A    between atoms: C_10  and  C_19 
REMARK    7  A    between atoms: N_12  and  C_13 
REMARK    8  A    between atoms: C_13  and  C_22 
REMARK    9  A    between atoms: C_19  and  C_20 
REMARK   10  A    between atoms: C_20  and  C_21 
REMARK   11  A    between atoms: C_21  and  N_23 
REMARK       I    between atoms: C_22  and  N_23 
ROOT
HETATM    1  H           1     -22.193  -7.300  -6.069  0.00  0.00     0.163 HD
HETATM    2  O           1     -20.669  -4.575  -5.752  0.00  0.00    -0.271 OA
HETATM    3  C           1     -21.435  -5.380  -6.227  0.00  0.00     0.249 C 
HETATM    4  N           1     -21.551  -6.625  -5.671  0.00  0.00    -0.345 N 
ENDROOT
BRANCH   4   5
HETATM    5  C           1     -20.755  -6.980  -4.512  0.00  0.00     0.185 C 
BRANCH   5   6
HETATM    6  C           1     -19.826  -8.114  -4.869  0.00  0.00     0.196 C 
HETATM    7  O           1     -19.408  -8.233  -6.041  0.00  0.00    -0.646 OA
HETATM    8  O           1     -19.474  -8.933  -3.993  0.00  0.00    -0.646 OA
ENDBRANCH   5   6
BRANCH   5   9
HETATM    9  C           1     -21.675  -7.414  -3.379  0.00  0.00     0.036 C 
BRANCH   9  10
HETATM   10  C           1     -21.926  -6.236  -2.447  0.00  0.00     0.004 C 
BRANCH  10  11
HETATM   11  C           1     -22.275  -6.752  -1.057  0.00  0.00     0.027 C 
BRANCH  11  12
HETATM   12  C           1     -21.989  -8.246  -0.983  0.00  0.00     0.229 C 
BRANCH  12  13
HETATM   13  N           1     -22.938  -8.891  -0.017  0.00  0.00    -0.079 N 
HETATM   14  H           1     -23.510  -8.154   0.453  0.00  0.00     0.274 HD
HETATM   15  H           1     -23.569  -9.545  -0.533  0.00  0.00     0.274 HD
HETATM   16  H           1     -22.396  -9.424   0.699  0.00  0.00     0.274 HD
ENDBRANCH  12  13
ENDBRANCH  11  12
ENDBRANCH  10  11
ENDBRANCH   9  10
ENDBRANCH   5   9
ENDBRANCH   4   5
BRANCH   3  17
HETATM   17  C           1     -22.263  -5.012  -7.433  0.00  0.00     0.275 C 
BRANCH  17  18
HETATM   18  C           1     -21.478  -4.049  -8.315  0.00  0.00     0.046 C 
BRANCH  18  19
HETATM   19  C           1     -21.684  -4.415  -9.778  0.00  0.00    -0.020 C 
HETATM   20  C           1     -22.809  -3.570 -10.361  0.00  0.00     0.009 C 
HETATM   21  C           1     -20.399  -4.152 -10.553  0.00  0.00     0.009 C 
ENDBRANCH  18  19
ENDBRANCH  17  18
BRANCH  17  22
HETATM   22  N           1     -23.534  -4.352  -6.984  0.00  0.00    -0.066 N 
HETATM   23  H           1     -24.074  -5.012  -6.380  0.00  0.00     0.275 HD
HETATM   24  H           1     -23.305  -3.491  -6.439  0.00  0.00     0.275 HD
HETATM   25  H           1     -24.107  -4.096  -7.819  0.00  0.00     0.275 HD
ENDBRANCH  17  22
ENDBRANCH   3  17
TORSDOF 11
ENDMDL
MODEL 5
REMARK VINA RESULT:      -5.5      2.697      3.834
REMARK  11 active torsions:
REMARK  status: ('A' for Active; 'I' for Inactive)
REMARK    1  A    between atoms: C_1  and  C_21 
REMARK    2  A    between atoms: C_6  and  C_13 
REMARK    3  A    between atoms: C_6  and  C_7 
REMARK    4  A    between atoms: C_9  and  N_14 
REMARK    5  A    between atoms: C_9  and  C_10 
REMARK    6  A    between atoms: C_10  and  C_19 
REMARK    7  A    between atoms: N_12  and  C_13 
REMARK    8  A    between atoms: C_13  and  C_22 
REMARK    9  A    between atoms: C_19  and  C_20 
REMARK   10  A    between atoms: C_20  and  C_21 
REMARK   11  A    between atoms: C_21  and  N_23 
REMARK       I    between atoms: C_22  and  N_23 
ROOT
HETATM    1  H           1     -21.676  -9.262  -4.005  0.00  0.00     0.163 HD
HETATM    2  O           1     -20.010  -7.975  -1.678  0.00  0.00    -0.271 OA
HETATM    3  C           1     -20.628  -8.825  -2.274  0.00  0.00     0.249 C 
HETATM    4  N           1     -21.159  -8.549  -3.505  0.00  0.00    -0.345 N 
ENDROOT
BRANCH   4   5
HETATM    5  C           1     -20.981  -7.236  -4.094  0.00  0.00     0.185 C 
BRANCH   5   6
HETATM    6  C           1     -22.214  -6.403  -3.845  0.00  0.00     0.196 C 
HETATM    7  O           1     -23.032  -6.207  -4.770  0.00  0.00    -0.646 OA
HETATM    8  O           1     -22.418  -5.911  -2.714  0.00  0.00    -0.646 OA
ENDBRANCH   5   6
BRANCH   5   9
HETATM    9  C           1     -20.758  -7.379  -5.594  0.00  0.00     0.036 C 
BRANCH   9  10
HETATM   10  C           1     -20.010  -6.160  -6.116  0.00  0.00     0.004 C 
BRANCH  10  11
HETATM   11  C           1     -20.754  -5.578  -7.310  0.00  0.00     0.027 C 
BRANCH  11  12
HETATM   12  C           1     -20.840  -4.065  -7.167  0.00  0.00     0.229 C 
BRANCH  12  13
HETATM   13  N           1     -22.203  -3.598  -7.585  0.00  0.00    -0.079 N 
HETATM   14  H           1     -22.861  -3.677  -6.777  0.00  0.00     0.274 HD
HETATM   15  H           1     -22.151  -2.602  -7.895  0.00  0.00     0.274 HD
HETATM   16  H           1     -22.547  -4.190  -8.374  0.00  0.00     0.274 HD
ENDBRANCH  12  13
ENDBRANCH  11  12
ENDBRANCH  10  11
ENDBRANCH   9  10
ENDBRANCH   5   9
ENDBRANCH   4   5
BRANCH   3  17
HETATM   17  C           1     -20.813 -10.192  -1.661  0.00  0.00     0.275 C 
BRANCH  17  18
HETATM   18  C           1     -21.464 -10.050  -0.291  0.00  0.00     0.046 C 
BRANCH  18  19
HETATM   19  C           1     -22.892  -9.546  -0.456  0.00  0.00    -0.020 C 
HETATM   20  C           1     -23.868 -10.670  -0.136  0.00  0.00     0.009 C 
HETATM   21  C           1     -23.131  -8.381   0.496  0.00  0.00     0.009 C 
ENDBRANCH  18  19
ENDBRANCH  17  18
BRANCH  17  22
HETATM   22  N           1     -19.477 -10.857  -1.512  0.00  0.00    -0.066 N 
HETATM   23  H           1     -19.391 -11.255  -0.550  0.00  0.00     0.275 HD
HETATM   24  H           1     -19.391 -11.625  -2.215  0.00  0.00     0.275 HD
HETATM   25  H           1     -18.720 -10.155  -1.668  0.00  0.00     0.275 HD
ENDBRANCH  17  22
ENDBRANCH   3  17
TORSDOF 11
ENDMDL
MODEL 6
REMARK VINA RESULT:      -5.4      2.391      6.398
REMARK  11 active torsions:
REMARK  status: ('A' for Active; 'I' for Inactive)
REMARK    1  A    between atoms: C_1  and  C_21 
REMARK    2  A    between atoms: C_6  and  C_13 
REMARK    3  A    between atoms: C_6  and  C_7 
REMARK    4  A    between atoms: C_9  and  N_14 
REMARK    5  A    between atoms: C_9  and  C_10 
REMARK    6  A    between atoms: C_10  and  C_19 
REMARK    7  A    between atoms: N_12  and  C_13 
REMARK    8  A    between atoms: C_13  and  C_22 
REMARK    9  A    between atoms: C_19  and  C_20 
REMARK   10  A    between atoms: C_20  and  C_21 
REMARK   11  A    between atoms: C_21  and  N_23 
REMARK       I    between atoms: C_22  and  N_23 
ROOT
HETATM    1  H           1     -19.742  -7.261  -6.992  0.00  0.00     0.163 HD
HETATM    2  O           1     -20.581  -5.261  -4.725  0.00  0.00    -0.271 OA
HETATM    3  C           1     -20.308  -5.638  -5.841  0.00  0.00     0.249 C 
HETATM    4  N           1     -19.970  -6.946  -6.058  0.00  0.00    -0.345 N 
ENDROOT
BRANCH   4   5
HETATM    5  C           1     -19.938  -7.881  -4.950  0.00  0.00     0.185 C 
BRANCH   5   6
HETATM    6  C           1     -18.926  -8.963  -5.235  0.00  0.00     0.196 C 
HETATM    7  O           1     -18.461  -9.096  -6.388  0.00  0.00    -0.646 OA
HETATM    8  O           1     -18.551  -9.725  -4.318  0.00  0.00    -0.646 OA
ENDBRANCH   5   6
BRANCH   5   9
HETATM    9  C           1     -21.315  -8.507  -4.775  0.00  0.00     0.036 C 
BRANCH   9  10
HETATM   10  C           1     -21.537  -8.849  -3.307  0.00  0.00     0.004 C 
BRANCH  10  11
HETATM   11  C           1     -20.878  -7.790  -2.434  0.00  0.00     0.027 C 
BRANCH  11  12
HETATM   12  C           1     -21.939  -7.098  -1.588  0.00  0.00     0.229 C 
BRANCH  12  13
HETATM   13  N           1     -22.371  -5.831  -2.265  0.00  0.00    -0.079 N 
HETATM   14  H           1     -22.876  -6.064  -3.150  0.00  0.00     0.274 HD
HETATM   15  H           1     -23.009  -5.298  -1.632  0.00  0.00     0.274 HD
HETATM   16  H           1     -21.532  -5.249  -2.484  0.00  0.00     0.274 HD
ENDBRANCH  12  13
ENDBRANCH  11  12
ENDBRANCH  10  11
ENDBRANCH   9  10
ENDBRANCH   5   9
ENDBRANCH   4   5
BRANCH   3  17
HETATM   17  C           1     -20.341  -4.665  -6.994  0.00  0.00     0.275 C 
BRANCH  17  18
HETATM   18  C           1     -21.156  -5.258  -8.136  0.00  0.00     0.046 C 
BRANCH  18  19
HETATM   19  C           1     -21.972  -4.159  -8.803  0.00  0.00    -0.020 C 
HETATM   20  C           1     -22.070  -4.435 -10.298  0.00  0.00     0.009 C 
HETATM   21  C           1     -23.371  -4.128  -8.201  0.00  0.00     0.009 C 
ENDBRANCH  18  19
ENDBRANCH  17  18
BRANCH  17  22
HETATM   22  N           1     -18.942  -4.401  -7.464  0.00  0.00    -0.066 N 
HETATM   23  H           1     -18.487  -3.704  -6.831  0.00  0.00     0.275 HD
HETATM   24  H           1     -18.396  -5.292  -7.450  0.00  0.00     0.275 HD
HETATM   25  H           1     -18.968  -4.022  -8.437  0.00  0.00     0.275 HD
ENDBRANCH  17  22
ENDBRANCH   3  17
TORSDOF 11
ENDMDL
MODEL 7
REMARK VINA RESULT:      -5.3      2.617      7.155
REMARK  11 active torsions:
REMARK  status: ('A' for Active; 'I' for Inactive)
REMARK    1  A    between atoms: C_1  and  C_21 
REMARK    2  A    between atoms: C_6  and  C_13 
REMARK    3  A    between atoms: C_6  and  C_7 
REMARK    4  A    between atoms: C_9  and  N_14 
REMARK    5  A    between atoms: C_9  and  C_10 
REMARK    6  A    between atoms: C_10  and  C_19 
REMARK    7  A    between atoms: N_12  and  C_13 
REMARK    8  A    between atoms: C_13  and  C_22 
REMARK    9  A    between atoms: C_19  and  C_20 
REMARK   10  A    between atoms: C_20  and  C_21 
REMARK   11  A    between atoms: C_21  and  N_23 
REMARK       I    between atoms: C_22  and  N_23 
ROOT
HETATM    1  H           1     -19.975  -6.514  -4.797  0.00  0.00     0.163 HD
HETATM    2  O           1     -22.946  -5.827  -5.540  0.00  0.00    -0.271 OA
HETATM    3  C           1     -21.739  -5.764  -5.579  0.00  0.00     0.249 C 
HETATM    4  N           1     -20.986  -6.566  -4.765  0.00  0.00    -0.345 N 
ENDROOT
BRANCH   4   5
HETATM    5  C           1     -21.635  -7.490  -3.854  0.00  0.00     0.185 C 
BRANCH   5   6
HETATM    6  C           1     -21.625  -6.911  -2.460  0.00  0.00     0.196 C 
HETATM    7  O           1     -20.877  -7.401  -1.586  0.00  0.00    -0.646 OA
HETATM    8  O           1     -22.364  -5.942  -2.181  0.00  0.00    -0.646 OA
ENDBRANCH   5   6
BRANCH   5   9
HETATM    9  C           1     -20.886  -8.816  -3.859  0.00  0.00     0.036 C 
BRANCH   9  10
HETATM   10  C           1     -21.885  -9.965  -3.813  0.00  0.00     0.004 C 
BRANCH  10  11
HETATM   11  C           1     -21.657 -10.787  -2.551  0.00  0.00     0.027 C 
BRANCH  11  12
HETATM   12  C           1     -22.748 -10.472  -1.536  0.00  0.00     0.229 C 
BRANCH  12  13
HETATM   13  N           1     -22.135  -9.841  -0.321  0.00  0.00    -0.079 N 
HETATM   14  H           1     -22.886  -9.412   0.265  0.00  0.00     0.274 HD
HETATM   15  H           1     -21.633 -10.569   0.235  0.00  0.00     0.274 HD
HETATM   16  H           1     -21.458  -9.102  -0.617  0.00  0.00     0.274 HD
ENDBRANCH  12  13
ENDBRANCH  11  12
ENDBRANCH  10  11
ENDBRANCH   9  10
ENDBRANCH   5   9
ENDBRANCH   4   5
BRANCH   3  17
HETATM   17  C           1     -21.064  -4.803  -6.526  0.00  0.00     0.275 C 
BRANCH  17  18
HETATM   18  C           1     -21.245  -5.290  -7.958  0.00  0.00     0.046 C 
BRANCH  18  19
HETATM   19  C           1     -21.339  -4.093  -8.895  0.00  0.00    -0.020 C 
HETATM   20  C           1     -20.461  -4.332 -10.116  0.00  0.00     0.009 C 
HETATM   21  C           1     -22.784  -3.907  -9.338  0.00  0.00     0.009 C 
ENDBRANCH  18  19
ENDBRANCH  17  18
BRANCH  17  22
HETATM   22  N           1     -19.601  -4.731  -6.205  0.00  0.00    -0.066 N 
HETATM   23  H           1     -19.071  -4.441  -7.058  0.00  0.00     0.275 HD
HETATM   24  H           1     -19.446  -4.033  -5.444  0.00  0.00     0.275 HD
HETATM   25  H           1     -19.267  -5.670  -5.891  0.00  0.00     0.275 HD
ENDBRANCH  17  22
ENDBRANCH   3  17
TORSDOF 11
ENDMDL
MODEL 8
REMARK VINA RESULT:      -5.3      2.671      7.085
REMARK  11 active torsions:
REMARK  status: ('A' for Active; 'I' for Inactive)
REMARK    1  A    between atoms: C_1  and  C_21 
REMARK    2  A    between atoms: C_6  and  C_13 
REMARK    3  A    between atoms: C_6  and  C_7 
REMARK    4  A    between atoms: C_9  and  N_14 
REMARK    5  A    between atoms: C_9  and  C_10 
REMARK    6  A    between atoms: C_10  and  C_19 
REMARK    7  A    between atoms: N_12  and  C_13 
REMARK    8  A    between atoms: C_13  and  C_22 
REMARK    9  A    between atoms: C_19  and  C_20 
REMARK   10  A    between atoms: C_20  and  C_21 
REMARK   11  A    between atoms: C_21  and  N_23 
REMARK       I    between atoms: C_22  and  N_23 
ROOT
HETATM    1  H           1     -19.918  -6.444  -4.860  0.00  0.00     0.163 HD
HETATM    2  O           1     -22.912  -5.824  -5.567  0.00  0.00    -0.271 OA
HETATM    3  C           1     -21.708  -5.729  -5.615  0.00  0.00     0.249 C 
HETATM    4  N           1     -20.926  -6.523  -4.819  0.00  0.00    -0.345 N 
ENDROOT
BRANCH   4   5
HETATM    5  C           1     -21.543  -7.476  -3.917  0.00  0.00     0.185 C 
BRANCH   5   6
HETATM    6  C           1     -21.583  -6.896  -2.525  0.00  0.00     0.196 C 
HETATM    7  O           1     -20.845  -7.365  -1.631  0.00  0.00    -0.646 OA
HETATM    8  O           1     -22.353  -5.946  -2.266  0.00  0.00    -0.646 OA
ENDBRANCH   5   6
BRANCH   5   9
HETATM    9  C           1     -20.729  -8.764  -3.908  0.00  0.00     0.036 C 
BRANCH   9  10
HETATM   10  C           1     -19.653  -8.694  -4.983  0.00  0.00     0.004 C 
BRANCH  10  11
HETATM   11  C           1     -18.451  -9.524  -4.554  0.00  0.00     0.027 C 
BRANCH  11  12
HETATM   12  C           1     -18.210  -9.337  -3.062  0.00  0.00     0.229 C 
BRANCH  12  13
HETATM   13  N           1     -16.745  -9.465  -2.770  0.00  0.00    -0.079 N 
HETATM   14  H           1     -16.361  -8.532  -2.497  0.00  0.00     0.274 HD
HETATM   15  H           1     -16.603 -10.143  -1.987  0.00  0.00     0.274 HD
HETATM   16  H           1     -16.249  -9.811  -3.622  0.00  0.00     0.274 HD
ENDBRANCH  12  13
ENDBRANCH  11  12
ENDBRANCH  10  11
ENDBRANCH   9  10
ENDBRANCH   5   9
ENDBRANCH   4   5
BRANCH   3  17
HETATM   17  C           1     -21.066  -4.737  -6.554  0.00  0.00     0.275 C 
BRANCH  17  18
HETATM   18  C           1     -21.278  -5.190  -7.993  0.00  0.00     0.046 C 
BRANCH  18  19
HETATM   19  C           1     -21.726  -4.005  -8.839  0.00  0.00    -0.020 C 
HETATM   20  C           1     -21.078  -4.087 -10.214  0.00  0.00     0.009 C 
HETATM   21  C           1     -23.241  -4.034  -8.990  0.00  0.00     0.009 C 
ENDBRANCH  18  19
ENDBRANCH  17  18
BRANCH  17  22
HETATM   22  N           1     -19.596  -4.657  -6.267  0.00  0.00    -0.066 N 
HETATM   23  H           1     -19.115  -4.159  -7.050  0.00  0.00     0.275 HD
HETATM   24  H           1     -19.444  -4.134  -5.376  0.00  0.00     0.275 HD
HETATM   25  H           1     -19.206  -5.622  -6.177  0.00  0.00     0.275 HD
ENDBRANCH  17  22
ENDBRANCH   3  17
TORSDOF 11
ENDMDL
MODEL 9
REMARK VINA RESULT:      -5.2      2.509      6.958
REMARK  11 active torsions:
REMARK  status: ('A' for Active; 'I' for Inactive)
REMARK    1  A    between atoms: C_1  and  C_21 
REMARK    2  A    between atoms: C_6  and  C_13 
REMARK    3  A    between atoms: C_6  and  C_7 
REMARK    4  A    between atoms: C_9  and  N_14 
REMARK    5  A    between atoms: C_9  and  C_10 
REMARK    6  A    between atoms: C_10  and  C_19 
REMARK    7  A    between atoms: N_12  and  C_13 
REMARK    8  A    between atoms: C_13  and  C_22 
REMARK    9  A    between atoms: C_19  and  C_20 
REMARK   10  A    between atoms: C_20  and  C_21 
REMARK   11  A    between atoms: C_21  and  N_23 
REMARK       I    between atoms: C_22  and  N_23 
ROOT
HETATM    1  H           1     -22.561  -7.786  -3.881  0.00  0.00     0.163 HD
HETATM    2  O           1     -19.887  -8.067  -5.498  0.00  0.00    -0.271 OA
HETATM    3  C           1     -20.946  -7.593  -5.161  0.00  0.00     0.249 C 
HETATM    4  N           1     -21.673  -8.183  -4.163  0.00  0.00    -0.345 N 
ENDROOT
BRANCH   4   5
HETATM    5  C           1     -21.173  -9.377  -3.510  0.00  0.00     0.185 C 
BRANCH   5   6
HETATM    6  C           1     -21.844 -10.592  -4.102  0.00  0.00     0.196 C 
HETATM    7  O           1     -22.940 -10.984  -3.647  0.00  0.00    -0.646 OA
HETATM    8  O           1     -21.304 -11.205  -5.049  0.00  0.00    -0.646 OA
ENDBRANCH   5   6
BRANCH   5   9
HETATM    9  C           1     -21.478  -9.305  -2.019  0.00  0.00     0.036 C 
BRANCH   9  10
HETATM   10  C           1     -21.064  -7.942  -1.481  0.00  0.00     0.004 C 
BRANCH  10  11
HETATM   11  C           1     -22.258  -7.275  -0.812  0.00  0.00     0.027 C 
BRANCH  11  12
HETATM   12  C           1     -22.695  -8.101   0.390  0.00  0.00     0.229 C 
BRANCH  12  13
HETATM   13  N           1     -21.539  -8.268   1.331  0.00  0.00    -0.079 N 
HETATM   14  H           1     -21.694  -7.679   2.180  0.00  0.00     0.274 HD
HETATM   15  H           1     -21.460  -9.271   1.613  0.00  0.00     0.274 HD
HETATM   16  H           1     -20.658  -7.971   0.856  0.00  0.00     0.274 HD
ENDBRANCH  12  13
ENDBRANCH  11  12
ENDBRANCH  10  11
ENDBRANCH   9  10
ENDBRANCH   5   9
ENDBRANCH   4   5
BRANCH   3  17
HETATM   17  C           1     -21.467  -6.350  -5.841  0.00  0.00     0.275 C 
BRANCH  17  18
HETATM   18  C           1     -20.519  -5.189  -5.572  0.00  0.00     0.046 C 
BRANCH  18  19
HETATM   19  C           1     -20.211  -4.470  -6.879  0.00  0.00    -0.020 C 
HETATM   20  C           1     -20.107  -5.488  -8.007  0.00  0.00     0.009 C 
HETATM   21  C           1     -21.327  -3.482  -7.189  0.00  0.00     0.009 C 
ENDBRANCH  18  19
ENDBRANCH  17  18
BRANCH  17  22
HETATM   22  N           1     -22.827  -6.019  -5.303  0.00  0.00    -0.066 N 
HETATM   23  H           1     -23.538  -6.649  -5.740  0.00  0.00     0.275 HD
HETATM   24  H           1     -22.834  -6.154  -4.267  0.00  0.00     0.275 HD
HETATM   25  H           1     -23.058  -5.025  -5.527  0.00  0.00     0.275 HD
ENDBRANCH  17  22
ENDBRANCH   3  17
TORSDOF 11
ENDMDL
