MODEL 1
REMARK VINA RESULT:      -6.1      0.000      0.000
REMARK  15 active torsions:
REMARK  status: ('A' for Active; 'I' for Inactive)
REMARK    1  A    between atoms: C_10  and  C_34 
REMARK    2  A    between atoms: N_11  and  C_14 
REMARK       I    between atoms: N_12  and  C_25 
REMARK    3  A    between atoms: C_13  and  C_14 
REMARK    4  A    between atoms: C_13  and  C_33 
REMARK    5  A    between atoms: C_14  and  C_15 
REMARK       I    between atoms: C_15  and  N_17 
REMARK    6  A    between atoms: N_17  and  C_21 
REMARK    7  A    between atoms: C_20  and  C_21 
REMARK    8  A    between atoms: C_21  and  C_22 
REMARK    9  A    between atoms: C_22  and  C_23 
REMARK   10  A    between atoms: C_23  and  N_27 
REMARK   11  A    between atoms: C_24  and  C_33 
REMARK   12  A    between atoms: C_24  and  N_29 
REMARK       I    between atoms: C_25  and  N_26 
REMARK   13  A    between atoms: N_27  and  C_34 
REMARK   14  A    between atoms: C_34  and  C_35 
REMARK   15  A    between atoms: C_35  and  S_36 
ROOT
HETATM    1  C           1     -20.378  -7.215  -5.469  0.00  0.00     0.249 C 
HETATM    2  N           1     -20.439  -8.099  -4.424  0.00  0.00    -0.345 N 
HETATM    3  H           1     -21.099  -7.950  -3.673  0.00  0.00     0.163 HD
HETATM    4  O           1     -19.590  -7.394  -6.367  0.00  0.00    -0.271 OA
ENDROOT
BRANCH   1   5
HETATM    5  C           1     -21.295  -6.017  -5.497  0.00  0.00     0.274 C 
BRANCH   5   6
HETATM    6  N           1     -22.082  -5.960  -4.221  0.00  0.00    -0.067 N 
HETATM    7  H           1     -21.628  -6.569  -3.504  0.00  0.00     0.275 HD
HETATM    8  H           1     -23.056  -6.296  -4.399  0.00  0.00     0.275 HD
HETATM    9  H           1     -22.112  -4.975  -3.874  0.00  0.00     0.275 HD
ENDBRANCH   5   6
BRANCH   5  10
HETATM   10  C           1     -20.467  -4.747  -5.640  0.00  0.00     0.044 C 
BRANCH  10  11
HETATM   11  C           1     -20.880  -4.012  -6.908  0.00  0.00     0.023 C 
BRANCH  11  12
HETATM   12  C           1     -21.949  -4.815  -7.637  0.00  0.00     0.138 C 
BRANCH  12  13
HETATM   13  N           1     -23.133  -3.971  -7.854  0.00  0.00    -0.227 N 
HETATM   14  H           1     -23.520  -3.397  -7.064  0.00  0.00     0.177 HD
HETATM   15  C           1     -23.688  -3.939  -8.991  0.00  0.00     0.665 C 
HETATM   16  N           1     -23.209  -4.650  -9.969  0.00  0.00    -0.235 N 
HETATM   17  N           1     -24.708  -3.213  -9.179  0.00  0.00    -0.235 N 
HETATM   18  H           1     -22.366  -5.249  -9.814  0.00  0.00     0.174 HD
HETATM   19  H           1     -23.666  -4.623 -10.908  0.00  0.00     0.174 HD
HETATM   20  H           1     -25.095  -2.638  -8.389  0.00  0.00     0.174 HD
HETATM   21  H           1     -25.168  -3.185 -10.122  0.00  0.00     0.174 HD
ENDBRANCH  12  13
ENDBRANCH  11  12
ENDBRANCH  10  11
ENDBRANCH   5  10
ENDBRANCH   1   5
BRANCH   2  22
HETATM   22  C           1     -19.557  -9.250  -4.398  0.00  0.00     0.187 C 
BRANCH  22  23
HETATM   23  C           1     -20.319 -10.477  -4.830  0.00  0.00     0.196 C 
HETATM   24  O           1     -20.415 -10.759  -6.044  0.00  0.00    -0.646 OA
HETATM   25  O           1     -20.857 -11.213  -3.974  0.00  0.00    -0.646 OA
ENDBRANCH  22  23
BRANCH  22  26
HETATM   26  C           1     -19.030  -9.451  -2.983  0.00  0.00     0.066 C 
BRANCH  26  27
HETATM   27  C           1     -19.833  -8.592  -2.015  0.00  0.00     0.273 C 
BRANCH  27  28
HETATM   28  N           1     -20.634  -9.438  -1.173  0.00  0.00     0.099 N 
HETATM   29  H           1     -20.341  -9.328  -0.202  0.00  0.00     0.317 HD
BRANCH  28  30
HETATM   30  C           1     -22.004  -9.021  -1.310  0.00  0.00     0.329 C 
BRANCH  30  31
HETATM   31  C           1     -22.221  -7.749  -0.527  0.00  0.00     0.208 C 
HETATM   32  O           1     -22.635  -6.722  -1.106  0.00  0.00    -0.646 OA
HETATM   33  O           1     -21.987  -7.724   0.701  0.00  0.00    -0.646 OA
ENDBRANCH  30  31
BRANCH  30  34
HETATM   34  C           1     -22.921 -10.111  -0.774  0.00  0.00     0.117 C 
BRANCH  34  35
HETATM   35  S           1     -21.933 -11.364   0.090  0.00  0.00    -0.180 SA
HETATM   36  H           1     -22.729 -11.451   1.171  0.00  0.00     0.101 HD
ENDBRANCH  34  35
ENDBRANCH  30  34
ENDBRANCH  28  30
ENDBRANCH  27  28
ENDBRANCH  26  27
ENDBRANCH  22  26
ENDBRANCH   2  22
TORSDOF 15
ENDMDL
MODEL 2
REMARK VINA RESULT:      -6.0      1.964      4.013
REMARK  15 active torsions:
REMARK  status: ('A' for Active; 'I' for Inactive)
REMARK    1  A    between atoms: C_10  and  C_34 
REMARK    2  A    between atoms: N_11  and  C_14 
REMARK       I    between atoms: N_12  and  C_25 
REMARK    3  A    between atoms: C_13  and  C_14 
REMARK    4  A    between atoms: C_13  and  C_33 
REMARK    5  A    between atoms: C_14  and  C_15 
REMARK       I    between atoms: C_15  and  N_17 
REMARK    6  A    between atoms: N_17  and  C_21 
REMARK    7  A    between atoms: C_20  and  C_21 
REMARK    8  A    between atoms: C_21  and  C_22 
REMARK    9  A    between atoms: C_22  and  C_23 
REMARK   10  A    between atoms: C_23  and  N_27 
REMARK   11  A    between atoms: C_24  and  C_33 
REMARK   12  A    between atoms: C_24  and  N_29 
REMARK       I    between atoms: C_25  and  N_26 
REMARK   13  A    between atoms: N_27  and  C_34 
REMARK   14  A    between atoms: C_34  and  C_35 
REMARK   15  A    between atoms: C_35  and  S_36 
ROOT
HETATM    1  C           1     -21.323  -6.728  -4.864  0.00  0.00     0.249 C 
HETATM    2  N           1     -20.891  -6.639  -3.567  0.00  0.00    -0.345 N 
HETATM    3  H           1     -20.240  -5.913  -3.299  0.00  0.00     0.163 HD
HETATM    4  O           1     -22.101  -7.595  -5.184  0.00  0.00    -0.271 OA
ENDROOT
BRANCH   1   5
HETATM    5  C           1     -20.824  -5.744  -5.894  0.00  0.00     0.274 C 
BRANCH   5   6
HETATM    6  N           1     -20.030  -6.471  -6.937  0.00  0.00    -0.067 N 
HETATM    7  H           1     -19.064  -6.075  -6.979  0.00  0.00     0.275 HD
HETATM    8  H           1     -20.494  -6.359  -7.868  0.00  0.00     0.275 HD
HETATM    9  H           1     -19.981  -7.486  -6.693  0.00  0.00     0.275 HD
ENDBRANCH   5   6
BRANCH   5  10
HETATM   10  C           1     -22.011  -5.051  -6.550  0.00  0.00     0.044 C 
BRANCH  10  11
HETATM   11  C           1     -21.521  -3.851  -7.349  0.00  0.00     0.023 C 
BRANCH  11  12
HETATM   12  C           1     -22.109  -3.898  -8.753  0.00  0.00     0.138 C 
BRANCH  12  13
HETATM   13  N           1     -23.548  -3.603  -8.691  0.00  0.00    -0.227 N 
HETATM   14  H           1     -23.962  -3.185  -7.820  0.00  0.00     0.177 HD
HETATM   15  C           1     -24.289  -3.853  -9.686  0.00  0.00     0.665 C 
HETATM   16  N           1     -23.777  -4.371 -10.764  0.00  0.00    -0.235 N 
HETATM   17  N           1     -25.528  -3.599  -9.634  0.00  0.00    -0.235 N 
HETATM   18  H           1     -22.754  -4.580 -10.807  0.00  0.00     0.174 HD
HETATM   19  H           1     -24.388  -4.577 -11.586  0.00  0.00     0.174 HD
HETATM   20  H           1     -25.942  -3.181  -8.764  0.00  0.00     0.174 HD
HETATM   21  H           1     -26.143  -3.807 -10.460  0.00  0.00     0.174 HD
ENDBRANCH  12  13
ENDBRANCH  11  12
ENDBRANCH  10  11
ENDBRANCH   5  10
ENDBRANCH   1   5
BRANCH   2  22
HETATM   22  C           1     -21.370  -7.586  -2.578  0.00  0.00     0.187 C 
BRANCH  22  23
HETATM   23  C           1     -22.136  -6.849  -1.507  0.00  0.00     0.196 C 
HETATM   24  O           1     -22.492  -7.447  -0.469  0.00  0.00    -0.646 OA
HETATM   25  O           1     -22.415  -5.640  -1.659  0.00  0.00    -0.646 OA
ENDBRANCH  22  23
BRANCH  22  26
HETATM   26  C           1     -20.184  -8.306  -1.950  0.00  0.00     0.066 C 
BRANCH  26  27
HETATM   27  C           1     -20.225  -9.780  -2.330  0.00  0.00     0.273 C 
BRANCH  27  28
HETATM   28  N           1     -18.884 -10.272  -2.492  0.00  0.00     0.099 N 
HETATM   29  H           1     -18.913 -11.223  -2.860  0.00  0.00     0.317 HD
BRANCH  28  30
HETATM   30  C           1     -18.213  -9.415  -3.431  0.00  0.00     0.329 C 
BRANCH  30  31
HETATM   31  C           1     -18.540  -9.857  -4.836  0.00  0.00     0.208 C 
HETATM   32  O           1     -18.862  -9.012  -5.699  0.00  0.00    -0.646 OA
HETATM   33  O           1     -18.490 -11.069  -5.137  0.00  0.00    -0.646 OA
ENDBRANCH  30  31
BRANCH  30  34
HETATM   34  C           1     -16.710  -9.498  -3.208  0.00  0.00     0.117 C 
BRANCH  34  35
HETATM   35  S           1     -16.332 -10.923  -2.150  0.00  0.00    -0.180 SA
HETATM   36  H           1     -15.990 -11.755  -3.151  0.00  0.00     0.101 HD
ENDBRANCH  34  35
ENDBRANCH  30  34
ENDBRANCH  28  30
ENDBRANCH  27  28
ENDBRANCH  26  27
ENDBRANCH  22  26
ENDBRANCH   2  22
TORSDOF 15
ENDMDL
MODEL 3
REMARK VINA RESULT:      -6.0     13.518     15.936
REMARK  15 active torsions:
REMARK  status: ('A' for Active; 'I' for Inactive)
REMARK    1  A    between atoms: C_10  and  C_34 
REMARK    2  A    between atoms: N_11  and  C_14 
REMARK       I    between atoms: N_12  and  C_25 
REMARK    3  A    between atoms: C_13  and  C_14 
REMARK    4  A    between atoms: C_13  and  C_33 
REMARK    5  A    between atoms: C_14  and  C_15 
REMARK       I    between atoms: C_15  and  N_17 
REMARK    6  A    between atoms: N_17  and  C_21 
REMARK    7  A    between atoms: C_20  and  C_21 
REMARK    8  A    between atoms: C_21  and  C_22 
REMARK    9  A    between atoms: C_22  and  C_23 
REMARK   10  A    between atoms: C_23  and  N_27 
REMARK   11  A    between atoms: C_24  and  C_33 
REMARK   12  A    between atoms: C_24  and  N_29 
REMARK       I    between atoms: C_25  and  N_26 
REMARK   13  A    between atoms: N_27  and  C_34 
REMARK   14  A    between atoms: C_34  and  C_35 
REMARK   15  A    between atoms: C_35  and  S_36 
ROOT
HETATM    1  C           1     -31.414  -5.436 -16.591  0.00  0.00     0.249 C 
HETATM    2  N           1     -32.215  -4.564 -15.902  0.00  0.00    -0.345 N 
HETATM    3  H           1     -31.818  -3.970 -15.187  0.00  0.00     0.163 HD
HETATM    4  O           1     -31.888  -6.145 -17.447  0.00  0.00    -0.271 OA
ENDROOT
BRANCH   1   5
HETATM    5  C           1     -29.939  -5.511 -16.280  0.00  0.00     0.274 C 
BRANCH   5   6
HETATM    6  N           1     -29.749  -5.705 -14.806  0.00  0.00    -0.067 N 
HETATM    7  H           1     -28.924  -5.151 -14.485  0.00  0.00     0.275 HD
HETATM    8  H           1     -29.587  -6.719 -14.607  0.00  0.00     0.275 HD
HETATM    9  H           1     -30.603  -5.384 -14.299  0.00  0.00     0.275 HD
ENDBRANCH   5   6
BRANCH   5  10
HETATM   10  C           1     -29.321  -6.683 -17.031  0.00  0.00     0.044 C 
BRANCH  10  11
HETATM   11  C           1     -28.143  -6.191 -17.860  0.00  0.00     0.023 C 
BRANCH  11  12
HETATM   12  C           1     -26.953  -5.926 -16.947  0.00  0.00     0.138 C 
BRANCH  12  13
HETATM   13  N           1     -25.793  -6.696 -17.417  0.00  0.00    -0.227 N 
HETATM   14  H           1     -25.737  -7.001 -18.421  0.00  0.00     0.177 HD
HETATM   15  C           1     -24.861  -6.992 -16.613  0.00  0.00     0.665 C 
HETATM   16  N           1     -24.930  -6.614 -15.370  0.00  0.00    -0.235 N 
HETATM   17  N           1     -23.861  -7.655 -17.017  0.00  0.00    -0.235 N 
HETATM   18  H           1     -25.756  -6.066 -15.037  0.00  0.00     0.174 HD
HETATM   19  H           1     -24.162  -6.857 -14.706  0.00  0.00     0.174 HD
HETATM   20  H           1     -23.805  -7.960 -18.021  0.00  0.00     0.174 HD
HETATM   21  H           1     -23.089  -7.900 -16.350  0.00  0.00     0.174 HD
ENDBRANCH  12  13
ENDBRANCH  11  12
ENDBRANCH  10  11
ENDBRANCH   5  10
ENDBRANCH   1   5
BRANCH   2  22
HETATM   22  C           1     -33.633  -4.492 -16.201  0.00  0.00     0.187 C 
BRANCH  22  23
HETATM   23  C           1     -33.957  -3.134 -16.771  0.00  0.00     0.196 C 
HETATM   24  O           1     -33.212  -2.623 -17.634  0.00  0.00    -0.646 OA
HETATM   25  O           1     -34.972  -2.518 -16.379  0.00  0.00    -0.646 OA
ENDBRANCH  22  23
BRANCH  22  26
HETATM   26  C           1     -34.431  -4.712 -14.923  0.00  0.00     0.066 C 
BRANCH  26  27
HETATM   27  C           1     -33.660  -4.144 -13.739  0.00  0.00     0.273 C 
BRANCH  27  28
HETATM   28  N           1     -34.353  -2.996 -13.220  0.00  0.00     0.099 N 
HETATM   29  H           1     -35.282  -2.942 -13.639  0.00  0.00     0.317 HD
BRANCH  28  30
HETATM   30  C           1     -34.479  -3.166 -11.798  0.00  0.00     0.329 C 
BRANCH  30  31
HETATM   31  C           1     -34.238  -1.843 -11.111  0.00  0.00     0.208 C 
HETATM   32  O           1     -34.478  -0.775 -11.713  0.00  0.00    -0.646 OA
HETATM   33  O           1     -33.799  -1.818  -9.941  0.00  0.00    -0.646 OA
ENDBRANCH  30  31
BRANCH  30  34
HETATM   34  C           1     -33.453  -4.183 -11.316  0.00  0.00     0.117 C 
BRANCH  34  35
HETATM   35  S           1     -34.306  -5.570 -10.515  0.00  0.00    -0.180 SA
HETATM   36  H           1     -35.358  -5.592 -11.354  0.00  0.00     0.101 HD
ENDBRANCH  34  35
ENDBRANCH  30  34
ENDBRANCH  28  30
ENDBRANCH  27  28
ENDBRANCH  26  27
ENDBRANCH  22  26
ENDBRANCH   2  22
TORSDOF 15
ENDMDL
MODEL 4
REMARK VINA RESULT:      -5.9     16.054     18.182
REMARK  15 active torsions:
REMARK  status: ('A' for Active; 'I' for Inactive)
REMARK    1  A    between atoms: C_10  and  C_34 
REMARK    2  A    between atoms: N_11  and  C_14 
REMARK       I    between atoms: N_12  and  C_25 
REMARK    3  A    between atoms: C_13  and  C_14 
REMARK    4  A    between atoms: C_13  and  C_33 
REMARK    5  A    between atoms: C_14  and  C_15 
REMARK       I    between atoms: C_15  and  N_17 
REMARK    6  A    between atoms: N_17  and  C_21 
REMARK    7  A    between atoms: C_20  and  C_21 
REMARK    8  A    between atoms: C_21  and  C_22 
REMARK    9  A    between atoms: C_22  and  C_23 
REMARK   10  A    between atoms: C_23  and  N_27 
REMARK   11  A    between atoms: C_24  and  C_33 
REMARK   12  A    between atoms: C_24  and  N_29 
REMARK       I    between atoms: C_25  and  N_26 
REMARK   13  A    between atoms: N_27  and  C_34 
REMARK   14  A    between atoms: C_34  and  C_35 
REMARK   15  A    between atoms: C_35  and  S_36 
ROOT
HETATM    1  C           1     -34.335  -2.878 -16.121  0.00  0.00     0.249 C 
HETATM    2  N           1     -34.866  -1.664 -16.467  0.00  0.00    -0.345 N 
HETATM    3  H           1     -34.704  -1.286 -17.390  0.00  0.00     0.163 HD
HETATM    4  O           1     -34.529  -3.331 -15.018  0.00  0.00    -0.271 OA
ENDROOT
BRANCH   1   5
HETATM    5  C           1     -33.505  -3.650 -17.118  0.00  0.00     0.274 C 
BRANCH   5   6
HETATM    6  N           1     -32.351  -2.805 -17.568  0.00  0.00    -0.067 N 
HETATM    7  H           1     -31.937  -2.313 -16.745  0.00  0.00     0.275 HD
HETATM    8  H           1     -32.687  -2.099 -18.263  0.00  0.00     0.275 HD
HETATM    9  H           1     -31.627  -3.412 -18.012  0.00  0.00     0.275 HD
ENDBRANCH   5   6
BRANCH   5  10
HETATM   10  C           1     -32.979  -4.921 -16.465  0.00  0.00     0.044 C 
BRANCH  10  11
HETATM   11  C           1     -31.458  -4.936 -16.535  0.00  0.00     0.023 C 
BRANCH  11  12
HETATM   12  C           1     -30.990  -6.232 -17.184  0.00  0.00     0.138 C 
BRANCH  12  13
HETATM   13  N           1     -29.677  -6.020 -17.810  0.00  0.00    -0.227 N 
HETATM   14  H           1     -29.243  -5.064 -17.809  0.00  0.00     0.177 HD
HETATM   15  C           1     -29.071  -6.990 -18.353  0.00  0.00     0.665 C 
HETATM   16  N           1     -29.609  -8.174 -18.355  0.00  0.00    -0.235 N 
HETATM   17  N           1     -27.940  -6.809 -18.893  0.00  0.00    -0.235 N 
HETATM   18  H           1     -30.543  -8.324 -17.909  0.00  0.00     0.174 HD
HETATM   19  H           1     -29.109  -8.975 -18.802  0.00  0.00     0.174 HD
HETATM   20  H           1     -27.506  -5.852 -18.891  0.00  0.00     0.174 HD
HETATM   21  H           1     -27.438  -7.613 -19.343  0.00  0.00     0.174 HD
ENDBRANCH  12  13
ENDBRANCH  11  12
ENDBRANCH  10  11
ENDBRANCH   5  10
ENDBRANCH   1   5
BRANCH   2  22
HETATM   22  C           1     -35.663  -0.923 -15.508  0.00  0.00     0.187 C 
BRANCH  22  23
HETATM   23  C           1     -36.935  -0.454 -16.169  0.00  0.00     0.196 C 
HETATM   24  O           1     -37.198   0.767 -16.225  0.00  0.00    -0.646 OA
HETATM   25  O           1     -37.728  -1.286 -16.659  0.00  0.00    -0.646 OA
ENDBRANCH  22  23
BRANCH  22  26
HETATM   26  C           1     -34.872   0.282 -15.016  0.00  0.00     0.066 C 
BRANCH  26  27
HETATM   27  C           1     -34.944   0.351 -13.497  0.00  0.00     0.273 C 
BRANCH  27  28
HETATM   28  N           1     -34.825  -0.973 -12.949  0.00  0.00     0.099 N 
HETATM   29  H           1     -33.846  -1.261 -12.965  0.00  0.00     0.317 HD
BRANCH  28  30
HETATM   30  C           1     -35.289  -0.928 -11.589  0.00  0.00     0.329 C 
BRANCH  30  31
HETATM   31  C           1     -35.162  -2.299 -10.970  0.00  0.00     0.208 C 
HETATM   32  O           1     -34.072  -2.665 -10.480  0.00  0.00    -0.646 OA
HETATM   33  O           1     -36.147  -3.068 -10.949  0.00  0.00    -0.646 OA
ENDBRANCH  30  31
BRANCH  30  34
HETATM   34  C           1     -36.747  -0.492 -11.565  0.00  0.00     0.117 C 
BRANCH  34  35
HETATM   35  S           1     -37.102   0.349  -9.995  0.00  0.00    -0.180 SA
HETATM   36  H           1     -37.426  -0.763  -9.310  0.00  0.00     0.101 HD
ENDBRANCH  34  35
ENDBRANCH  30  34
ENDBRANCH  28  30
ENDBRANCH  27  28
ENDBRANCH  26  27
ENDBRANCH  22  26
ENDBRANCH   2  22
TORSDOF 15
ENDMDL
MODEL 5
REMARK VINA RESULT:      -5.9      1.808      2.417
REMARK  15 active torsions:
REMARK  status: ('A' for Active; 'I' for Inactive)
REMARK    1  A    between atoms: C_10  and  C_34 
REMARK    2  A    between atoms: N_11  and  C_14 
REMARK       I    between atoms: N_12  and  C_25 
REMARK    3  A    between atoms: C_13  and  C_14 
REMARK    4  A    between atoms: C_13  and  C_33 
REMARK    5  A    between atoms: C_14  and  C_15 
REMARK       I    between atoms: C_15  and  N_17 
REMARK    6  A    between atoms: N_17  and  C_21 
REMARK    7  A    between atoms: C_20  and  C_21 
REMARK    8  A    between atoms: C_21  and  C_22 
REMARK    9  A    between atoms: C_22  and  C_23 
REMARK   10  A    between atoms: C_23  and  N_27 
REMARK   11  A    between atoms: C_24  and  C_33 
REMARK   12  A    between atoms: C_24  and  N_29 
REMARK       I    between atoms: C_25  and  N_26 
REMARK   13  A    between atoms: N_27  and  C_34 
REMARK   14  A    between atoms: C_34  and  C_35 
REMARK   15  A    between atoms: C_35  and  S_36 
ROOT
HETATM    1  C           1     -21.364  -6.235  -5.656  0.00  0.00     0.249 C 
HETATM    2  N           1     -20.626  -7.360  -5.913  0.00  0.00    -0.345 N 
HETATM    3  H           1     -20.282  -7.537  -6.847  0.00  0.00     0.163 HD
HETATM    4  O           1     -21.775  -6.024  -4.540  0.00  0.00    -0.271 OA
ENDROOT
BRANCH   1   5
HETATM    5  C           1     -21.665  -5.261  -6.768  0.00  0.00     0.274 C 
BRANCH   5   6
HETATM    6  N           1     -23.073  -4.763  -6.629  0.00  0.00    -0.067 N 
HETATM    7  H           1     -23.414  -4.948  -5.660  0.00  0.00     0.275 HD
HETATM    8  H           1     -23.687  -5.259  -7.316  0.00  0.00     0.275 HD
HETATM    9  H           1     -23.100  -3.736  -6.818  0.00  0.00     0.275 HD
ENDBRANCH   5   6
BRANCH   5  10
HETATM   10  C           1     -20.701  -4.085  -6.688  0.00  0.00     0.044 C 
BRANCH  10  11
HETATM   11  C           1     -19.786  -4.094  -7.905  0.00  0.00     0.023 C 
BRANCH  11  12
HETATM   12  C           1     -20.343  -5.048  -8.954  0.00  0.00     0.138 C 
BRANCH  12  13
HETATM   13  N           1     -20.240  -4.429 -10.284  0.00  0.00    -0.227 N 
HETATM   14  H           1     -19.295  -4.211 -10.689  0.00  0.00     0.177 HD
HETATM   15  C           1     -21.288  -4.159 -10.940  0.00  0.00     0.665 C 
HETATM   16  N           1     -22.457  -4.430 -10.438  0.00  0.00    -0.235 N 
HETATM   17  N           1     -21.200  -3.627 -12.085  0.00  0.00    -0.235 N 
HETATM   18  H           1     -22.530  -4.870  -9.492  0.00  0.00     0.174 HD
HETATM   19  H           1     -23.322  -4.208 -10.979  0.00  0.00     0.174 HD
HETATM   20  H           1     -20.255  -3.408 -12.490  0.00  0.00     0.174 HD
HETATM   21  H           1     -22.069  -3.403 -12.629  0.00  0.00     0.174 HD
ENDBRANCH  12  13
ENDBRANCH  11  12
ENDBRANCH  10  11
ENDBRANCH   5  10
ENDBRANCH   1   5
BRANCH   2  22
HETATM   22  C           1     -20.337  -8.296  -4.843  0.00  0.00     0.187 C 
BRANCH  22  23
HETATM   23  C           1     -18.957  -8.872  -5.039  0.00  0.00     0.196 C 
HETATM   24  O           1     -18.270  -9.202  -4.048  0.00  0.00    -0.646 OA
HETATM   25  O           1     -18.498  -9.018  -6.193  0.00  0.00    -0.646 OA
ENDBRANCH  22  23
BRANCH  22  26
HETATM   26  C           1     -21.364  -9.421  -4.864  0.00  0.00     0.066 C 
BRANCH  26  27
HETATM   27  C           1     -21.815  -9.723  -3.441  0.00  0.00     0.273 C 
BRANCH  27  28
HETATM   28  N           1     -21.589  -8.572  -2.611  0.00  0.00     0.099 N 
HETATM   29  H           1     -22.172  -7.800  -2.934  0.00  0.00     0.317 HD
BRANCH  28  30
HETATM   30  C           1     -21.959  -8.922  -1.266  0.00  0.00     0.329 C 
BRANCH  30  31
HETATM   31  C           1     -22.256  -7.665  -0.484  0.00  0.00     0.208 C 
HETATM   32  O           1     -22.134  -7.660   0.759  0.00  0.00    -0.646 OA
HETATM   33  O           1     -22.622  -6.630  -1.082  0.00  0.00    -0.646 OA
ENDBRANCH  30  31
BRANCH  30  34
HETATM   34  C           1     -20.814  -9.675  -0.604  0.00  0.00     0.117 C 
BRANCH  34  35
HETATM   35  S           1     -21.451 -11.190   0.166  0.00  0.00    -0.180 SA
HETATM   36  H           1     -21.076 -12.020  -0.824  0.00  0.00     0.101 HD
ENDBRANCH  34  35
ENDBRANCH  30  34
ENDBRANCH  28  30
ENDBRANCH  27  28
ENDBRANCH  26  27
ENDBRANCH  22  26
ENDBRANCH   2  22
TORSDOF 15
ENDMDL
MODEL 6
REMARK VINA RESULT:      -5.8      2.097      4.033
REMARK  15 active torsions:
REMARK  status: ('A' for Active; 'I' for Inactive)
REMARK    1  A    between atoms: C_10  and  C_34 
REMARK    2  A    between atoms: N_11  and  C_14 
REMARK       I    between atoms: N_12  and  C_25 
REMARK    3  A    between atoms: C_13  and  C_14 
REMARK    4  A    between atoms: C_13  and  C_33 
REMARK    5  A    between atoms: C_14  and  C_15 
REMARK       I    between atoms: C_15  and  N_17 
REMARK    6  A    between atoms: N_17  and  C_21 
REMARK    7  A    between atoms: C_20  and  C_21 
REMARK    8  A    between atoms: C_21  and  C_22 
REMARK    9  A    between atoms: C_22  and  C_23 
REMARK   10  A    between atoms: C_23  and  N_27 
REMARK   11  A    between atoms: C_24  and  C_33 
REMARK   12  A    between atoms: C_24  and  N_29 
REMARK       I    between atoms: C_25  and  N_26 
REMARK   13  A    between atoms: N_27  and  C_34 
REMARK   14  A    between atoms: C_34  and  C_35 
REMARK   15  A    between atoms: C_35  and  S_36 
ROOT
HETATM    1  C           1     -21.323  -6.680  -4.954  0.00  0.00     0.249 C 
HETATM    2  N           1     -20.922  -6.601  -3.646  0.00  0.00    -0.345 N 
HETATM    3  H           1     -20.303  -5.857  -3.352  0.00  0.00     0.163 HD
HETATM    4  O           1     -22.063  -7.568  -5.306  0.00  0.00    -0.271 OA
ENDROOT
BRANCH   1   5
HETATM    5  C           1     -20.839  -5.659  -5.954  0.00  0.00     0.274 C 
BRANCH   5   6
HETATM    6  N           1     -19.962  -6.330  -6.969  0.00  0.00    -0.067 N 
HETATM    7  H           1     -18.991  -5.953  -6.895  0.00  0.00     0.275 HD
HETATM    8  H           1     -20.337  -6.146  -7.928  0.00  0.00     0.275 HD
HETATM    9  H           1     -19.950  -7.360  -6.793  0.00  0.00     0.275 HD
ENDBRANCH   5   6
BRANCH   5  10
HETATM   10  C           1     -22.035  -5.028  -6.655  0.00  0.00     0.044 C 
BRANCH  10  11
HETATM   11  C           1     -21.583  -3.787  -7.413  0.00  0.00     0.023 C 
BRANCH  11  12
HETATM   12  C           1     -22.103  -3.846  -8.843  0.00  0.00     0.138 C 
BRANCH  12  13
HETATM   13  N           1     -23.507  -3.411  -8.872  0.00  0.00    -0.227 N 
HETATM   14  H           1     -23.833  -2.646  -8.231  0.00  0.00     0.177 HD
HETATM   15  C           1     -24.323  -3.959  -9.669  0.00  0.00     0.665 C 
HETATM   16  N           1     -23.920  -4.906 -10.464  0.00  0.00    -0.235 N 
HETATM   17  N           1     -25.533  -3.585  -9.695  0.00  0.00    -0.235 N 
HETATM   18  H           1     -22.922  -5.215 -10.442  0.00  0.00     0.174 HD
HETATM   19  H           1     -24.593  -5.359 -11.122  0.00  0.00     0.174 HD
HETATM   20  H           1     -25.859  -2.819  -9.054  0.00  0.00     0.174 HD
HETATM   21  H           1     -26.210  -4.039 -10.357  0.00  0.00     0.174 HD
ENDBRANCH  12  13
ENDBRANCH  11  12
ENDBRANCH  10  11
ENDBRANCH   5  10
ENDBRANCH   1   5
BRANCH   2  22
HETATM   22  C           1     -21.388  -7.583  -2.686  0.00  0.00     0.187 C 
BRANCH  22  23
HETATM   23  C           1     -22.073  -6.879  -1.541  0.00  0.00     0.196 C 
HETATM   24  O           1     -22.432  -5.688  -1.663  0.00  0.00    -0.646 OA
HETATM   25  O           1     -22.281  -7.487  -0.468  0.00  0.00    -0.646 OA
ENDBRANCH  22  23
BRANCH  22  26
HETATM   26  C           1     -20.200  -8.376  -2.157  0.00  0.00     0.066 C 
BRANCH  26  27
HETATM   27  C           1     -20.262  -9.801  -2.690  0.00  0.00     0.273 C 
BRANCH  27  28
HETATM   28  N           1     -18.947 -10.223  -3.087  0.00  0.00     0.099 N 
HETATM   29  H           1     -18.645 -10.998  -2.496  0.00  0.00     0.317 HD
BRANCH  28  30
HETATM   30  C           1     -19.022 -10.665  -4.454  0.00  0.00     0.329 C 
BRANCH  30  31
HETATM   31  C           1     -18.226  -9.728  -5.329  0.00  0.00     0.208 C 
HETATM   32  O           1     -16.983  -9.843  -5.399  0.00  0.00    -0.646 OA
HETATM   33  O           1     -18.810  -8.837  -5.983  0.00  0.00    -0.646 OA
ENDBRANCH  30  31
BRANCH  30  34
HETATM   34  C           1     -20.476 -10.671  -4.905  0.00  0.00     0.117 C 
BRANCH  34  35
HETATM   35  S           1     -20.699 -11.908  -6.215  0.00  0.00    -0.180 SA
HETATM   36  H           1     -22.009 -12.117  -5.990  0.00  0.00     0.101 HD
ENDBRANCH  34  35
ENDBRANCH  30  34
ENDBRANCH  28  30
ENDBRANCH  27  28
ENDBRANCH  26  27
ENDBRANCH  22  26
ENDBRANCH   2  22
TORSDOF 15
ENDMDL
MODEL 7
REMARK VINA RESULT:      -5.7     13.059     16.117
REMARK  15 active torsions:
REMARK  status: ('A' for Active; 'I' for Inactive)
REMARK    1  A    between atoms: C_10  and  C_34 
REMARK    2  A    between atoms: N_11  and  C_14 
REMARK       I    between atoms: N_12  and  C_25 
REMARK    3  A    between atoms: C_13  and  C_14 
REMARK    4  A    between atoms: C_13  and  C_33 
REMARK    5  A    between atoms: C_14  and  C_15 
REMARK       I    between atoms: C_15  and  N_17 
REMARK    6  A    between atoms: N_17  and  C_21 
REMARK    7  A    between atoms: C_20  and  C_21 
REMARK    8  A    between atoms: C_21  and  C_22 
REMARK    9  A    between atoms: C_22  and  C_23 
REMARK   10  A    between atoms: C_23  and  N_27 
REMARK   11  A    between atoms: C_24  and  C_33 
REMARK   12  A    between atoms: C_24  and  N_29 
REMARK       I    between atoms: C_25  and  N_26 
REMARK   13  A    between atoms: N_27  and  C_34 
REMARK   14  A    between atoms: C_34  and  C_35 
REMARK   15  A    between atoms: C_35  and  S_36 
ROOT
HETATM    1  C           1     -26.545  -6.572 -19.065  0.00  0.00     0.249 C 
HETATM    2  N           1     -25.890  -6.832 -17.890  0.00  0.00    -0.345 N 
HETATM    3  H           1     -25.121  -7.489 -17.875  0.00  0.00     0.163 HD
HETATM    4  O           1     -27.463  -5.787 -19.084  0.00  0.00    -0.271 OA
ENDROOT
BRANCH   1   5
HETATM    5  C           1     -26.119  -7.267 -20.335  0.00  0.00     0.274 C 
BRANCH   5   6
HETATM    6  N           1     -27.293  -7.988 -20.927  0.00  0.00    -0.067 N 
HETATM    7  H           1     -27.881  -7.314 -21.467  0.00  0.00     0.275 HD
HETATM    8  H           1     -27.863  -8.413 -20.160  0.00  0.00     0.275 HD
HETATM    9  H           1     -26.953  -8.742 -21.565  0.00  0.00     0.275 HD
ENDBRANCH   5   6
BRANCH   5  10
HETATM   10  C           1     -25.603  -6.235 -21.330  0.00  0.00     0.044 C 
BRANCH  10  11
HETATM   11  C           1     -24.445  -6.827 -22.121  0.00  0.00     0.023 C 
BRANCH  11  12
HETATM   12  C           1     -24.021  -8.147 -21.492  0.00  0.00     0.138 C 
BRANCH  12  13
HETATM   13  N           1     -23.034  -8.809 -22.358  0.00  0.00    -0.227 N 
HETATM   14  H           1     -23.304  -9.106 -23.329  0.00  0.00     0.177 HD
HETATM   15  C           1     -21.861  -9.020 -21.934  0.00  0.00     0.665 C 
HETATM   16  N           1     -21.527  -8.652 -20.732  0.00  0.00    -0.235 N 
HETATM   17  N           1     -21.010  -9.590 -22.680  0.00  0.00    -0.235 N 
HETATM   18  H           1     -22.229  -8.182 -20.117  0.00  0.00     0.174 HD
HETATM   19  H           1     -20.558  -8.826 -20.382  0.00  0.00     0.174 HD
HETATM   20  H           1     -21.280  -9.888 -23.650  0.00  0.00     0.174 HD
HETATM   21  H           1     -20.037  -9.766 -22.328  0.00  0.00     0.174 HD
ENDBRANCH  12  13
ENDBRANCH  11  12
ENDBRANCH  10  11
ENDBRANCH   5  10
ENDBRANCH   1   5
BRANCH   2  22
HETATM   22  C           1     -26.300  -6.165 -16.670  0.00  0.00     0.187 C 
BRANCH  22  23
HETATM   23  C           1     -25.390  -6.580 -15.540  0.00  0.00     0.196 C 
HETATM   24  O           1     -24.823  -7.694 -15.571  0.00  0.00    -0.646 OA
HETATM   25  O           1     -25.203  -5.811 -14.573  0.00  0.00    -0.646 OA
ENDBRANCH  22  23
BRANCH  22  26
HETATM   26  C           1     -27.734  -6.554 -16.337  0.00  0.00     0.066 C 
BRANCH  26  27
HETATM   27  C           1     -28.459  -5.357 -15.737  0.00  0.00     0.273 C 
BRANCH  27  28
HETATM   28  N           1     -29.867  -5.638 -15.660  0.00  0.00     0.099 N 
HETATM   29  H           1     -30.311  -4.980 -15.019  0.00  0.00     0.317 HD
BRANCH  28  30
HETATM   30  C           1     -30.420  -5.470 -16.977  0.00  0.00     0.329 C 
BRANCH  30  31
HETATM   31  C           1     -31.298  -4.243 -17.001  0.00  0.00     0.208 C 
HETATM   32  O           1     -32.435  -4.278 -16.485  0.00  0.00    -0.646 OA
HETATM   33  O           1     -30.886  -3.191 -17.537  0.00  0.00    -0.646 OA
ENDBRANCH  30  31
BRANCH  30  34
HETATM   34  C           1     -31.248  -6.695 -17.339  0.00  0.00     0.117 C 
BRANCH  34  35
HETATM   35  S           1     -30.362  -7.681 -18.578  0.00  0.00    -0.180 SA
HETATM   36  H           1     -30.436  -6.768 -19.564  0.00  0.00     0.101 HD
ENDBRANCH  34  35
ENDBRANCH  30  34
ENDBRANCH  28  30
ENDBRANCH  27  28
ENDBRANCH  26  27
ENDBRANCH  22  26
ENDBRANCH   2  22
TORSDOF 15
ENDMDL
MODEL 8
REMARK VINA RESULT:      -5.7     13.792     15.868
REMARK  15 active torsions:
REMARK  status: ('A' for Active; 'I' for Inactive)
REMARK    1  A    between atoms: C_10  and  C_34 
REMARK    2  A    between atoms: N_11  and  C_14 
REMARK       I    between atoms: N_12  and  C_25 
REMARK    3  A    between atoms: C_13  and  C_14 
REMARK    4  A    between atoms: C_13  and  C_33 
REMARK    5  A    between atoms: C_14  and  C_15 
REMARK       I    between atoms: C_15  and  N_17 
REMARK    6  A    between atoms: N_17  and  C_21 
REMARK    7  A    between atoms: C_20  and  C_21 
REMARK    8  A    between atoms: C_21  and  C_22 
REMARK    9  A    between atoms: C_22  and  C_23 
REMARK   10  A    between atoms: C_23  and  N_27 
REMARK   11  A    between atoms: C_24  and  C_33 
REMARK   12  A    between atoms: C_24  and  N_29 
REMARK       I    between atoms: C_25  and  N_26 
REMARK   13  A    between atoms: N_27  and  C_34 
REMARK   14  A    between atoms: C_34  and  C_35 
REMARK   15  A    between atoms: C_35  and  S_36 
ROOT
HETATM    1  C           1     -30.825  -6.340 -17.123  0.00  0.00     0.249 C 
HETATM    2  N           1     -31.405  -5.275 -16.488  0.00  0.00    -0.345 N 
HETATM    3  H           1     -30.923  -4.818 -15.724  0.00  0.00     0.163 HD
HETATM    4  O           1     -31.400  -6.885 -18.036  0.00  0.00    -0.271 OA
ENDROOT
BRANCH   1   5
HETATM    5  C           1     -29.469  -6.835 -16.683  0.00  0.00     0.274 C 
BRANCH   5   6
HETATM    6  N           1     -29.311  -8.274 -17.073  0.00  0.00    -0.067 N 
HETATM    7  H           1     -28.347  -8.431 -17.445  0.00  0.00     0.275 HD
HETATM    8  H           1     -30.013  -8.514 -17.810  0.00  0.00     0.275 HD
HETATM    9  H           1     -29.464  -8.881 -16.236  0.00  0.00     0.275 HD
ENDBRANCH   5   6
BRANCH   5  10
HETATM   10  C           1     -28.383  -6.005 -17.356  0.00  0.00     0.044 C 
BRANCH  10  11
HETATM   11  C           1     -27.387  -5.526 -16.307  0.00  0.00     0.023 C 
BRANCH  11  12
HETATM   12  C           1     -26.203  -6.483 -16.255  0.00  0.00     0.138 C 
BRANCH  12  13
HETATM   13  N           1     -25.712  -6.729 -17.619  0.00  0.00    -0.227 N 
HETATM   14  H           1     -26.304  -6.468 -18.446  0.00  0.00     0.177 HD
HETATM   15  C           1     -24.575  -7.257 -17.796  0.00  0.00     0.665 C 
HETATM   16  N           1     -23.842  -7.581 -16.772  0.00  0.00    -0.235 N 
HETATM   17  N           1     -24.151  -7.469 -18.970  0.00  0.00    -0.235 N 
HETATM   18  H           1     -24.192  -7.406 -15.803  0.00  0.00     0.174 HD
HETATM   19  H           1     -22.903  -8.016 -16.918  0.00  0.00     0.174 HD
HETATM   20  H           1     -24.743  -7.208 -19.797  0.00  0.00     0.174 HD
HETATM   21  H           1     -23.208  -7.907 -19.117  0.00  0.00     0.174 HD
ENDBRANCH  12  13
ENDBRANCH  11  12
ENDBRANCH  10  11
ENDBRANCH   5  10
ENDBRANCH   1   5
BRANCH   2  22
HETATM   22  C           1     -32.708  -4.800 -16.911  0.00  0.00     0.187 C 
BRANCH  22  23
HETATM   23  C           1     -32.579  -3.400 -17.458  0.00  0.00     0.196 C 
HETATM   24  O           1     -31.482  -3.001 -17.905  0.00  0.00    -0.646 OA
HETATM   25  O           1     -33.570  -2.638 -17.463  0.00  0.00    -0.646 OA
ENDBRANCH  22  23
BRANCH  22  26
HETATM   26  C           1     -33.656  -4.795 -15.719  0.00  0.00     0.066 C 
BRANCH  26  27
HETATM   27  C           1     -32.895  -4.384 -14.466  0.00  0.00     0.273 C 
BRANCH  27  28
HETATM   28  N           1     -33.825  -3.938 -13.464  0.00  0.00     0.099 N 
HETATM   29  H           1     -34.717  -4.416 -13.592  0.00  0.00     0.317 HD
BRANCH  28  30
HETATM   30  C           1     -33.279  -4.278 -12.178  0.00  0.00     0.329 C 
BRANCH  30  31
HETATM   31  C           1     -34.178  -5.285 -11.502  0.00  0.00     0.208 C 
HETATM   32  O           1     -34.951  -5.991 -12.185  0.00  0.00    -0.646 OA
HETATM   33  O           1     -34.148  -5.413 -10.259  0.00  0.00    -0.646 OA
ENDBRANCH  30  31
BRANCH  30  34
HETATM   34  C           1     -33.184  -3.025 -11.320  0.00  0.00     0.117 C 
BRANCH  34  35
HETATM   35  S           1     -34.590  -1.935 -11.681  0.00  0.00    -0.180 SA
HETATM   36  H           1     -35.473  -2.580 -10.897  0.00  0.00     0.101 HD
ENDBRANCH  34  35
ENDBRANCH  30  34
ENDBRANCH  28  30
ENDBRANCH  27  28
ENDBRANCH  26  27
ENDBRANCH  22  26
ENDBRANCH   2  22
TORSDOF 15
ENDMDL
MODEL 9
REMARK VINA RESULT:      -5.7      2.779      4.179
REMARK  15 active torsions:
REMARK  status: ('A' for Active; 'I' for Inactive)
REMARK    1  A    between atoms: C_10  and  C_34 
REMARK    2  A    between atoms: N_11  and  C_14 
REMARK       I    between atoms: N_12  and  C_25 
REMARK    3  A    between atoms: C_13  and  C_14 
REMARK    4  A    between atoms: C_13  and  C_33 
REMARK    5  A    between atoms: C_14  and  C_15 
REMARK       I    between atoms: C_15  and  N_17 
REMARK    6  A    between atoms: N_17  and  C_21 
REMARK    7  A    between atoms: C_20  and  C_21 
REMARK    8  A    between atoms: C_21  and  C_22 
REMARK    9  A    between atoms: C_22  and  C_23 
REMARK   10  A    between atoms: C_23  and  N_27 
REMARK   11  A    between atoms: C_24  and  C_33 
REMARK   12  A    between atoms: C_24  and  N_29 
REMARK       I    between atoms: C_25  and  N_26 
REMARK   13  A    between atoms: N_27  and  C_34 
REMARK   14  A    between atoms: C_34  and  C_35 
REMARK   15  A    between atoms: C_35  and  S_36 
ROOT
HETATM    1  C           1     -21.469  -6.035  -5.388  0.00  0.00     0.249 C 
HETATM    2  N           1     -20.869  -6.896  -4.509  0.00  0.00    -0.345 N 
HETATM    3  H           1     -19.862  -6.996  -4.507  0.00  0.00     0.163 HD
HETATM    4  O           1     -22.671  -5.914  -5.390  0.00  0.00    -0.271 OA
ENDROOT
BRANCH   1   5
HETATM    5  C           1     -20.629  -5.237  -6.356  0.00  0.00     0.274 C 
BRANCH   5   6
HETATM    6  N           1     -19.869  -6.174  -7.247  0.00  0.00    -0.067 N 
HETATM    7  H           1     -20.124  -5.992  -8.243  0.00  0.00     0.275 HD
HETATM    8  H           1     -20.109  -7.161  -6.999  0.00  0.00     0.275 HD
HETATM    9  H           1     -18.843  -6.023  -7.117  0.00  0.00     0.275 HD
ENDBRANCH   5   6
BRANCH   5  10
HETATM   10  C           1     -21.533  -4.352  -7.204  0.00  0.00     0.044 C 
BRANCH  10  11
HETATM   11  C           1     -20.806  -3.962  -8.483  0.00  0.00     0.023 C 
BRANCH  11  12
HETATM   12  C           1     -21.750  -4.106  -9.670  0.00  0.00     0.138 C 
BRANCH  12  13
HETATM   13  N           1     -23.097  -3.661  -9.281  0.00  0.00    -0.227 N 
HETATM   14  H           1     -23.229  -3.083  -8.415  0.00  0.00     0.177 HD
HETATM   15  C           1     -24.097  -3.977  -9.991  0.00  0.00     0.665 C 
HETATM   16  N           1     -23.933  -4.694 -11.064  0.00  0.00    -0.235 N 
HETATM   17  N           1     -25.257  -3.595  -9.657  0.00  0.00    -0.235 N 
HETATM   18  H           1     -22.975  -5.009 -11.339  0.00  0.00     0.174 HD
HETATM   19  H           1     -24.757  -4.954 -11.649  0.00  0.00     0.174 HD
HETATM   20  H           1     -25.389  -3.017  -8.791  0.00  0.00     0.174 HD
HETATM   21  H           1     -26.086  -3.857 -10.245  0.00  0.00     0.174 HD
ENDBRANCH  12  13
ENDBRANCH  11  12
ENDBRANCH  10  11
ENDBRANCH   5  10
ENDBRANCH   1   5
BRANCH   2  22
HETATM   22  C           1     -21.676  -7.662  -3.580  0.00  0.00     0.187 C 
BRANCH  22  23
HETATM   23  C           1     -21.656  -6.994  -2.227  0.00  0.00     0.196 C 
HETATM   24  O           1     -22.303  -5.940  -2.041  0.00  0.00    -0.646 OA
HETATM   25  O           1     -20.993  -7.493  -1.293  0.00  0.00    -0.646 OA
ENDBRANCH  22  23
BRANCH  22  26
HETATM   26  C           1     -21.109  -9.071  -3.459  0.00  0.00     0.066 C 
BRANCH  26  27
HETATM   27  C           1     -19.685  -9.093  -3.998  0.00  0.00     0.273 C 
BRANCH  27  28
HETATM   28  N           1     -18.764  -9.286  -2.911  0.00  0.00     0.099 N 
HETATM   29  H           1     -19.276  -9.581  -2.079  0.00  0.00     0.317 HD
BRANCH  28  30
HETATM   30  C           1     -17.842 -10.321  -3.298  0.00  0.00     0.329 C 
BRANCH  30  31
HETATM   31  C           1     -16.554 -10.157  -2.529  0.00  0.00     0.208 C 
HETATM   32  O           1     -16.227 -11.003  -1.669  0.00  0.00    -0.646 OA
HETATM   33  O           1     -15.814  -9.175  -2.752  0.00  0.00    -0.646 OA
ENDBRANCH  30  31
BRANCH  30  34
HETATM   34  C           1     -17.561 -10.217  -4.790  0.00  0.00     0.117 C 
BRANCH  34  35
HETATM   35  S           1     -16.587 -11.653  -5.323  0.00  0.00    -0.180 SA
HETATM   36  H           1     -16.027 -11.055  -6.390  0.00  0.00     0.101 HD
ENDBRANCH  34  35
ENDBRANCH  30  34
ENDBRANCH  28  30
ENDBRANCH  27  28
ENDBRANCH  26  27
ENDBRANCH  22  26
ENDBRANCH   2  22
TORSDOF 15
ENDMDL
