MODEL 1
REMARK VINA RESULT:      -6.7      0.000      0.000
REMARK  9 active torsions:
REMARK  status: ('A' for Active; 'I' for Inactive)
REMARK    1  A    between atoms: C_1  and  Se_10 
REMARK    2  A    between atoms: C_1  and  C_21 
REMARK    3  A    between atoms: C_4  and  O_20 
REMARK    4  A    between atoms: C_7  and  C_24 
REMARK    5  A    between atoms: N_9  and  C_21 
REMARK       I    between atoms: N_9  and  C_25 
REMARK    6  A    between atoms: N_12  and  C_23 
REMARK    7  A    between atoms: C_14  and  C_21 
REMARK    8  A    between atoms: C_23  and  C_25 
REMARK    9  A    between atoms: C_23  and  C_24 
ROOT
HETATM    1  C           1     -22.153  -5.215  -6.746  0.00  0.00     0.278 C 
ENDROOT
BRANCH   1   2
HETATM    2  N           1     -23.542  -5.000  -6.220  0.00  0.00    -0.066 N 
HETATM    3  H           1     -23.625  -5.430  -5.271  0.00  0.00     0.275 HD
HETATM    4  H           1     -23.735  -3.975  -6.154  0.00  0.00     0.275 HD
HETATM    5  H           1     -24.232  -5.445  -6.866  0.00  0.00     0.275 HD
ENDBRANCH   1   2
BRANCH   1   6
HETATM    6  C           1     -21.271  -5.735  -5.637  0.00  0.00     0.249 C 
HETATM    7  O           1     -20.409  -5.030  -5.170  0.00  0.00    -0.271 OA
HETATM    8  N           1     -21.449  -7.006  -5.161  0.00  0.00    -0.345 N 
HETATM    9  H           1     -22.172  -7.596  -5.553  0.00  0.00     0.163 HD
BRANCH   8  10
HETATM   10  C           1     -20.602  -7.507  -4.096  0.00  0.00     0.185 C 
BRANCH  10  11
HETATM   11  C           1     -21.467  -7.952  -2.925  0.00  0.00     0.039 C 
BRANCH  11  12
HETATM   12 Se           1     -22.099  -6.387  -1.950  0.00  0.00     0.000 Se
HETATM   13  H           1     -23.454  -6.433  -2.523  0.00  0.00     0.000 HD
ENDBRANCH  11  12
ENDBRANCH  10  11
BRANCH  10  14
HETATM   14  C           1     -19.799  -8.679  -4.603  0.00  0.00     0.196 C 
HETATM   15  O           1     -20.190  -9.319  -5.603  0.00  0.00    -0.646 OA
HETATM   16  O           1     -18.743  -9.012  -4.022  0.00  0.00    -0.646 OA
ENDBRANCH  10  14
ENDBRANCH   8  10
ENDBRANCH   1   6
BRANCH   1  17
HETATM   17  C           1     -21.597  -3.893  -7.260  0.00  0.00     0.081 C 
BRANCH  17  18
HETATM   18  C           1     -21.624  -3.888  -8.756  0.00  0.00    -0.056 A 
HETATM   19  C           1     -20.449  -4.102  -9.477  0.00  0.00     0.010 A 
HETATM   20  C           1     -20.475  -4.097 -10.871  0.00  0.00     0.037 A 
HETATM   21  C           1     -21.676  -3.879 -11.545  0.00  0.00     0.065 A 
HETATM   22  C           1     -22.852  -3.664 -10.826  0.00  0.00     0.037 A 
HETATM   23  C           1     -22.825  -3.669  -9.431  0.00  0.00     0.010 A 
BRANCH  21  24
HETATM   24  O           1     -21.701  -3.873 -12.900  0.00  0.00    -0.361 OA
HETATM   25  H           1     -22.581  -4.172 -13.187  0.00  0.00     0.217 HD
ENDBRANCH  21  24
ENDBRANCH  17  18
ENDBRANCH   1  17
TORSDOF 9
ENDMDL
MODEL 2
REMARK VINA RESULT:      -6.5     13.627     14.746
REMARK  9 active torsions:
REMARK  status: ('A' for Active; 'I' for Inactive)
REMARK    1  A    between atoms: C_1  and  Se_10 
REMARK    2  A    between atoms: C_1  and  C_21 
REMARK    3  A    between atoms: C_4  and  O_20 
REMARK    4  A    between atoms: C_7  and  C_24 
REMARK    5  A    between atoms: N_9  and  C_21 
REMARK       I    between atoms: N_9  and  C_25 
REMARK    6  A    between atoms: N_12  and  C_23 
REMARK    7  A    between atoms: C_14  and  C_21 
REMARK    8  A    between atoms: C_23  and  C_25 
REMARK    9  A    between atoms: C_23  and  C_24 
ROOT
HETATM    1  C           1     -32.903  -4.475 -16.662  0.00  0.00     0.278 C 
ENDROOT
BRANCH   1   2
HETATM    2  N           1     -33.163  -3.239 -17.472  0.00  0.00    -0.066 N 
HETATM    3  H           1     -34.183  -3.176 -17.694  0.00  0.00     0.275 HD
HETATM    4  H           1     -32.875  -2.397 -16.924  0.00  0.00     0.275 HD
HETATM    5  H           1     -32.615  -3.282 -18.360  0.00  0.00     0.275 HD
ENDBRANCH   1   2
BRANCH   1   6
HETATM    6  C           1     -33.781  -4.466 -15.435  0.00  0.00     0.249 C 
HETATM    7  O           1     -34.929  -4.830 -15.512  0.00  0.00    -0.271 OA
HETATM    8  N           1     -33.275  -4.045 -14.235  0.00  0.00    -0.345 N 
HETATM    9  H           1     -32.312  -3.739 -14.171  0.00  0.00     0.163 HD
BRANCH   8  10
HETATM   10  C           1     -34.119  -4.036 -13.055  0.00  0.00     0.185 C 
BRANCH  10  11
HETATM   11  C           1     -33.318  -4.521 -11.855  0.00  0.00     0.039 C 
BRANCH  11  12
HETATM   12 Se           1     -34.286  -5.961 -10.965  0.00  0.00     0.000 Se
HETATM   13  H           1     -34.127  -6.911 -12.077  0.00  0.00     0.000 HD
ENDBRANCH  11  12
ENDBRANCH  10  11
BRANCH  10  14
HETATM   14  C           1     -34.608  -2.631 -12.799  0.00  0.00     0.196 C 
HETATM   15  O           1     -34.597  -2.168 -11.638  0.00  0.00    -0.646 OA
HETATM   16  O           1     -35.025  -1.932 -13.747  0.00  0.00    -0.646 OA
ENDBRANCH  10  14
ENDBRANCH   8  10
ENDBRANCH   1   6
BRANCH   1  17
HETATM   17  C           1     -31.440  -4.505 -16.240  0.00  0.00     0.081 C 
BRANCH  17  18
HETATM   18  C           1     -30.683  -5.445 -17.125  0.00  0.00    -0.056 A 
HETATM   19  C           1     -31.185  -6.722 -17.377  0.00  0.00     0.010 A 
HETATM   20  C           1     -30.480  -7.598 -18.202  0.00  0.00     0.037 A 
HETATM   21  C           1     -29.272  -7.198 -18.774  0.00  0.00     0.065 A 
HETATM   22  C           1     -28.769  -5.922 -18.521  0.00  0.00     0.037 A 
HETATM   23  C           1     -29.475  -5.046 -17.696  0.00  0.00     0.010 A 
BRANCH  21  24
HETATM   24  O           1     -28.587  -8.050 -19.574  0.00  0.00    -0.361 OA
HETATM   25  H           1     -28.522  -8.906 -19.117  0.00  0.00     0.217 HD
ENDBRANCH  21  24
ENDBRANCH  17  18
ENDBRANCH   1  17
TORSDOF 9
ENDMDL
MODEL 3
REMARK VINA RESULT:      -6.5      2.089      2.331
REMARK  9 active torsions:
REMARK  status: ('A' for Active; 'I' for Inactive)
REMARK    1  A    between atoms: C_1  and  Se_10 
REMARK    2  A    between atoms: C_1  and  C_21 
REMARK    3  A    between atoms: C_4  and  O_20 
REMARK    4  A    between atoms: C_7  and  C_24 
REMARK    5  A    between atoms: N_9  and  C_21 
REMARK       I    between atoms: N_9  and  C_25 
REMARK    6  A    between atoms: N_12  and  C_23 
REMARK    7  A    between atoms: C_14  and  C_21 
REMARK    8  A    between atoms: C_23  and  C_25 
REMARK    9  A    between atoms: C_23  and  C_24 
ROOT
HETATM    1  C           1     -20.408  -5.084  -6.593  0.00  0.00     0.278 C 
ENDROOT
BRANCH   1   2
HETATM    2  N           1     -20.046  -5.961  -7.755  0.00  0.00    -0.066 N 
HETATM    3  H           1     -20.682  -5.756  -8.558  0.00  0.00     0.275 HD
HETATM    4  H           1     -19.058  -5.773  -8.038  0.00  0.00     0.275 HD
HETATM    5  H           1     -20.145  -6.964  -7.478  0.00  0.00     0.275 HD
ENDBRANCH   1   2
BRANCH   1   6
HETATM    6  C           1     -21.324  -5.838  -5.661  0.00  0.00     0.249 C 
HETATM    7  O           1     -22.509  -5.603  -5.657  0.00  0.00    -0.271 OA
HETATM    8  N           1     -20.812  -6.788  -4.819  0.00  0.00    -0.345 N 
HETATM    9  H           1     -19.819  -6.984  -4.822  0.00  0.00     0.163 HD
BRANCH   8  10
HETATM   10  C           1     -21.692  -7.513  -3.923  0.00  0.00     0.185 C 
BRANCH  10  11
HETATM   11  C           1     -21.274  -8.977  -3.875  0.00  0.00     0.039 C 
BRANCH  11  12
HETATM   12 Se           1     -19.475  -9.164  -4.601  0.00  0.00     0.000 Se
HETATM   13  H           1     -19.186 -10.410  -3.873  0.00  0.00     0.000 HD
ENDBRANCH  11  12
ENDBRANCH  10  11
BRANCH  10  14
HETATM   14  C           1     -21.599  -6.919  -2.539  0.00  0.00     0.196 C 
HETATM   15  O           1     -22.292  -5.923  -2.238  0.00  0.00    -0.646 OA
HETATM   16  O           1     -20.827  -7.421  -1.693  0.00  0.00    -0.646 OA
ENDBRANCH  10  14
ENDBRANCH   8  10
ENDBRANCH   1   6
BRANCH   1  17
HETATM   17  C           1     -21.117  -3.835  -7.103  0.00  0.00     0.081 C 
BRANCH  17  18
HETATM   18  C           1     -21.477  -4.018  -8.544  0.00  0.00    -0.056 A 
HETATM   19  C           1     -20.503  -3.868  -9.531  0.00  0.00     0.010 A 
HETATM   20  C           1     -20.839  -4.039 -10.874  0.00  0.00     0.037 A 
HETATM   21  C           1     -22.149  -4.359 -11.230  0.00  0.00     0.065 A 
HETATM   22  C           1     -23.124  -4.508 -10.243  0.00  0.00     0.037 A 
HETATM   23  C           1     -22.787  -4.337  -8.900  0.00  0.00     0.010 A 
BRANCH  21  24
HETATM   24  O           1     -22.475  -4.523 -12.534  0.00  0.00    -0.361 OA
HETATM   25  H           1     -21.810  -5.105 -12.940  0.00  0.00     0.217 HD
ENDBRANCH  21  24
ENDBRANCH  17  18
ENDBRANCH   1  17
TORSDOF 9
ENDMDL
MODEL 4
REMARK VINA RESULT:      -6.4      3.108      7.397
REMARK  9 active torsions:
REMARK  status: ('A' for Active; 'I' for Inactive)
REMARK    1  A    between atoms: C_1  and  Se_10 
REMARK    2  A    between atoms: C_1  and  C_21 
REMARK    3  A    between atoms: C_4  and  O_20 
REMARK    4  A    between atoms: C_7  and  C_24 
REMARK    5  A    between atoms: N_9  and  C_21 
REMARK       I    between atoms: N_9  and  C_25 
REMARK    6  A    between atoms: N_12  and  C_23 
REMARK    7  A    between atoms: C_14  and  C_21 
REMARK    8  A    between atoms: C_23  and  C_25 
REMARK    9  A    between atoms: C_23  and  C_24 
ROOT
HETATM    1  C           1     -21.234  -5.692  -7.013  0.00  0.00     0.278 C 
ENDROOT
BRANCH   1   2
HETATM    2  N           1     -19.911  -6.127  -7.572  0.00  0.00    -0.066 N 
HETATM    3  H           1     -19.281  -5.297  -7.663  0.00  0.00     0.275 HD
HETATM    4  H           1     -19.474  -6.825  -6.928  0.00  0.00     0.275 HD
HETATM    5  H           1     -20.055  -6.560  -8.511  0.00  0.00     0.275 HD
ENDBRANCH   1   2
BRANCH   1   6
HETATM    6  C           1     -21.784  -4.560  -7.848  0.00  0.00     0.249 C 
HETATM    7  O           1     -21.791  -3.436  -7.410  0.00  0.00    -0.271 OA
HETATM    8  N           1     -22.274  -4.811  -9.101  0.00  0.00    -0.345 N 
HETATM    9  H           1     -22.268  -5.755  -9.467  0.00  0.00     0.163 HD
BRANCH   8  10
HETATM   10  C           1     -22.803  -3.724  -9.903  0.00  0.00     0.185 C 
BRANCH  10  11
HETATM   11  C           1     -22.065  -3.670 -11.234  0.00  0.00     0.039 C 
BRANCH  11  12
HETATM   12 Se           1     -20.183  -4.093 -10.953  0.00  0.00     0.000 Se
HETATM   13  H           1     -20.438  -5.024  -9.842  0.00  0.00     0.000 HD
ENDBRANCH  11  12
ENDBRANCH  10  11
BRANCH  10  14
HETATM   14  C           1     -24.273  -3.954 -10.152  0.00  0.00     0.196 C 
HETATM   15  O           1     -24.821  -4.998  -9.739  0.00  0.00    -0.646 OA
HETATM   16  O           1     -24.943  -3.100 -10.772  0.00  0.00    -0.646 OA
ENDBRANCH  10  14
ENDBRANCH   8  10
ENDBRANCH   1   6
BRANCH   1  17
HETATM   17  C           1     -21.047  -5.220  -5.577  0.00  0.00     0.081 C 
BRANCH  17  18
HETATM   18  C           1     -21.242  -6.373  -4.643  0.00  0.00    -0.056 A 
HETATM   19  C           1     -21.402  -7.663  -5.150  0.00  0.00     0.010 A 
HETATM   20  C           1     -21.583  -8.737  -4.280  0.00  0.00     0.037 A 
HETATM   21  C           1     -21.606  -8.522  -2.902  0.00  0.00     0.065 A 
HETATM   22  C           1     -21.447  -7.232  -2.394  0.00  0.00     0.037 A 
HETATM   23  C           1     -21.266  -6.158  -3.265  0.00  0.00     0.010 A 
BRANCH  21  24
HETATM   24  O           1     -21.783  -9.565  -2.056  0.00  0.00    -0.361 OA
HETATM   25  H           1     -21.508  -9.283  -1.167  0.00  0.00     0.217 HD
ENDBRANCH  21  24
ENDBRANCH  17  18
ENDBRANCH   1  17
TORSDOF 9
ENDMDL
MODEL 5
REMARK VINA RESULT:      -6.2     13.714     15.706
REMARK  9 active torsions:
REMARK  status: ('A' for Active; 'I' for Inactive)
REMARK    1  A    between atoms: C_1  and  Se_10 
REMARK    2  A    between atoms: C_1  and  C_21 
REMARK    3  A    between atoms: C_4  and  O_20 
REMARK    4  A    between atoms: C_7  and  C_24 
REMARK    5  A    between atoms: N_9  and  C_21 
REMARK       I    between atoms: N_9  and  C_25 
REMARK    6  A    between atoms: N_12  and  C_23 
REMARK    7  A    between atoms: C_14  and  C_21 
REMARK    8  A    between atoms: C_23  and  C_25 
REMARK    9  A    between atoms: C_23  and  C_24 
ROOT
HETATM    1  C           1     -36.225  -0.932 -10.864  0.00  0.00     0.278 C 
ENDROOT
BRANCH   1   2
HETATM    2  N           1     -36.520  -0.448  -9.475  0.00  0.00    -0.066 N 
HETATM    3  H           1     -35.622  -0.291  -8.963  0.00  0.00     0.275 HD
HETATM    4  H           1     -37.052   0.450  -9.525  0.00  0.00     0.275 HD
HETATM    5  H           1     -37.089  -1.164  -8.970  0.00  0.00     0.275 HD
ENDBRANCH   1   2
BRANCH   1   6
HETATM    6  C           1     -35.185  -2.024 -10.805  0.00  0.00     0.249 C 
HETATM    7  O           1     -34.137  -1.830 -10.237  0.00  0.00    -0.271 OA
HETATM    8  N           1     -35.430  -3.234 -11.395  0.00  0.00    -0.345 N 
HETATM    9  H           1     -36.309  -3.396 -11.872  0.00  0.00     0.163 HD
BRANCH   8  10
HETATM   10  C           1     -34.431  -4.284 -11.340  0.00  0.00     0.185 C 
BRANCH  10  11
HETATM   11  C           1     -35.098  -5.633 -11.572  0.00  0.00     0.039 C 
BRANCH  11  12
HETATM   12 Se           1     -34.550  -6.879 -10.178  0.00  0.00     0.000 Se
HETATM   13  H           1     -33.135  -6.477 -10.213  0.00  0.00     0.000 HD
ENDBRANCH  11  12
ENDBRANCH  10  11
BRANCH  10  14
HETATM   14  C           1     -33.392  -4.046 -12.408  0.00  0.00     0.196 C 
HETATM   15  O           1     -33.743  -3.676 -13.550  0.00  0.00    -0.646 OA
HETATM   16  O           1     -32.182  -4.220 -12.153  0.00  0.00    -0.646 OA
ENDBRANCH  10  14
ENDBRANCH   8  10
ENDBRANCH   1   6
BRANCH   1  17
HETATM   17  C           1     -35.700   0.226 -11.703  0.00  0.00     0.081 C 
BRANCH  17  18
HETATM   18  C           1     -36.039  -0.006 -13.142  0.00  0.00    -0.056 A 
HETATM   19  C           1     -35.021  -0.120 -14.089  0.00  0.00     0.010 A 
HETATM   20  C           1     -35.336  -0.336 -15.430  0.00  0.00     0.037 A 
HETATM   21  C           1     -36.670  -0.438 -15.824  0.00  0.00     0.065 A 
HETATM   22  C           1     -37.689  -0.323 -14.879  0.00  0.00     0.037 A 
HETATM   23  C           1     -37.372  -0.107 -13.537  0.00  0.00     0.010 A 
BRANCH  21  24
HETATM   24  O           1     -36.977  -0.647 -17.128  0.00  0.00    -0.361 OA
HETATM   25  H           1     -37.014   0.218 -17.571  0.00  0.00     0.217 HD
ENDBRANCH  21  24
ENDBRANCH  17  18
ENDBRANCH   1  17
TORSDOF 9
ENDMDL
MODEL 6
REMARK VINA RESULT:      -6.1      1.709      2.218
REMARK  9 active torsions:
REMARK  status: ('A' for Active; 'I' for Inactive)
REMARK    1  A    between atoms: C_1  and  Se_10 
REMARK    2  A    between atoms: C_1  and  C_21 
REMARK    3  A    between atoms: C_4  and  O_20 
REMARK    4  A    between atoms: C_7  and  C_24 
REMARK    5  A    between atoms: N_9  and  C_21 
REMARK       I    between atoms: N_9  and  C_25 
REMARK    6  A    between atoms: N_12  and  C_23 
REMARK    7  A    between atoms: C_14  and  C_21 
REMARK    8  A    between atoms: C_23  and  C_25 
REMARK    9  A    between atoms: C_23  and  C_24 
ROOT
HETATM    1  C           1     -21.393  -6.147  -5.863  0.00  0.00     0.278 C 
ENDROOT
BRANCH   1   2
HETATM    2  N           1     -22.132  -6.029  -4.562  0.00  0.00    -0.066 N 
HETATM    3  H           1     -23.161  -6.042  -4.744  0.00  0.00     0.275 HD
HETATM    4  H           1     -21.879  -6.833  -3.944  0.00  0.00     0.275 HD
HETATM    5  H           1     -21.871  -5.133  -4.093  0.00  0.00     0.275 HD
ENDBRANCH   1   2
BRANCH   1   6
HETATM    6  C           1     -20.291  -7.168  -5.723  0.00  0.00     0.249 C 
HETATM    7  O           1     -19.403  -7.214  -6.540  0.00  0.00    -0.271 OA
HETATM    8  N           1     -20.298  -8.043  -4.671  0.00  0.00    -0.345 N 
HETATM    9  H           1     -21.044  -8.005  -3.986  0.00  0.00     0.163 HD
BRANCH   8  10
HETATM   10  C           1     -19.240  -9.025  -4.536  0.00  0.00     0.185 C 
BRANCH  10  11
HETATM   11  C           1     -18.963  -9.275  -3.060  0.00  0.00     0.039 C 
BRANCH  11  12
HETATM   12 Se           1     -20.304  -8.357  -1.982  0.00  0.00     0.000 Se
HETATM   13  H           1     -21.141  -9.552  -1.796  0.00  0.00     0.000 HD
ENDBRANCH  11  12
ENDBRANCH  10  11
BRANCH  10  14
HETATM   14  C           1     -19.665 -10.315  -5.194  0.00  0.00     0.196 C 
HETATM   15  O           1     -20.493 -11.062  -4.627  0.00  0.00    -0.646 OA
HETATM   16  O           1     -19.189 -10.638  -6.303  0.00  0.00    -0.646 OA
ENDBRANCH  10  14
ENDBRANCH   8  10
ENDBRANCH   1   6
BRANCH   1  17
HETATM   17  C           1     -20.791  -4.796  -6.227  0.00  0.00     0.081 C 
BRANCH  17  18
HETATM   18  C           1     -21.159  -4.448  -7.635  0.00  0.00    -0.056 A 
HETATM   19  C           1     -22.484  -4.156  -7.958  0.00  0.00     0.010 A 
HETATM   20  C           1     -22.827  -3.832  -9.271  0.00  0.00     0.037 A 
HETATM   21  C           1     -21.845  -3.801 -10.260  0.00  0.00     0.065 A 
HETATM   22  C           1     -20.520  -4.094  -9.938  0.00  0.00     0.037 A 
HETATM   23  C           1     -20.177  -4.418  -8.625  0.00  0.00     0.010 A 
BRANCH  21  24
HETATM   24  O           1     -22.178  -3.487 -11.536  0.00  0.00    -0.361 OA
HETATM   25  H           1     -23.121  -3.248 -11.550  0.00  0.00     0.217 HD
ENDBRANCH  21  24
ENDBRANCH  17  18
ENDBRANCH   1  17
TORSDOF 9
ENDMDL
MODEL 7
REMARK VINA RESULT:      -5.9     13.135     14.473
REMARK  9 active torsions:
REMARK  status: ('A' for Active; 'I' for Inactive)
REMARK    1  A    between atoms: C_1  and  Se_10 
REMARK    2  A    between atoms: C_1  and  C_21 
REMARK    3  A    between atoms: C_4  and  O_20 
REMARK    4  A    between atoms: C_7  and  C_24 
REMARK    5  A    between atoms: N_9  and  C_21 
REMARK       I    between atoms: N_9  and  C_25 
REMARK    6  A    between atoms: N_12  and  C_23 
REMARK    7  A    between atoms: C_14  and  C_21 
REMARK    8  A    between atoms: C_23  and  C_25 
REMARK    9  A    between atoms: C_23  and  C_24 
ROOT
HETATM    1  C           1     -28.466  -6.638 -19.280  0.00  0.00     0.278 C 
ENDROOT
BRANCH   1   2
HETATM    2  N           1     -28.782  -8.105 -19.305  0.00  0.00    -0.066 N 
HETATM    3  H           1     -28.924  -8.447 -18.327  0.00  0.00     0.275 HD
HETATM    4  H           1     -29.655  -8.263 -19.857  0.00  0.00     0.275 HD
HETATM    5  H           1     -27.991  -8.624 -19.746  0.00  0.00     0.275 HD
ENDBRANCH   1   2
BRANCH   1   6
HETATM    6  C           1     -27.082  -6.414 -19.840  0.00  0.00     0.249 C 
HETATM    7  O           1     -26.911  -5.609 -20.723  0.00  0.00    -0.271 OA
HETATM    8  N           1     -26.021  -7.123 -19.345  0.00  0.00    -0.345 N 
HETATM    9  H           1     -26.165  -7.799 -18.604  0.00  0.00     0.163 HD
BRANCH   8  10
HETATM   10  C           1     -24.691  -6.908 -19.882  0.00  0.00     0.185 C 
BRANCH  10  11
HETATM   11  C           1     -23.667  -7.023 -18.762  0.00  0.00     0.039 C 
BRANCH  11  12
HETATM   12 Se           1     -24.588  -7.192 -17.052  0.00  0.00     0.000 Se
HETATM   13  H           1     -23.350  -7.223 -16.256  0.00  0.00     0.000 HD
ENDBRANCH  11  12
ENDBRANCH  10  11
BRANCH  10  14
HETATM   14  C           1     -24.402  -7.948 -20.937  0.00  0.00     0.196 C 
HETATM   15  O           1     -25.322  -8.364 -21.673  0.00  0.00    -0.646 OA
HETATM   16  O           1     -23.243  -8.395 -21.073  0.00  0.00    -0.646 OA
ENDBRANCH  10  14
ENDBRANCH   8  10
ENDBRANCH   1   6
BRANCH   1  17
HETATM   17  C           1     -28.522  -6.132 -17.845  0.00  0.00     0.081 C 
BRANCH  17  18
HETATM   18  C           1     -29.813  -5.408 -17.621  0.00  0.00    -0.056 A 
HETATM   19  C           1     -29.896  -4.038 -17.865  0.00  0.00     0.010 A 
HETATM   20  C           1     -31.099  -3.363 -17.656  0.00  0.00     0.037 A 
HETATM   21  C           1     -32.219  -4.060 -17.202  0.00  0.00     0.065 A 
HETATM   22  C           1     -32.136  -5.431 -16.956  0.00  0.00     0.037 A 
HETATM   23  C           1     -30.933  -6.104 -17.166  0.00  0.00     0.010 A 
BRANCH  21  24
HETATM   24  O           1     -33.387  -3.405 -16.998  0.00  0.00    -0.361 OA
HETATM   25  H           1     -33.878  -3.874 -16.302  0.00  0.00     0.217 HD
ENDBRANCH  21  24
ENDBRANCH  17  18
ENDBRANCH   1  17
TORSDOF 9
ENDMDL
MODEL 8
REMARK VINA RESULT:      -5.8     12.382     14.426
REMARK  9 active torsions:
REMARK  status: ('A' for Active; 'I' for Inactive)
REMARK    1  A    between atoms: C_1  and  Se_10 
REMARK    2  A    between atoms: C_1  and  C_21 
REMARK    3  A    between atoms: C_4  and  O_20 
REMARK    4  A    between atoms: C_7  and  C_24 
REMARK    5  A    between atoms: N_9  and  C_21 
REMARK       I    between atoms: N_9  and  C_25 
REMARK    6  A    between atoms: N_12  and  C_23 
REMARK    7  A    between atoms: C_14  and  C_21 
REMARK    8  A    between atoms: C_23  and  C_25 
REMARK    9  A    between atoms: C_23  and  C_24 
ROOT
HETATM    1  C           1     -26.252  -7.522 -20.398  0.00  0.00     0.278 C 
ENDROOT
BRANCH   1   2
HETATM    2  N           1     -27.085  -8.562 -21.088  0.00  0.00    -0.066 N 
HETATM    3  H           1     -28.079  -8.242 -21.129  0.00  0.00     0.275 HD
HETATM    4  H           1     -26.726  -8.707 -22.059  0.00  0.00     0.275 HD
HETATM    5  H           1     -27.029  -9.461 -20.557  0.00  0.00     0.275 HD
ENDBRANCH   1   2
BRANCH   1   6
HETATM    6  C           1     -27.158  -6.507 -19.744  0.00  0.00     0.249 C 
HETATM    7  O           1     -27.554  -5.557 -20.375  0.00  0.00    -0.271 OA
HETATM    8  N           1     -27.529  -6.664 -18.436  0.00  0.00    -0.345 N 
HETATM    9  H           1     -27.196  -7.461 -17.908  0.00  0.00     0.163 HD
BRANCH   8  10
HETATM   10  C           1     -28.399  -5.688 -17.807  0.00  0.00     0.185 C 
BRANCH  10  11
HETATM   11  C           1     -29.468  -6.409 -16.997  0.00  0.00     0.039 C 
BRANCH  11  12
HETATM   12 Se           1     -31.065  -5.296 -16.890  0.00  0.00     0.000 Se
HETATM   13  H           1     -30.319  -4.029 -16.832  0.00  0.00     0.000 HD
ENDBRANCH  11  12
ENDBRANCH  10  11
BRANCH  10  14
HETATM   14  C           1     -27.585  -4.806 -16.893  0.00  0.00     0.196 C 
HETATM   15  O           1     -28.034  -3.697 -16.532  0.00  0.00    -0.646 OA
HETATM   16  O           1     -26.461  -5.182 -16.499  0.00  0.00    -0.646 OA
ENDBRANCH  10  14
ENDBRANCH   8  10
ENDBRANCH   1   6
BRANCH   1  17
HETATM   17  C           1     -25.363  -6.826 -21.420  0.00  0.00     0.081 C 
BRANCH  17  18
HETATM   18  C           1     -24.067  -7.565 -21.539  0.00  0.00    -0.056 A 
HETATM   19  C           1     -23.630  -8.013 -22.786  0.00  0.00     0.010 A 
HETATM   20  C           1     -22.423  -8.701 -22.897  0.00  0.00     0.037 A 
HETATM   21  C           1     -21.651  -8.941 -21.760  0.00  0.00     0.065 A 
HETATM   22  C           1     -22.086  -8.495 -20.513  0.00  0.00     0.037 A 
HETATM   23  C           1     -23.294  -7.806 -20.403  0.00  0.00     0.010 A 
BRANCH  21  24
HETATM   24  O           1     -20.477  -9.611 -21.868  0.00  0.00    -0.361 OA
HETATM   25  H           1     -20.676 -10.562 -21.903  0.00  0.00     0.217 HD
ENDBRANCH  21  24
ENDBRANCH  17  18
ENDBRANCH   1  17
TORSDOF 9
ENDMDL
MODEL 9
REMARK VINA RESULT:      -5.7     12.794     14.376
REMARK  9 active torsions:
REMARK  status: ('A' for Active; 'I' for Inactive)
REMARK    1  A    between atoms: C_1  and  Se_10 
REMARK    2  A    between atoms: C_1  and  C_21 
REMARK    3  A    between atoms: C_4  and  O_20 
REMARK    4  A    between atoms: C_7  and  C_24 
REMARK    5  A    between atoms: N_9  and  C_21 
REMARK       I    between atoms: N_9  and  C_25 
REMARK    6  A    between atoms: N_12  and  C_23 
REMARK    7  A    between atoms: C_14  and  C_21 
REMARK    8  A    between atoms: C_23  and  C_25 
REMARK    9  A    between atoms: C_23  and  C_24 
ROOT
HETATM    1  C           1     -27.950  -6.425 -17.030  0.00  0.00     0.278 C 
ENDROOT
BRANCH   1   2
HETATM    2  N           1     -26.836  -7.124 -16.309  0.00  0.00    -0.066 N 
HETATM    3  H           1     -26.886  -8.150 -16.501  0.00  0.00     0.275 HD
HETATM    4  H           1     -25.918  -6.753 -16.644  0.00  0.00     0.275 HD
HETATM    5  H           1     -26.927  -6.956 -15.282  0.00  0.00     0.275 HD
ENDBRANCH   1   2
BRANCH   1   6
HETATM    6  C           1     -27.590  -6.279 -18.489  0.00  0.00     0.249 C 
HETATM    7  O           1     -28.273  -5.597 -19.214  0.00  0.00    -0.271 OA
HETATM    8  N           1     -26.489  -6.919 -18.989  0.00  0.00    -0.345 N 
HETATM    9  H           1     -25.916  -7.491 -18.380  0.00  0.00     0.163 HD
BRANCH   8  10
HETATM   10  C           1     -26.142  -6.779 -20.390  0.00  0.00     0.185 C 
BRANCH  10  11
HETATM   11  C           1     -24.653  -6.489 -20.519  0.00  0.00     0.039 C 
BRANCH  11  12
HETATM   12 Se           1     -23.730  -7.103 -18.916  0.00  0.00     0.000 Se
HETATM   13  H           1     -22.384  -6.928 -19.483  0.00  0.00     0.000 HD
ENDBRANCH  11  12
ENDBRANCH  10  11
BRANCH  10  14
HETATM   14  C           1     -26.470  -8.060 -21.119  0.00  0.00     0.196 C 
HETATM   15  O           1     -27.623  -8.539 -21.053  0.00  0.00    -0.646 OA
HETATM   16  O           1     -25.589  -8.642 -21.786  0.00  0.00    -0.646 OA
ENDBRANCH  10  14
ENDBRANCH   8  10
ENDBRANCH   1   6
BRANCH   1  17
HETATM   17  C           1     -28.164  -5.047 -16.419  0.00  0.00     0.081 C 
BRANCH  17  18
HETATM   18  C           1     -29.535  -4.555 -16.761  0.00  0.00    -0.056 A 
HETATM   19  C           1     -30.654  -5.316 -16.423  0.00  0.00     0.010 A 
HETATM   20  C           1     -31.932  -4.858 -16.742  0.00  0.00     0.037 A 
HETATM   21  C           1     -32.091  -3.639 -17.401  0.00  0.00     0.065 A 
HETATM   22  C           1     -30.973  -2.878 -17.741  0.00  0.00     0.037 A 
HETATM   23  C           1     -29.695  -3.337 -17.421  0.00  0.00     0.010 A 
BRANCH  21  24
HETATM   24  O           1     -33.333  -3.194 -17.712  0.00  0.00    -0.361 OA
HETATM   25  H           1     -33.249  -2.294 -18.070  0.00  0.00     0.217 HD
ENDBRANCH  21  24
ENDBRANCH  17  18
ENDBRANCH   1  17
TORSDOF 9
ENDMDL
