MODEL 1
REMARK VINA RESULT:      -6.0      0.000      0.000
REMARK  6 active torsions:
REMARK  status: ('A' for Active; 'I' for Inactive)
REMARK    1  A    between atoms: N_4  and  C_6 
REMARK       I    between atoms: N_4  and  C_18 
REMARK    2  A    between atoms: C_6  and  C_7 
REMARK    3  A    between atoms: N_12  and  C_17 
REMARK    4  A    between atoms: C_15  and  C_16 
REMARK    5  A    between atoms: C_16  and  C_17 
REMARK    6  A    between atoms: C_17  and  C_18 
ROOT
HETATM    1  C           1     -36.269   0.184 -13.743  0.00  0.00     0.284 C 
ENDROOT
BRANCH   1   2
HETATM    2  N           1     -35.564   1.081 -14.717  0.00  0.00    -0.066 N 
HETATM    3  H           1     -35.990   2.035 -14.682  0.00  0.00     0.275 HD
HETATM    4  H           1     -35.659   0.692 -15.682  0.00  0.00     0.275 HD
HETATM    5  H           1     -34.552   1.142 -14.464  0.00  0.00     0.275 HD
ENDBRANCH   1   2
BRANCH   1   6
HETATM    6  C           1     -37.604  -0.253 -14.331  0.00  0.00     0.155 C 
BRANCH   6   7
HETATM    7  C           1     -37.666   0.144 -15.785  0.00  0.00     0.175 C 
HETATM    8  O           1     -38.075   1.282 -16.106  0.00  0.00    -0.648 OA
HETATM    9  O           1     -37.310  -0.663 -16.671  0.00  0.00    -0.648 OA
ENDBRANCH   6   7
ENDBRANCH   1   6
BRANCH   1  10
HETATM   10  C           1     -35.415  -1.031 -13.470  0.00  0.00     0.249 C 
HETATM   11  N           1     -35.043  -1.333 -12.189  0.00  0.00    -0.345 N 
HETATM   12  H           1     -35.340  -0.741 -11.422  0.00  0.00     0.163 HD
HETATM   13  O           1     -35.062  -1.737 -14.385  0.00  0.00    -0.271 OA
BRANCH  11  14
HETATM   14  C           1     -34.224  -2.499 -11.927  0.00  0.00     0.181 C 
HETATM   15  C           1     -33.334  -2.234 -10.720  0.00  0.00     0.043 C 
BRANCH  14  16
HETATM   16  C           1     -35.114  -3.685 -11.646  0.00  0.00     0.196 C 
HETATM   17  O           1     -36.072  -3.574 -10.850  0.00  0.00    -0.646 OA
HETATM   18  O           1     -34.894  -4.779 -12.210  0.00  0.00    -0.646 OA
ENDBRANCH  14  16
ENDBRANCH  11  14
ENDBRANCH   1  10
TORSDOF 6
ENDMDL
MODEL 2
REMARK VINA RESULT:      -5.8     10.617     12.001
REMARK  6 active torsions:
REMARK  status: ('A' for Active; 'I' for Inactive)
REMARK    1  A    between atoms: N_4  and  C_6 
REMARK       I    between atoms: N_4  and  C_18 
REMARK    2  A    between atoms: C_6  and  C_7 
REMARK    3  A    between atoms: N_12  and  C_17 
REMARK    4  A    between atoms: C_15  and  C_16 
REMARK    5  A    between atoms: C_16  and  C_17 
REMARK    6  A    between atoms: C_17  and  C_18 
ROOT
HETATM    1  C           1     -29.490  -6.740 -17.566  0.00  0.00     0.284 C 
ENDROOT
BRANCH   1   2
HETATM    2  N           1     -29.399  -8.215 -17.303  0.00  0.00    -0.066 N 
HETATM    3  H           1     -29.378  -8.729 -18.212  0.00  0.00     0.275 HD
HETATM    4  H           1     -30.230  -8.522 -16.748  0.00  0.00     0.275 HD
HETATM    5  H           1     -28.527  -8.419 -16.766  0.00  0.00     0.275 HD
ENDBRANCH   1   2
BRANCH   1   6
HETATM    6  C           1     -29.183  -5.977 -16.284  0.00  0.00     0.155 C 
BRANCH   6   7
HETATM    7  C           1     -27.878  -6.468 -15.707  0.00  0.00     0.175 C 
HETATM    8  O           1     -26.831  -5.805 -15.875  0.00  0.00    -0.648 OA
HETATM    9  O           1     -27.843  -7.537 -15.061  0.00  0.00    -0.648 OA
ENDBRANCH   6   7
ENDBRANCH   1   6
BRANCH   1  10
HETATM   10  C           1     -28.493  -6.358 -18.632  0.00  0.00     0.249 C 
HETATM   11  N           1     -27.707  -7.318 -19.210  0.00  0.00    -0.345 N 
HETATM   12  H           1     -27.793  -8.284 -18.922  0.00  0.00     0.163 HD
HETATM   13  O           1     -28.390  -5.204 -18.977  0.00  0.00    -0.271 OA
BRANCH  11  14
HETATM   14  C           1     -26.749  -6.951 -20.234  0.00  0.00     0.181 C 
HETATM   15  C           1     -25.412  -6.622 -19.584  0.00  0.00     0.043 C 
BRANCH  14  16
HETATM   16  C           1     -26.574  -8.104 -21.193  0.00  0.00     0.196 C 
HETATM   17  O           1     -27.548  -8.832 -21.480  0.00  0.00    -0.646 OA
HETATM   18  O           1     -25.454  -8.330 -21.699  0.00  0.00    -0.646 OA
ENDBRANCH  14  16
ENDBRANCH  11  14
ENDBRANCH   1  10
TORSDOF 6
ENDMDL
MODEL 3
REMARK VINA RESULT:      -5.7     13.087     15.222
REMARK  6 active torsions:
REMARK  status: ('A' for Active; 'I' for Inactive)
REMARK    1  A    between atoms: N_4  and  C_6 
REMARK       I    between atoms: N_4  and  C_18 
REMARK    2  A    between atoms: C_6  and  C_7 
REMARK    3  A    between atoms: N_12  and  C_17 
REMARK    4  A    between atoms: C_15  and  C_16 
REMARK    5  A    between atoms: C_16  and  C_17 
REMARK    6  A    between atoms: C_17  and  C_18 
ROOT
HETATM    1  C           1     -21.784  -3.670 -10.745  0.00  0.00     0.284 C 
ENDROOT
BRANCH   1   2
HETATM    2  N           1     -21.141  -3.436 -12.080  0.00  0.00    -0.066 N 
HETATM    3  H           1     -21.760  -2.827 -12.662  0.00  0.00     0.275 HD
HETATM    4  H           1     -20.998  -4.350 -12.564  0.00  0.00     0.275 HD
HETATM    5  H           1     -20.218  -2.966 -11.944  0.00  0.00     0.275 HD
ENDBRANCH   1   2
BRANCH   1   6
HETATM    6  C           1     -23.095  -4.420 -10.938  0.00  0.00     0.155 C 
BRANCH   6   7
HETATM    7  C           1     -24.200  -3.700 -10.206  0.00  0.00     0.175 C 
HETATM    8  O           1     -24.174  -3.617  -8.959  0.00  0.00    -0.648 OA
HETATM    9  O           1     -25.143  -3.185 -10.846  0.00  0.00    -0.648 OA
ENDBRANCH   6   7
ENDBRANCH   1   6
BRANCH   1  10
HETATM   10  C           1     -20.858  -4.486  -9.878  0.00  0.00     0.249 C 
HETATM   11  N           1     -21.164  -4.701  -8.561  0.00  0.00    -0.345 N 
HETATM   12  H           1     -22.011  -4.311  -8.168  0.00  0.00     0.163 HD
HETATM   13  O           1     -19.846  -4.953 -10.347  0.00  0.00    -0.271 OA
BRANCH  11  14
HETATM   14  C           1     -20.274  -5.486  -7.729  0.00  0.00     0.181 C 
HETATM   15  C           1     -19.232  -4.572  -7.098  0.00  0.00     0.043 C 
BRANCH  14  16
HETATM   16  C           1     -21.072  -6.165  -6.643  0.00  0.00     0.196 C 
HETATM   17  O           1     -20.914  -7.385  -6.420  0.00  0.00    -0.646 OA
HETATM   18  O           1     -21.892  -5.507  -5.966  0.00  0.00    -0.646 OA
ENDBRANCH  14  16
ENDBRANCH  11  14
ENDBRANCH   1  10
TORSDOF 6
ENDMDL
MODEL 4
REMARK VINA RESULT:      -5.6     11.523     12.639
REMARK  6 active torsions:
REMARK  status: ('A' for Active; 'I' for Inactive)
REMARK    1  A    between atoms: N_4  and  C_6 
REMARK       I    between atoms: N_4  and  C_18 
REMARK    2  A    between atoms: C_6  and  C_7 
REMARK    3  A    between atoms: N_12  and  C_17 
REMARK    4  A    between atoms: C_15  and  C_16 
REMARK    5  A    between atoms: C_16  and  C_17 
REMARK    6  A    between atoms: C_17  and  C_18 
ROOT
HETATM    1  C           1     -25.180  -6.541 -19.421  0.00  0.00     0.284 C 
ENDROOT
BRANCH   1   2
HETATM    2  N           1     -24.468  -7.834 -19.150  0.00  0.00    -0.066 N 
HETATM    3  H           1     -24.237  -7.896 -18.132  0.00  0.00     0.275 HD
HETATM    4  H           1     -23.588  -7.873 -19.710  0.00  0.00     0.275 HD
HETATM    5  H           1     -25.086  -8.633 -19.416  0.00  0.00     0.275 HD
ENDBRANCH   1   2
BRANCH   1   6
HETATM    6  C           1     -25.615  -6.499 -20.880  0.00  0.00     0.155 C 
BRANCH   6   7
HETATM    7  C           1     -25.536  -7.886 -21.468  0.00  0.00     0.175 C 
HETATM    8  O           1     -24.509  -8.247 -22.084  0.00  0.00    -0.648 OA
HETATM    9  O           1     -26.497  -8.675 -21.341  0.00  0.00    -0.648 OA
ENDBRANCH   6   7
ENDBRANCH   1   6
BRANCH   1  10
HETATM   10  C           1     -26.392  -6.438 -18.529  0.00  0.00     0.249 C 
HETATM   11  N           1     -27.635  -6.722 -19.027  0.00  0.00    -0.345 N 
HETATM   12  H           1     -27.742  -7.000 -19.994  0.00  0.00     0.163 HD
HETATM   13  O           1     -26.265  -6.107 -17.374  0.00  0.00    -0.271 OA
BRANCH  11  14
HETATM   14  C           1     -28.799  -6.623 -18.170  0.00  0.00     0.181 C 
HETATM   15  C           1     -29.401  -5.229 -18.288  0.00  0.00     0.043 C 
BRANCH  14  16
HETATM   16  C           1     -29.822  -7.651 -18.592  0.00  0.00     0.196 C 
HETATM   17  O           1     -29.491  -8.585 -19.355  0.00  0.00    -0.646 OA
HETATM   18  O           1     -30.998  -7.567 -18.180  0.00  0.00    -0.646 OA
ENDBRANCH  14  16
ENDBRANCH  11  14
ENDBRANCH   1  10
TORSDOF 6
ENDMDL
MODEL 5
REMARK VINA RESULT:      -5.5      1.671      5.399
REMARK  6 active torsions:
REMARK  status: ('A' for Active; 'I' for Inactive)
REMARK    1  A    between atoms: N_4  and  C_6 
REMARK       I    between atoms: N_4  and  C_18 
REMARK    2  A    between atoms: C_6  and  C_7 
REMARK    3  A    between atoms: N_12  and  C_17 
REMARK    4  A    between atoms: C_15  and  C_16 
REMARK    5  A    between atoms: C_16  and  C_17 
REMARK    6  A    between atoms: C_17  and  C_18 
ROOT
HETATM    1  C           1     -34.128  -2.858 -12.015  0.00  0.00     0.284 C 
ENDROOT
BRANCH   1   2
HETATM    2  N           1     -33.005  -2.666 -11.038  0.00  0.00    -0.066 N 
HETATM    3  H           1     -32.266  -2.068 -11.472  0.00  0.00     0.275 HD
HETATM    4  H           1     -32.598  -3.595 -10.787  0.00  0.00     0.275 HD
HETATM    5  H           1     -33.369  -2.201 -10.177  0.00  0.00     0.275 HD
ENDBRANCH   1   2
BRANCH   1   6
HETATM    6  C           1     -35.129  -3.855 -11.446  0.00  0.00     0.155 C 
BRANCH   6   7
HETATM    7  C           1     -34.843  -5.228 -12.001  0.00  0.00     0.175 C 
HETATM    8  O           1     -34.264  -6.081 -11.293  0.00  0.00    -0.648 OA
HETATM    9  O           1     -35.184  -5.515 -13.169  0.00  0.00    -0.648 OA
ENDBRANCH   6   7
ENDBRANCH   1   6
BRANCH   1  10
HETATM   10  C           1     -34.814  -1.536 -12.257  0.00  0.00     0.249 C 
HETATM   11  N           1     -35.113  -1.144 -13.534  0.00  0.00    -0.345 N 
HETATM   12  H           1     -34.874  -1.740 -14.316  0.00  0.00     0.163 HD
HETATM   13  O           1     -35.100  -0.825 -11.324  0.00  0.00    -0.271 OA
BRANCH  11  14
HETATM   14  C           1     -35.772   0.126 -13.767  0.00  0.00     0.181 C 
HETATM   15  C           1     -34.807   1.079 -14.459  0.00  0.00     0.043 C 
BRANCH  14  16
HETATM   16  C           1     -36.982  -0.090 -14.643  0.00  0.00     0.196 C 
HETATM   17  O           1     -37.946  -0.767 -14.222  0.00  0.00    -0.646 OA
HETATM   18  O           1     -37.020   0.407 -15.788  0.00  0.00    -0.646 OA
ENDBRANCH  14  16
ENDBRANCH  11  14
ENDBRANCH   1  10
TORSDOF 6
ENDMDL
MODEL 6
REMARK VINA RESULT:      -5.5     13.368     16.418
REMARK  6 active torsions:
REMARK  status: ('A' for Active; 'I' for Inactive)
REMARK    1  A    between atoms: N_4  and  C_6 
REMARK       I    between atoms: N_4  and  C_18 
REMARK    2  A    between atoms: C_6  and  C_7 
REMARK    3  A    between atoms: N_12  and  C_17 
REMARK    4  A    between atoms: C_15  and  C_16 
REMARK    5  A    between atoms: C_16  and  C_17 
REMARK    6  A    between atoms: C_17  and  C_18 
ROOT
HETATM    1  C           1     -21.128  -5.711  -6.799  0.00  0.00     0.284 C 
ENDROOT
BRANCH   1   2
HETATM    2  N           1     -19.875  -6.320  -7.355  0.00  0.00    -0.066 N 
HETATM    3  H           1     -20.087  -7.275  -7.724  0.00  0.00     0.275 HD
HETATM    4  H           1     -19.156  -6.390  -6.601  0.00  0.00     0.275 HD
HETATM    5  H           1     -19.510  -5.721  -8.129  0.00  0.00     0.275 HD
ENDBRANCH   1   2
BRANCH   1   6
HETATM    6  C           1     -20.860  -5.196  -5.391  0.00  0.00     0.155 C 
BRANCH   6   7
HETATM    7  C           1     -21.239  -6.256  -4.387  0.00  0.00     0.175 C 
HETATM    8  O           1     -21.801  -5.933  -3.318  0.00  0.00    -0.648 OA
HETATM    9  O           1     -20.992  -7.458  -4.623  0.00  0.00    -0.648 OA
ENDBRANCH   6   7
ENDBRANCH   1   6
BRANCH   1  10
HETATM   10  C           1     -21.564  -4.566  -7.681  0.00  0.00     0.249 C 
HETATM   11  N           1     -21.943  -4.803  -8.974  0.00  0.00    -0.345 N 
HETATM   12  H           1     -21.932  -5.747  -9.340  0.00  0.00     0.163 HD
HETATM   13  O           1     -21.578  -3.439  -7.244  0.00  0.00    -0.271 OA
BRANCH  11  14
HETATM   14  C           1     -22.362  -3.704  -9.821  0.00  0.00     0.181 C 
HETATM   15  C           1     -21.468  -3.644 -11.053  0.00  0.00     0.043 C 
BRANCH  14  16
HETATM   16  C           1     -23.794  -3.916 -10.247  0.00  0.00     0.196 C 
HETATM   17  O           1     -24.305  -5.055 -10.177  0.00  0.00    -0.646 OA
HETATM   18  O           1     -24.469  -2.953 -10.671  0.00  0.00    -0.646 OA
ENDBRANCH  14  16
ENDBRANCH  11  14
ENDBRANCH   1  10
TORSDOF 6
ENDMDL
MODEL 7
REMARK VINA RESULT:      -5.4     13.137     15.339
REMARK  6 active torsions:
REMARK  status: ('A' for Active; 'I' for Inactive)
REMARK    1  A    between atoms: N_4  and  C_6 
REMARK       I    between atoms: N_4  and  C_18 
REMARK    2  A    between atoms: C_6  and  C_7 
REMARK    3  A    between atoms: N_12  and  C_17 
REMARK    4  A    between atoms: C_15  and  C_16 
REMARK    5  A    between atoms: C_16  and  C_17 
REMARK    6  A    between atoms: C_17  and  C_18 
ROOT
HETATM    1  C           1     -22.333  -3.683  -8.992  0.00  0.00     0.284 C 
ENDROOT
BRANCH   1   2
HETATM    2  N           1     -21.322  -4.050 -10.039  0.00  0.00    -0.066 N 
HETATM    3  H           1     -20.628  -3.276 -10.138  0.00  0.00     0.275 HD
HETATM    4  H           1     -21.806  -4.204 -10.952  0.00  0.00     0.275 HD
HETATM    5  H           1     -20.829  -4.926  -9.754  0.00  0.00     0.275 HD
ENDBRANCH   1   2
BRANCH   1   6
HETATM    6  C           1     -23.634  -4.429  -9.259  0.00  0.00     0.155 C 
BRANCH   6   7
HETATM    7  C           1     -24.160  -4.049 -10.622  0.00  0.00     0.175 C 
HETATM    8  O           1     -25.051  -3.179 -10.729  0.00  0.00    -0.648 OA
HETATM    9  O           1     -23.705  -4.605 -11.645  0.00  0.00    -0.648 OA
ENDBRANCH   6   7
ENDBRANCH   1   6
BRANCH   1  10
HETATM   10  C           1     -21.805  -4.062  -7.630  0.00  0.00     0.249 C 
HETATM   11  N           1     -21.949  -5.343  -7.171  0.00  0.00    -0.345 N 
HETATM   12  H           1     -22.411  -6.037  -7.745  0.00  0.00     0.163 HD
HETATM   13  O           1     -21.252  -3.233  -6.945  0.00  0.00    -0.271 OA
BRANCH  11  14
HETATM   14  C           1     -21.441  -5.706  -5.863  0.00  0.00     0.181 C 
HETATM   15  C           1     -22.539  -6.400  -5.068  0.00  0.00     0.043 C 
BRANCH  14  16
HETATM   16  C           1     -20.266  -6.641  -6.023  0.00  0.00     0.196 C 
HETATM   17  O           1     -19.559  -6.586  -7.052  0.00  0.00    -0.646 OA
HETATM   18  O           1     -20.002  -7.470  -5.126  0.00  0.00    -0.646 OA
ENDBRANCH  14  16
ENDBRANCH  11  14
ENDBRANCH   1  10
TORSDOF 6
ENDMDL
MODEL 8
REMARK VINA RESULT:      -5.3      8.143      8.921
REMARK  6 active torsions:
REMARK  status: ('A' for Active; 'I' for Inactive)
REMARK    1  A    between atoms: N_4  and  C_6 
REMARK       I    between atoms: N_4  and  C_18 
REMARK    2  A    between atoms: C_6  and  C_7 
REMARK    3  A    between atoms: N_12  and  C_17 
REMARK    4  A    between atoms: C_15  and  C_16 
REMARK    5  A    between atoms: C_16  and  C_17 
REMARK    6  A    between atoms: C_17  and  C_18 
ROOT
HETATM    1  C           1     -30.340  -4.563 -16.974  0.00  0.00     0.284 C 
ENDROOT
BRANCH   1   2
HETATM    2  N           1     -30.111  -3.529 -18.037  0.00  0.00    -0.066 N 
HETATM    3  H           1     -30.980  -2.961 -18.162  0.00  0.00     0.275 HD
HETATM    4  H           1     -29.871  -4.001 -18.938  0.00  0.00     0.275 HD
HETATM    5  H           1     -29.325  -2.904 -17.750  0.00  0.00     0.275 HD
ENDBRANCH   1   2
BRANCH   1   6
HETATM    6  C           1     -31.760  -5.102 -17.089  0.00  0.00     0.155 C 
BRANCH   6   7
HETATM    7  C           1     -32.743  -3.988 -16.829  0.00  0.00     0.175 C 
HETATM    8  O           1     -33.462  -4.013 -15.806  0.00  0.00    -0.648 OA
HETATM    9  O           1     -32.841  -3.039 -17.637  0.00  0.00    -0.648 OA
ENDBRANCH   6   7
ENDBRANCH   1   6
BRANCH   1  10
HETATM   10  C           1     -29.355  -5.693 -17.153  0.00  0.00     0.249 C 
HETATM   11  N           1     -28.011  -5.446 -17.085  0.00  0.00    -0.345 N 
HETATM   12  H           1     -27.676  -4.506 -16.916  0.00  0.00     0.163 HD
HETATM   13  O           1     -29.754  -6.815 -17.354  0.00  0.00    -0.271 OA
BRANCH  11  14
HETATM   14  C           1     -27.065  -6.531 -17.256  0.00  0.00     0.181 C 
HETATM   15  C           1     -26.317  -6.349 -18.570  0.00  0.00     0.043 C 
BRANCH  14  16
HETATM   16  C           1     -26.082  -6.524 -16.110  0.00  0.00     0.196 C 
HETATM   17  O           1     -26.097  -7.448 -15.268  0.00  0.00    -0.646 OA
HETATM   18  O           1     -25.253  -5.595 -16.005  0.00  0.00    -0.646 OA
ENDBRANCH  14  16
ENDBRANCH  11  14
ENDBRANCH   1  10
TORSDOF 6
ENDMDL
MODEL 9
REMARK VINA RESULT:      -5.1      7.766      8.682
REMARK  6 active torsions:
REMARK  status: ('A' for Active; 'I' for Inactive)
REMARK    1  A    between atoms: N_4  and  C_6 
REMARK       I    between atoms: N_4  and  C_18 
REMARK    2  A    between atoms: C_6  and  C_7 
REMARK    3  A    between atoms: N_12  and  C_17 
REMARK    4  A    between atoms: C_15  and  C_16 
REMARK    5  A    between atoms: C_16  and  C_17 
REMARK    6  A    between atoms: C_17  and  C_18 
ROOT
HETATM    1  C           1     -31.954  -5.845 -17.561  0.00  0.00     0.284 C 
ENDROOT
BRANCH   1   2
HETATM    2  N           1     -32.945  -6.917 -17.214  0.00  0.00    -0.066 N 
HETATM    3  H           1     -32.650  -7.390 -16.330  0.00  0.00     0.275 HD
HETATM    4  H           1     -32.986  -7.618 -17.987  0.00  0.00     0.275 HD
HETATM    5  H           1     -33.889  -6.489 -17.082  0.00  0.00     0.275 HD
ENDBRANCH   1   2
BRANCH   1   6
HETATM    6  C           1     -32.068  -4.705 -16.557  0.00  0.00     0.155 C 
BRANCH   6   7
HETATM    7  C           1     -32.098  -3.388 -17.292  0.00  0.00     0.175 C 
HETATM    8  O           1     -31.028  -2.827 -17.615  0.00  0.00    -0.648 OA
HETATM    9  O           1     -33.192  -2.857 -17.579  0.00  0.00    -0.648 OA
ENDBRANCH   6   7
ENDBRANCH   1   6
BRANCH   1  10
HETATM   10  C           1     -30.559  -6.418 -17.519  0.00  0.00     0.249 C 
HETATM   11  N           1     -29.480  -5.614 -17.768  0.00  0.00    -0.345 N 
HETATM   12  H           1     -29.617  -4.634 -17.982  0.00  0.00     0.163 HD
HETATM   13  O           1     -30.395  -7.588 -17.263  0.00  0.00    -0.271 OA
BRANCH  11  14
HETATM   14  C           1     -28.140  -6.165 -17.727  0.00  0.00     0.181 C 
HETATM   15  C           1     -27.576  -6.232 -19.140  0.00  0.00     0.043 C 
BRANCH  14  16
HETATM   16  C           1     -27.261  -5.282 -16.874  0.00  0.00     0.196 C 
HETATM   17  O           1     -26.122  -5.671 -16.539  0.00  0.00    -0.646 OA
HETATM   18  O           1     -27.673  -4.162 -16.503  0.00  0.00    -0.646 OA
ENDBRANCH  14  16
ENDBRANCH  11  14
ENDBRANCH   1  10
TORSDOF 6
ENDMDL
