MODEL 1
REMARK VINA RESULT:      -6.5      0.000      0.000
REMARK  5 active torsions:
REMARK  status: ('A' for Active; 'I' for Inactive)
REMARK    1  A    between atoms: C_3  and  C_7 
REMARK    2  A    between atoms: C_3  and  C_4 
REMARK    3  A    between atoms: C_4  and  C_5 
REMARK    4  A    between atoms: C_4  and  N_11 
REMARK       I    between atoms: N_11  and  C_12 
REMARK    5  A    between atoms: C_12  and  C_13 
ROOT
HETATM    1  H           1     -36.124  -3.243 -11.227  0.00  0.00     0.275 HD
HETATM    2  H           1     -35.569  -2.655  -9.725  0.00  0.00     0.275 HD
HETATM    3  C           1     -35.233  -1.351 -11.330  0.00  0.00     0.274 C 
HETATM    4  C           1     -33.356  -4.333 -11.796  0.00  0.00     0.027 C 
HETATM    5  C           1     -33.965  -3.134 -12.511  0.00  0.00     0.004 C 
HETATM    6  C           1     -33.844  -1.900 -11.628  0.00  0.00     0.042 C 
HETATM    7  C           1     -34.097  -4.572 -10.486  0.00  0.00     0.229 C 
HETATM    8  H           1     -36.052  -5.008  -9.873  0.00  0.00     0.274 HD
HETATM    9  H           1     -35.962  -4.020 -11.261  0.00  0.00     0.274 HD
HETATM   10  H           1     -35.627  -5.690 -11.378  0.00  0.00     0.274 HD
HETATM   11  N           1     -36.042  -2.397 -10.621  0.00  0.00    -0.067 N 
HETATM   12  N           1     -35.544  -4.843 -10.771  0.00  0.00    -0.079 N 
HETATM   13  H           1     -36.994  -2.020 -10.416  0.00  0.00     0.275 HD
ENDROOT
BRANCH   3  14
HETATM   14  C           1     -35.916  -0.978 -12.623  0.00  0.00     0.249 C 
HETATM   15  N           1     -35.174  -0.534 -13.684  0.00  0.00    -0.344 N 
HETATM   16  H           1     -34.169  -0.457 -13.603  0.00  0.00     0.163 HD
HETATM   17  O           1     -37.117  -1.069 -12.720  0.00  0.00    -0.271 OA
BRANCH  15  18
HETATM   18  C           1     -35.831  -0.175 -14.927  0.00  0.00     0.195 C 
BRANCH  18  19
HETATM   19  C           1     -35.336   1.190 -15.386  0.00  0.00     0.149 C 
BRANCH  19  20
HETATM   20  C           1     -36.450   1.916 -16.098  0.00  0.00     0.175 C 
HETATM   21  O           1     -36.204   2.958 -16.746  0.00  0.00    -0.648 OA
HETATM   22  O           1     -37.619   1.477 -16.042  0.00  0.00    -0.648 OA
ENDBRANCH  19  20
ENDBRANCH  18  19
BRANCH  18  23
HETATM   23  C           1     -35.513  -1.207 -15.980  0.00  0.00     0.197 C 
HETATM   24  O           1     -34.821  -2.207 -15.688  0.00  0.00    -0.646 OA
HETATM   25  O           1     -35.939  -1.062 -17.147  0.00  0.00    -0.646 OA
ENDBRANCH  18  23
ENDBRANCH  15  18
ENDBRANCH   3  14
TORSDOF 5
ENDMDL
MODEL 2
REMARK VINA RESULT:      -6.2     24.969     26.240
REMARK  5 active torsions:
REMARK  status: ('A' for Active; 'I' for Inactive)
REMARK    1  A    between atoms: C_3  and  C_7 
REMARK    2  A    between atoms: C_3  and  C_4 
REMARK    3  A    between atoms: C_4  and  C_5 
REMARK    4  A    between atoms: C_4  and  N_11 
REMARK       I    between atoms: N_11  and  C_12 
REMARK    5  A    between atoms: C_12  and  C_13 
ROOT
HETATM    1  H           1     -11.701   8.031 -21.766  0.00  0.00     0.275 HD
HETATM    2  H           1     -10.370   9.055 -22.067  0.00  0.00     0.275 HD
HETATM    3  C           1     -10.137   7.821 -20.390  0.00  0.00     0.274 C 
HETATM    4  C           1     -12.819  10.088 -19.845  0.00  0.00     0.027 C 
HETATM    5  C           1     -12.226   8.753 -19.415  0.00  0.00     0.004 C 
HETATM    6  C           1     -10.707   8.846 -19.419  0.00  0.00     0.042 C 
HETATM    7  C           1     -12.335  10.430 -21.249  0.00  0.00     0.229 C 
HETATM    8  H           1     -12.441   9.595 -23.167  0.00  0.00     0.274 HD
HETATM    9  H           1     -12.364   8.443 -21.910  0.00  0.00     0.274 HD
HETATM   10  H           1     -13.815   9.294 -22.201  0.00  0.00     0.274 HD
HETATM   11  N           1     -10.659   8.096 -21.770  0.00  0.00    -0.067 N 
HETATM   12  N           1     -12.772   9.359 -22.204  0.00  0.00    -0.079 N 
HETATM   13  H           1     -10.266   7.393 -22.436  0.00  0.00     0.275 HD
ENDROOT
BRANCH   3  14
HETATM   14  C           1     -10.553   6.435 -19.962  0.00  0.00     0.249 C 
HETATM   15  N           1     -11.347   5.676 -20.779  0.00  0.00    -0.344 N 
HETATM   16  H           1     -11.653   6.043 -21.671  0.00  0.00     0.163 HD
HETATM   17  O           1     -10.188   5.997 -18.897  0.00  0.00    -0.271 OA
BRANCH  15  18
HETATM   18  C           1     -11.746   4.344 -20.367  0.00  0.00     0.195 C 
BRANCH  18  19
HETATM   19  C           1     -13.248   4.183 -20.565  0.00  0.00     0.149 C 
BRANCH  19  20
HETATM   20  C           1     -13.904   5.541 -20.579  0.00  0.00     0.175 C 
HETATM   21  O           1     -13.961   6.197 -21.642  0.00  0.00    -0.648 OA
HETATM   22  O           1     -14.389   6.012 -19.528  0.00  0.00    -0.648 OA
ENDBRANCH  19  20
ENDBRANCH  18  19
BRANCH  18  23
HETATM   23  C           1     -11.016   3.319 -21.198  0.00  0.00     0.197 C 
HETATM   24  O           1     -10.631   3.609 -22.352  0.00  0.00    -0.646 OA
HETATM   25  O           1     -10.796   2.179 -20.734  0.00  0.00    -0.646 OA
ENDBRANCH  18  23
ENDBRANCH  15  18
ENDBRANCH   3  14
TORSDOF 5
ENDMDL
MODEL 3
REMARK VINA RESULT:      -6.0     15.678     18.130
REMARK  5 active torsions:
REMARK  status: ('A' for Active; 'I' for Inactive)
REMARK    1  A    between atoms: C_3  and  C_7 
REMARK    2  A    between atoms: C_3  and  C_4 
REMARK    3  A    between atoms: C_4  and  C_5 
REMARK    4  A    between atoms: C_4  and  N_11 
REMARK       I    between atoms: N_11  and  C_12 
REMARK    5  A    between atoms: C_12  and  C_13 
ROOT
HETATM    1  H           1     -19.873  -5.253  -8.780  0.00  0.00     0.275 HD
HETATM    2  H           1     -19.126  -3.742  -8.523  0.00  0.00     0.275 HD
HETATM    3  C           1     -20.367  -4.359  -6.953  0.00  0.00     0.274 C 
HETATM    4  C           1     -22.312  -3.835  -9.881  0.00  0.00     0.027 C 
HETATM    5  C           1     -22.275  -4.549  -8.536  0.00  0.00     0.004 C 
HETATM    6  C           1     -21.600  -3.656  -7.504  0.00  0.00     0.042 C 
HETATM    7  C           1     -20.889  -3.525 -10.331  0.00  0.00     0.229 C 
HETATM    8  H           1     -19.142  -4.590 -10.775  0.00  0.00     0.274 HD
HETATM    9  H           1     -20.091  -5.293  -9.543  0.00  0.00     0.274 HD
HETATM   10  H           1     -20.580  -5.416 -11.174  0.00  0.00     0.274 HD
HETATM   11  N           1     -19.410  -4.641  -8.073  0.00  0.00    -0.067 N 
HETATM   12  N           1     -20.117  -4.803 -10.466  0.00  0.00    -0.079 N 
HETATM   13  H           1     -18.564  -5.122  -7.694  0.00  0.00     0.275 HD
ENDROOT
BRANCH   3  14
HETATM   14  C           1     -20.776  -5.658  -6.302  0.00  0.00     0.249 C 
HETATM   15  N           1     -20.891  -5.733  -4.940  0.00  0.00    -0.344 N 
HETATM   16  H           1     -20.704  -4.918  -4.370  0.00  0.00     0.163 HD
HETATM   17  O           1     -21.000  -6.630  -6.982  0.00  0.00    -0.271 OA
BRANCH  15  18
HETATM   18  C           1     -21.285  -6.982  -4.315  0.00  0.00     0.195 C 
BRANCH  18  19
HETATM   19  C           1     -20.134  -7.975  -4.400  0.00  0.00     0.149 C 
BRANCH  19  20
HETATM   20  C           1     -20.651  -9.303  -4.897  0.00  0.00     0.175 C 
HETATM   21  O           1     -21.662  -9.817  -4.372  0.00  0.00    -0.648 OA
HETATM   22  O           1     -20.067  -9.890  -5.834  0.00  0.00    -0.648 OA
ENDBRANCH  19  20
ENDBRANCH  18  19
BRANCH  18  23
HETATM   23  C           1     -21.629  -6.733  -2.867  0.00  0.00     0.197 C 
HETATM   24  O           1     -21.027  -7.356  -1.965  0.00  0.00    -0.646 OA
HETATM   25  O           1     -22.518  -5.905  -2.569  0.00  0.00    -0.646 OA
ENDBRANCH  18  23
ENDBRANCH  15  18
ENDBRANCH   3  14
TORSDOF 5
ENDMDL
MODEL 4
REMARK VINA RESULT:      -5.8     18.472     20.048
REMARK  5 active torsions:
REMARK  status: ('A' for Active; 'I' for Inactive)
REMARK    1  A    between atoms: C_3  and  C_7 
REMARK    2  A    between atoms: C_3  and  C_4 
REMARK    3  A    between atoms: C_4  and  C_5 
REMARK    4  A    between atoms: C_4  and  N_11 
REMARK       I    between atoms: N_11  and  C_12 
REMARK    5  A    between atoms: C_12  and  C_13 
ROOT
HETATM    1  H           1     -20.926 -12.092  -0.605  0.00  0.00     0.275 HD
HETATM    2  H           1     -21.303 -13.330  -1.716  0.00  0.00     0.275 HD
HETATM    3  C           1     -21.655 -11.396  -2.440  0.00  0.00     0.274 C 
HETATM    4  C           1     -23.814 -12.060   0.304  0.00  0.00     0.027 C 
HETATM    5  C           1     -23.165 -10.952  -0.515  0.00  0.00     0.004 C 
HETATM    6  C           1     -23.106 -11.368  -1.977  0.00  0.00     0.042 C 
HETATM    7  C           1     -22.992 -13.337   0.173  0.00  0.00     0.229 C 
HETATM    8  H           1     -21.039 -13.967   0.589  0.00  0.00     0.274 HD
HETATM    9  H           1     -21.156 -12.332   0.116  0.00  0.00     0.274 HD
HETATM   10  H           1     -21.642 -12.805   1.683  0.00  0.00     0.274 HD
HETATM   11  N           1     -20.885 -12.379  -1.608  0.00  0.00    -0.067 N 
HETATM   12  N           1     -21.602 -13.092   0.679  0.00  0.00    -0.079 N 
HETATM   13  H           1     -19.890 -12.398  -1.927  0.00  0.00     0.275 HD
ENDROOT
BRANCH   3  14
HETATM   14  C           1     -21.050 -10.023  -2.285  0.00  0.00     0.249 C 
HETATM   15  N           1     -21.629  -8.947  -2.902  0.00  0.00    -0.344 N 
HETATM   16  H           1     -22.463  -9.073  -3.462  0.00  0.00     0.163 HD
HETATM   17  O           1     -20.055  -9.872  -1.617  0.00  0.00    -0.271 OA
BRANCH  15  18
HETATM   18  C           1     -21.048  -7.627  -2.753  0.00  0.00     0.195 C 
BRANCH  18  19
HETATM   19  C           1     -20.914  -6.974  -4.122  0.00  0.00     0.149 C 
BRANCH  19  20
HETATM   20  C           1     -20.491  -8.010  -5.135  0.00  0.00     0.175 C 
HETATM   21  O           1     -21.286  -8.372  -6.030  0.00  0.00    -0.648 OA
HETATM   22  O           1     -19.345  -8.507  -5.079  0.00  0.00    -0.648 OA
ENDBRANCH  19  20
ENDBRANCH  18  19
BRANCH  18  23
HETATM   23  C           1     -21.938  -6.781  -1.877  0.00  0.00     0.197 C 
HETATM   24  O           1     -22.253  -7.179  -0.734  0.00  0.00    -0.646 OA
HETATM   25  O           1     -22.364  -5.681  -2.295  0.00  0.00    -0.646 OA
ENDBRANCH  18  23
ENDBRANCH  15  18
ENDBRANCH   3  14
TORSDOF 5
ENDMDL
MODEL 5
REMARK VINA RESULT:      -5.7     17.994     20.235
REMARK  5 active torsions:
REMARK  status: ('A' for Active; 'I' for Inactive)
REMARK    1  A    between atoms: C_3  and  C_7 
REMARK    2  A    between atoms: C_3  and  C_4 
REMARK    3  A    between atoms: C_4  and  C_5 
REMARK    4  A    between atoms: C_4  and  N_11 
REMARK       I    between atoms: N_11  and  C_12 
REMARK    5  A    between atoms: C_12  and  C_13 
ROOT
HETATM    1  H           1     -20.705  -8.816  -3.726  0.00  0.00     0.275 HD
HETATM    2  H           1     -19.263  -7.918  -3.583  0.00  0.00     0.275 HD
HETATM    3  C           1     -20.671  -7.517  -2.085  0.00  0.00     0.274 C 
HETATM    4  C           1     -21.961  -6.514  -5.241  0.00  0.00     0.027 C 
HETATM    5  C           1     -22.344  -6.912  -3.822  0.00  0.00     0.004 C 
HETATM    6  C           1     -21.314  -6.364  -2.844  0.00  0.00     0.042 C 
HETATM    7  C           1     -20.589  -7.087  -5.576  0.00  0.00     0.229 C 
HETATM    8  H           1     -19.691  -8.975  -5.701  0.00  0.00     0.274 HD
HETATM    9  H           1     -20.894  -8.855  -4.497  0.00  0.00     0.274 HD
HETATM   10  H           1     -21.339  -8.958  -6.141  0.00  0.00     0.274 HD
HETATM   11  N           1     -19.998  -8.441  -3.056  0.00  0.00    -0.067 N 
HETATM   12  N           1     -20.632  -8.582  -5.471  0.00  0.00    -0.079 N 
HETATM   13  H           1     -19.556  -9.231  -2.535  0.00  0.00     0.275 HD
ENDROOT
BRANCH   3  14
HETATM   14  C           1     -21.732  -8.274  -1.324  0.00  0.00     0.249 C 
HETATM   15  N           1     -21.787  -9.639  -1.402  0.00  0.00    -0.344 N 
HETATM   16  H           1     -21.115 -10.142  -1.968  0.00  0.00     0.163 HD
HETATM   17  O           1     -22.534  -7.674  -0.648  0.00  0.00    -0.271 OA
BRANCH  15  18
HETATM   18  C           1     -22.807 -10.366  -0.671  0.00  0.00     0.195 C 
BRANCH  18  19
HETATM   19  C           1     -23.609 -11.225  -1.639  0.00  0.00     0.149 C 
BRANCH  19  20
HETATM   20  C           1     -22.776 -11.519  -2.862  0.00  0.00     0.175 C 
HETATM   21  O           1     -22.748 -10.706  -3.811  0.00  0.00    -0.648 OA
HETATM   22  O           1     -22.112 -12.577  -2.925  0.00  0.00    -0.648 OA
ENDBRANCH  19  20
ENDBRANCH  18  19
BRANCH  18  23
HETATM   23  C           1     -22.153 -11.249   0.363  0.00  0.00     0.197 C 
HETATM   24  O           1     -22.685 -12.333   0.686  0.00  0.00    -0.646 OA
HETATM   25  O           1     -21.079 -10.896   0.897  0.00  0.00    -0.646 OA
ENDBRANCH  18  23
ENDBRANCH  15  18
ENDBRANCH   3  14
TORSDOF 5
ENDMDL
MODEL 6
REMARK VINA RESULT:      -5.7     11.116     12.840
REMARK  5 active torsions:
REMARK  status: ('A' for Active; 'I' for Inactive)
REMARK    1  A    between atoms: C_3  and  C_7 
REMARK    2  A    between atoms: C_3  and  C_4 
REMARK    3  A    between atoms: C_4  and  C_5 
REMARK    4  A    between atoms: C_4  and  N_11 
REMARK       I    between atoms: N_11  and  C_12 
REMARK    5  A    between atoms: C_12  and  C_13 
ROOT
HETATM    1  H           1     -24.350  -8.351 -19.847  0.00  0.00     0.275 HD
HETATM    2  H           1     -23.148  -7.191 -19.501  0.00  0.00     0.275 HD
HETATM    3  C           1     -25.067  -6.387 -19.744  0.00  0.00     0.274 C 
HETATM    4  C           1     -23.973  -7.824 -22.805  0.00  0.00     0.027 C 
HETATM    5  C           1     -25.201  -7.397 -22.012  0.00  0.00     0.004 C 
HETATM    6  C           1     -24.889  -6.127 -21.234  0.00  0.00     0.042 C 
HETATM    7  C           1     -22.817  -8.086 -21.849  0.00  0.00     0.229 C 
HETATM    8  H           1     -22.403  -9.358 -20.236  0.00  0.00     0.274 HD
HETATM    9  H           1     -24.039  -8.884 -20.347  0.00  0.00     0.274 HD
HETATM   10  H           1     -23.412 -10.049 -21.426  0.00  0.00     0.274 HD
HETATM   11  N           1     -24.134  -7.480 -19.313  0.00  0.00    -0.067 N 
HETATM   12  N           1     -23.197  -9.177 -20.892  0.00  0.00    -0.079 N 
HETATM   13  H           1     -24.256  -7.658 -18.291  0.00  0.00     0.275 HD
ENDROOT
BRANCH   3  14
HETATM   14  C           1     -26.491  -6.804 -19.472  0.00  0.00     0.249 C 
HETATM   15  N           1     -27.134  -6.353 -18.350  0.00  0.00    -0.344 N 
HETATM   16  H           1     -26.655  -5.738 -17.705  0.00  0.00     0.163 HD
HETATM   17  O           1     -27.064  -7.538 -20.243  0.00  0.00    -0.271 OA
BRANCH  15  18
HETATM   18  C           1     -28.503  -6.754 -18.090  0.00  0.00     0.195 C 
BRANCH  18  19
HETATM   19  C           1     -28.612  -7.287 -16.667  0.00  0.00     0.149 C 
BRANCH  19  20
HETATM   20  C           1     -27.494  -6.718 -15.829  0.00  0.00     0.175 C 
HETATM   21  O           1     -26.582  -7.466 -15.412  0.00  0.00    -0.648 OA
HETATM   22  O           1     -27.479  -5.500 -15.551  0.00  0.00    -0.648 OA
ENDBRANCH  19  20
ENDBRANCH  18  19
BRANCH  18  23
HETATM   23  C           1     -29.416  -5.565 -18.254  0.00  0.00     0.197 C 
HETATM   24  O           1     -29.059  -4.594 -18.957  0.00  0.00    -0.646 OA
HETATM   25  O           1     -30.530  -5.549 -17.685  0.00  0.00    -0.646 OA
ENDBRANCH  18  23
ENDBRANCH  15  18
ENDBRANCH   3  14
TORSDOF 5
ENDMDL
MODEL 7
REMARK VINA RESULT:      -5.7     24.810     26.129
REMARK  5 active torsions:
REMARK  status: ('A' for Active; 'I' for Inactive)
REMARK    1  A    between atoms: C_3  and  C_7 
REMARK    2  A    between atoms: C_3  and  C_4 
REMARK    3  A    between atoms: C_4  and  C_5 
REMARK    4  A    between atoms: C_4  and  N_11 
REMARK       I    between atoms: N_11  and  C_12 
REMARK    5  A    between atoms: C_12  and  C_13 
ROOT
HETATM    1  H           1     -11.664   8.381 -19.746  0.00  0.00     0.275 HD
HETATM    2  H           1     -11.986  10.052 -19.873  0.00  0.00     0.275 HD
HETATM    3  C           1     -12.573   8.939 -21.548  0.00  0.00     0.274 C 
HETATM    4  C           1      -9.039   8.800 -21.196  0.00  0.00     0.027 C 
HETATM    5  C           1     -10.246   8.098 -21.803  0.00  0.00     0.004 C 
HETATM    6  C           1     -11.252   9.136 -22.280  0.00  0.00     0.042 C 
HETATM    7  C           1      -9.487   9.652 -20.015  0.00  0.00     0.229 C 
HETATM    8  H           1     -10.434   9.359 -18.170  0.00  0.00     0.274 HD
HETATM    9  H           1     -10.957   8.294 -19.396  0.00  0.00     0.274 HD
HETATM   10  H           1      -9.437   8.062 -18.653  0.00  0.00     0.274 HD
HETATM   11  N           1     -12.354   9.094 -20.072  0.00  0.00    -0.067 N 
HETATM   12  N           1     -10.128   8.775 -18.980  0.00  0.00    -0.079 N 
HETATM   13  H           1     -13.260   8.959 -19.570  0.00  0.00     0.275 HD
ENDROOT
BRANCH   3  14
HETATM   14  C           1     -13.105   7.556 -21.834  0.00  0.00     0.249 C 
HETATM   15  N           1     -12.850   6.531 -20.963  0.00  0.00    -0.344 N 
HETATM   16  H           1     -12.306   6.701 -20.127  0.00  0.00     0.163 HD
HETATM   17  O           1     -13.754   7.354 -22.833  0.00  0.00    -0.271 OA
BRANCH  15  18
HETATM   18  C           1     -13.362   5.202 -21.239  0.00  0.00     0.195 C 
BRANCH  18  19
HETATM   19  C           1     -12.381   4.163 -20.714  0.00  0.00     0.149 C 
BRANCH  19  20
HETATM   20  C           1     -11.287   4.850 -19.935  0.00  0.00     0.175 C 
HETATM   21  O           1     -10.150   4.985 -20.438  0.00  0.00    -0.648 OA
HETATM   22  O           1     -11.517   5.286 -18.786  0.00  0.00    -0.648 OA
ENDBRANCH  19  20
ENDBRANCH  18  19
BRANCH  18  23
HETATM   23  C           1     -14.696   5.025 -20.559  0.00  0.00     0.197 C 
HETATM   24  O           1     -14.747   4.642 -19.370  0.00  0.00    -0.646 OA
HETATM   25  O           1     -15.754   5.260 -21.185  0.00  0.00    -0.646 OA
ENDBRANCH  18  23
ENDBRANCH  15  18
ENDBRANCH   3  14
TORSDOF 5
ENDMDL
MODEL 8
REMARK VINA RESULT:      -5.6     19.077     20.678
REMARK  5 active torsions:
REMARK  status: ('A' for Active; 'I' for Inactive)
REMARK    1  A    between atoms: C_3  and  C_7 
REMARK    2  A    between atoms: C_3  and  C_4 
REMARK    3  A    between atoms: C_4  and  C_5 
REMARK    4  A    between atoms: C_4  and  N_11 
REMARK       I    between atoms: N_11  and  C_12 
REMARK    5  A    between atoms: C_12  and  C_13 
ROOT
HETATM    1  H           1     -20.220 -10.184  -5.301  0.00  0.00     0.275 HD
HETATM    2  H           1     -21.451  -9.380  -6.166  0.00  0.00     0.275 HD
HETATM    3  C           1     -21.770  -9.456  -4.097  0.00  0.00     0.274 C 
HETATM    4  C           1     -21.827 -12.747  -5.440  0.00  0.00     0.027 C 
HETATM    5  C           1     -21.619 -11.937  -4.166  0.00  0.00     0.004 C 
HETATM    6  C           1     -22.571 -10.750  -4.157  0.00  0.00     0.042 C 
HETATM    7  C           1     -21.551 -11.866  -6.652  0.00  0.00     0.229 C 
HETATM    8  H           1     -19.946 -10.768  -7.431  0.00  0.00     0.274 HD
HETATM    9  H           1     -19.993 -10.815  -5.726  0.00  0.00     0.274 HD
HETATM   10  H           1     -19.482 -12.186  -6.605  0.00  0.00     0.274 HD
HETATM   11  N           1     -20.873  -9.369  -5.296  0.00  0.00    -0.067 N 
HETATM   12  N           1     -20.135 -11.371  -6.600  0.00  0.00    -0.079 N 
HETATM   13  H           1     -20.324  -8.481  -5.254  0.00  0.00     0.275 HD
ENDROOT
BRANCH   3  14
HETATM   14  C           1     -20.935  -9.439  -2.841  0.00  0.00     0.249 C 
HETATM   15  N           1     -21.544  -9.436  -1.615  0.00  0.00    -0.344 N 
HETATM   16  H           1     -22.554  -9.446  -1.551  0.00  0.00     0.163 HD
HETATM   17  O           1     -19.729  -9.426  -2.917  0.00  0.00    -0.271 OA
BRANCH  15  18
HETATM   18  C           1     -20.741  -9.419  -0.407  0.00  0.00     0.195 C 
BRANCH  18  19
HETATM   19  C           1     -21.311  -8.396   0.566  0.00  0.00     0.149 C 
BRANCH  19  20
HETATM   20  C           1     -22.673  -7.953   0.092  0.00  0.00     0.175 C 
HETATM   21  O           1     -23.691  -8.600   0.420  0.00  0.00    -0.648 OA
HETATM   22  O           1     -22.784  -6.938  -0.630  0.00  0.00    -0.648 OA
ENDBRANCH  19  20
ENDBRANCH  18  19
BRANCH  18  23
HETATM   23  C           1     -20.762 -10.786   0.230  0.00  0.00     0.197 C 
HETATM   24  O           1     -19.692 -11.323   0.593  0.00  0.00    -0.646 OA
HETATM   25  O           1     -21.848 -11.383   0.394  0.00  0.00    -0.646 OA
ENDBRANCH  18  23
ENDBRANCH  15  18
ENDBRANCH   3  14
TORSDOF 5
ENDMDL
MODEL 9
REMARK VINA RESULT:      -5.4     17.995     20.026
REMARK  5 active torsions:
REMARK  status: ('A' for Active; 'I' for Inactive)
REMARK    1  A    between atoms: C_3  and  C_7 
REMARK    2  A    between atoms: C_3  and  C_4 
REMARK    3  A    between atoms: C_4  and  C_5 
REMARK    4  A    between atoms: C_4  and  N_11 
REMARK       I    between atoms: N_11  and  C_12 
REMARK    5  A    between atoms: C_12  and  C_13 
ROOT
HETATM    1  H           1     -23.258 -10.344  -0.841  0.00  0.00     0.275 HD
HETATM    2  H           1     -23.742 -10.119   0.779  0.00  0.00     0.275 HD
HETATM    3  C           1     -21.899  -9.242   0.308  0.00  0.00     0.274 C 
HETATM    4  C           1     -21.660 -12.775  -0.001  0.00  0.00     0.027 C 
HETATM    5  C           1     -21.039 -11.454  -0.435  0.00  0.00     0.004 C 
HETATM    6  C           1     -21.088 -10.464   0.720  0.00  0.00     0.042 C 
HETATM    7  C           1     -23.109 -12.545   0.409  0.00  0.00     0.229 C 
HETATM    8  H           1     -24.871 -11.835  -0.475  0.00  0.00     0.274 HD
HETATM    9  H           1     -23.451 -11.085  -1.053  0.00  0.00     0.274 HD
HETATM   10  H           1     -23.842 -12.671  -1.549  0.00  0.00     0.274 HD
HETATM   11  N           1     -23.293  -9.666  -0.048  0.00  0.00    -0.067 N 
HETATM   12  N           1     -23.876 -11.992  -0.756  0.00  0.00    -0.079 N 
HETATM   13  H           1     -23.849  -8.827  -0.330  0.00  0.00     0.275 HD
ENDROOT
BRANCH   3  14
HETATM   14  C           1     -21.251  -8.587  -0.886  0.00  0.00     0.249 C 
HETATM   15  N           1     -21.932  -8.499  -2.071  0.00  0.00    -0.344 N 
HETATM   16  H           1     -22.870  -8.872  -2.145  0.00  0.00     0.163 HD
HETATM   17  O           1     -20.132  -8.142  -0.798  0.00  0.00    -0.271 OA
BRANCH  15  18
HETATM   18  C           1     -21.308  -7.869  -3.219  0.00  0.00     0.195 C 
BRANCH  18  19
HETATM   19  C           1     -21.506  -8.747  -4.448  0.00  0.00     0.149 C 
BRANCH  19  20
HETATM   20  C           1     -21.611 -10.192  -4.024  0.00  0.00     0.175 C 
HETATM   21  O           1     -22.721 -10.672  -3.706  0.00  0.00    -0.648 OA
HETATM   22  O           1     -20.587 -10.908  -3.991  0.00  0.00    -0.648 OA
ENDBRANCH  19  20
ENDBRANCH  18  19
BRANCH  18  23
HETATM   23  C           1     -21.939  -6.520  -3.457  0.00  0.00     0.197 C 
HETATM   24  O           1     -22.455  -5.894  -2.506  0.00  0.00    -0.646 OA
HETATM   25  O           1     -21.947  -6.028  -4.607  0.00  0.00    -0.646 OA
ENDBRANCH  18  23
ENDBRANCH  15  18
ENDBRANCH   3  14
TORSDOF 5
ENDMDL
