REMARK  15 active torsions:
REMARK  status: ('A' for Active; 'I' for Inactive)
REMARK    1  A    between atoms: O_2  and  C_3 
REMARK    2  A    between atoms: C_5  and  C_6 
REMARK    3  A    between atoms: C_6  and  C_7 
REMARK    4  A    between atoms: C_7  and  O_9 
REMARK    5  A    between atoms: O_9  and  C_10 
REMARK    6  A    between atoms: C_10  and  C_11 
REMARK    7  A    between atoms: C_18  and  O_19 
REMARK    8  A    between atoms: O_19  and  C_20 
REMARK    9  A    between atoms: C_23  and  O_24 
REMARK   10  A    between atoms: O_24  and  C_25 
REMARK   11  A    between atoms: C_25  and  C_27 
REMARK   12  A    between atoms: C_27  and  C_28 
REMARK   13  A    between atoms: C_36  and  O_37 
REMARK   14  A    between atoms: C_44  and  O_45 
REMARK   15  A    between atoms: C_49  and  O_50 
ROOT
HETATM    1  C   UNL     1      -1.531   7.120  -0.576  1.00  0.00    -0.050 C 
HETATM    2  C   UNL     1      -1.864   8.171   0.427  1.00  0.00    -0.013 C 
HETATM    3  C   UNL     1      -1.814   8.148   2.334  1.00  0.00     0.052 C 
HETATM    4  C   UNL     1      -2.415   9.436   3.316  1.00  0.00     0.046 A 
HETATM    5  C   UNL     1      -1.699  10.711   3.754  1.00  0.00    -0.005 A 
HETATM    6  C   UNL     1      -0.641  11.103   2.764  1.00  0.00     0.018 C 
HETATM    7  C   UNL     1      -2.371  11.956   4.313  1.00  0.00     0.018 C 
HETATM    8  C   UNL     1      -1.823   9.527   4.762  1.00  0.00     0.110 A 
HETATM    9  C   UNL     1      -0.861   8.428   5.060  1.00  0.00     0.174 C 
HETATM   10  C   UNL     1      -1.651   7.034   4.823  1.00  0.00     0.050 C 
HETATM   11  C   UNL     1      -3.184   6.944   4.994  1.00  0.00     0.016 C 
HETATM   12  C   UNL     1      -1.248   6.655   3.425  1.00  0.00     0.086 C 
HETATM   13  C   UNL     1      -1.590   4.991   2.756  1.00  0.00     0.131 A 
HETATM   14  C   UNL     1      -2.948   4.872   2.271  1.00  0.00    -0.000 C 
HETATM   15  C   UNL     1      -2.986   5.847   1.383  1.00  0.00    -0.029 C 
HETATM   16  C   UNL     1      -4.263   6.605   1.111  1.00  0.00     0.051 C 
HETATM   17  C   UNL     1      -1.266   6.004   1.342  1.00  0.00     0.099 A 
HETATM   18  O   UNL     1      -0.333   6.845   1.405  1.00  0.00    -0.304 OA
HETATM   19  C   UNL     1      -0.762   4.704   1.327  1.00  0.00     0.134 A 
HETATM   20  C   UNL     1      -0.774   5.457  -0.242  1.00  0.00     0.141 A 
ENDROOT
BRANCH   1  21
HETATM   21  C   UNL     1      -1.727   6.900  -2.084  1.00  0.00     0.213 C 
BRANCH  21  22
HETATM   22  O   UNL     1      -2.453   7.804  -2.893  1.00  0.00    -0.317 OA
BRANCH  22  23
HETATM   23  C   UNL     1      -3.654   7.291  -3.318  1.00  0.00     0.263 C 
HETATM   24  O   UNL     1      -4.343   6.524  -2.650  1.00  0.00    -0.265 OA
BRANCH  23  25
HETATM   25  C   UNL     1      -4.002   7.649  -4.757  1.00  0.00     0.149 C 
BRANCH  25  26
HETATM   26  C   UNL     1      -3.680   9.057  -5.185  1.00  0.00    -0.046 C 
HETATM   27  C   UNL     1      -3.633  10.073  -4.227  1.00  0.00     0.047 C 
HETATM   28  C   UNL     1      -3.166  11.343  -4.543  1.00  0.00     0.101 C 
HETATM   29  C   UNL     1      -2.912  11.652  -5.879  1.00  0.00     0.099 C 
HETATM   30  C   UNL     1      -3.073  10.687  -6.877  1.00  0.00     0.040 C 
HETATM   31  C   UNL     1      -3.440   9.383  -6.527  1.00  0.00     0.010 C 
BRANCH  28  32
HETATM   32  O   UNL     1      -2.937  12.292  -3.581  1.00  0.00    -0.353 OA
HETATM   33  C   UNL     1      -2.511  11.752  -2.327  1.00  0.00     0.210 C 
ENDBRANCH  28  32
BRANCH  29  34
HETATM   34  O   UNL     1      -2.479  12.908  -6.201  1.00  0.00    -0.358 OA
HETATM   35  H   UNL     1      -2.252  12.934  -7.143  1.00  0.00     0.217 HD
ENDBRANCH  29  34
ENDBRANCH  25  26
ENDBRANCH  23  25
ENDBRANCH  22  23
ENDBRANCH  21  22
ENDBRANCH   1  21
BRANCH  19  36
HETATM   36  O   UNL     1       0.610   4.533   1.700  1.00  0.00    -0.381 OA
HETATM   37  H   UNL     1       0.860   5.393   2.121  1.00  0.00     0.211 HD
ENDBRANCH  19  36
BRANCH  12  38
HETATM   38  O   UNL     1       0.212   6.423   3.599  1.00  0.00    -0.387 OA
HETATM   39  H   UNL     1       0.330   5.762   4.305  1.00  0.00     0.210 HD
ENDBRANCH  12  38
BRANCH   8  40
HETATM   40  O   UNL     1      -2.805   9.679   5.897  1.00  0.00    -0.306 OA
BRANCH  40  41
HETATM   41  C   UNL     1      -2.324   9.688   7.195  1.00  0.00     0.255 C 
HETATM   42  C   UNL     1      -3.323   9.242   8.237  1.00  0.00     0.126 C 
HETATM   43  O   UNL     1      -1.167   9.930   7.518  1.00  0.00    -0.266 OA
ENDBRANCH  40  41
ENDBRANCH   8  40
BRANCH   9  44
HETATM   44  O   UNL     1       0.291   8.622   4.192  1.00  0.00    -0.312 OA
BRANCH  44  45
HETATM   45  C   UNL     1       1.220   9.559   4.467  1.00  0.00     0.263 C 
HETATM   46  O   UNL     1       1.213  10.231   5.487  1.00  0.00    -0.265 OA
BRANCH  45  47
HETATM   47  C   UNL     1       2.196   9.758   3.314  1.00  0.00     0.149 C 
BRANCH  47  48
HETATM   48  C   UNL     1       3.609   9.619   3.787  1.00  0.00    -0.049 A 
HETATM   49  C   UNL     1       4.225   8.364   3.739  1.00  0.00     0.007 A 
HETATM   50  C   UNL     1       5.439   8.159   4.377  1.00  0.00     0.001 A 
HETATM   51  C   UNL     1       6.039   9.210   5.071  1.00  0.00     0.000 A 
HETATM   52  C   UNL     1       5.458  10.480   5.080  1.00  0.00     0.001 A 
HETATM   53  C   UNL     1       4.241  10.685   4.432  1.00  0.00     0.007 A 
ENDBRANCH  47  48
ENDBRANCH  45  47
ENDBRANCH  44  45
ENDBRANCH   9  44
TORSDOF 15
