MODEL 1
REMARK VINA RESULT:     -10.0      0.000      0.000
REMARK  15 active torsions:
REMARK  status: ('A' for Active; 'I' for Inactive)
REMARK    1  A    between atoms: O_2  and  C_3 
REMARK    2  A    between atoms: C_5  and  C_6 
REMARK    3  A    between atoms: C_6  and  C_7 
REMARK    4  A    between atoms: C_7  and  O_9 
REMARK    5  A    between atoms: O_9  and  C_10 
REMARK    6  A    between atoms: C_10  and  C_11 
REMARK    7  A    between atoms: C_18  and  O_19 
REMARK    8  A    between atoms: O_19  and  C_20 
REMARK    9  A    between atoms: C_23  and  O_24 
REMARK   10  A    between atoms: O_24  and  C_25 
REMARK   11  A    between atoms: C_25  and  C_27 
REMARK   12  A    between atoms: C_27  and  C_28 
REMARK   13  A    between atoms: C_36  and  O_37 
REMARK   14  A    between atoms: C_44  and  O_45 
REMARK   15  A    between atoms: C_49  and  O_50 
ROOT
HETATM    1  C   UNL     1     -20.979  -8.885  -5.053  1.00  0.00    -0.050 C 
HETATM    2  C   UNL     1     -21.795  -9.958  -4.416  1.00  0.00    -0.013 C 
HETATM    3  C   UNL     1     -21.281 -11.510  -3.433  1.00  0.00     0.052 C 
HETATM    4  C   UNL     1     -22.398 -12.727  -2.927  1.00  0.00     0.046 A 
HETATM    5  C   UNL     1     -23.263 -12.760  -1.670  1.00  0.00    -0.005 A 
HETATM    6  C   UNL     1     -23.572 -11.371  -1.192  1.00  0.00     0.018 C 
HETATM    7  C   UNL     1     -24.466 -13.663  -1.447  1.00  0.00     0.018 C 
HETATM    8  C   UNL     1     -21.950 -13.601  -1.708  1.00  0.00     0.110 A 
HETATM    9  C   UNL     1     -20.585 -13.254  -1.222  1.00  0.00     0.174 C 
HETATM   10  C   UNL     1     -19.580 -13.424  -2.481  1.00  0.00     0.050 C 
HETATM   11  C   UNL     1     -19.891 -14.414  -3.625  1.00  0.00     0.016 C 
HETATM   12  C   UNL     1     -19.465 -12.020  -3.007  1.00  0.00     0.086 C 
HETATM   13  C   UNL     1     -18.191 -11.567  -4.234  1.00  0.00     0.131 A 
HETATM   14  C   UNL     1     -18.589 -11.915  -5.581  1.00  0.00    -0.000 C 
HETATM   15  C   UNL     1     -19.725 -11.252  -5.688  1.00  0.00    -0.029 C 
HETATM   16  C   UNL     1     -20.859 -11.777  -6.535  1.00  0.00     0.051 C 
HETATM   17  C   UNL     1     -19.390 -10.269  -4.307  1.00  0.00     0.099 A 
HETATM   18  O   UNL     1     -19.886  -9.846  -3.231  1.00  0.00    -0.304 OA
HETATM   19  C   UNL     1     -18.048  -9.906  -4.410  1.00  0.00     0.134 A 
HETATM   20  C   UNL     1     -19.141  -8.652  -4.921  1.00  0.00     0.141 A 
ENDROOT
BRANCH   1  21
HETATM   21  C   UNL     1     -21.210  -7.733  -6.042  1.00  0.00     0.213 C 
BRANCH  21  22
HETATM   22  O   UNL     1     -20.690  -6.435  -5.828  1.00  0.00    -0.317 OA
BRANCH  22  23
HETATM   23  C   UNL     1     -21.602  -5.445  -6.102  1.00  0.00     0.263 C 
HETATM   24  O   UNL     1     -22.804  -5.540  -5.866  1.00  0.00    -0.265 OA
BRANCH  23  25
HETATM   25  C   UNL     1     -21.014  -4.258  -6.854  1.00  0.00     0.149 C 
BRANCH  25  26
HETATM   26  C   UNL     1     -21.190  -4.270  -8.350  1.00  0.00    -0.046 C 
HETATM   27  C   UNL     1     -22.439  -3.971  -8.898  1.00  0.00     0.047 C 
HETATM   28  C   UNL     1     -22.604  -3.793 -10.267  1.00  0.00     0.101 C 
HETATM   29  C   UNL     1     -21.541  -4.097 -11.116  1.00  0.00     0.099 C 
HETATM   30  C   UNL     1     -20.314  -4.521 -10.599  1.00  0.00     0.040 C 
HETATM   31  C   UNL     1     -20.133  -4.591  -9.214  1.00  0.00     0.010 C 
BRANCH  28  32
HETATM   32  O   UNL     1     -23.773  -3.318 -10.801  1.00  0.00    -0.353 OA
HETATM   33  C   UNL     1     -24.856  -3.268  -9.868  1.00  0.00     0.210 C 
ENDBRANCH  28  32
BRANCH  29  34
HETATM   34  O   UNL     1     -21.704  -3.951 -12.466  1.00  0.00    -0.358 OA
HETATM   35  H   UNL     1     -21.332  -3.099 -12.741  1.00  0.00     0.217 HD
ENDBRANCH  29  34
ENDBRANCH  25  26
ENDBRANCH  23  25
ENDBRANCH  22  23
ENDBRANCH  21  22
ENDBRANCH   1  21
BRANCH  19  36
HETATM   36  O   UNL     1     -17.405  -9.443  -3.217  1.00  0.00    -0.381 OA
HETATM   37  H   UNL     1     -16.453  -9.347  -3.472  1.00  0.00     0.211 HD
ENDBRANCH  19  36
BRANCH  12  38
HETATM   38  O   UNL     1     -18.790 -11.339  -1.868  1.00  0.00    -0.387 OA
HETATM   39  H   UNL     1     -18.516 -12.022  -1.229  1.00  0.00     0.210 HD
ENDBRANCH  12  38
BRANCH   8  40
HETATM   40  O   UNL     1     -22.086 -15.097  -1.850  1.00  0.00    -0.306 OA
BRANCH  40  41
HETATM   41  C   UNL     1     -21.807 -15.896  -0.755  1.00  0.00     0.255 C 
HETATM   42  C   UNL     1     -20.751 -16.949  -1.000  1.00  0.00     0.126 C 
HETATM   43  O   UNL     1     -22.271 -15.743   0.369  1.00  0.00    -0.266 OA
ENDBRANCH  40  41
ENDBRANCH   8  40
BRANCH   9  44
HETATM   44  O   UNL     1     -20.653 -11.904  -0.684  1.00  0.00    -0.312 OA
BRANCH  44  45
HETATM   45  C   UNL     1     -20.879 -11.687   0.627  1.00  0.00     0.263 C 
HETATM   46  O   UNL     1     -21.448 -12.490   1.351  1.00  0.00    -0.265 OA
BRANCH  45  47
HETATM   47  C   UNL     1     -20.452 -10.291   1.062  1.00  0.00     0.149 C 
BRANCH  47  48
HETATM   48  C   UNL     1     -21.254  -9.247   0.351  1.00  0.00    -0.049 A 
HETATM   49  C   UNL     1     -20.712  -8.618  -0.775  1.00  0.00     0.007 A 
HETATM   50  C   UNL     1     -21.328  -7.497  -1.311  1.00  0.00     0.001 A 
HETATM   51  C   UNL     1     -22.488  -6.998  -0.718  1.00  0.00     0.000 A 
HETATM   52  C   UNL     1     -23.066  -7.650   0.374  1.00  0.00     0.001 A 
HETATM   53  C   UNL     1     -22.448  -8.780   0.907  1.00  0.00     0.007 A 
ENDBRANCH  47  48
ENDBRANCH  45  47
ENDBRANCH  44  45
ENDBRANCH   9  44
TORSDOF 15
ENDMDL
MODEL 2
REMARK VINA RESULT:      -9.5      2.212      4.796
REMARK  15 active torsions:
REMARK  status: ('A' for Active; 'I' for Inactive)
REMARK    1  A    between atoms: O_2  and  C_3 
REMARK    2  A    between atoms: C_5  and  C_6 
REMARK    3  A    between atoms: C_6  and  C_7 
REMARK    4  A    between atoms: C_7  and  O_9 
REMARK    5  A    between atoms: O_9  and  C_10 
REMARK    6  A    between atoms: C_10  and  C_11 
REMARK    7  A    between atoms: C_18  and  O_19 
REMARK    8  A    between atoms: O_19  and  C_20 
REMARK    9  A    between atoms: C_23  and  O_24 
REMARK   10  A    between atoms: O_24  and  C_25 
REMARK   11  A    between atoms: C_25  and  C_27 
REMARK   12  A    between atoms: C_27  and  C_28 
REMARK   13  A    between atoms: C_36  and  O_37 
REMARK   14  A    between atoms: C_44  and  O_45 
REMARK   15  A    between atoms: C_49  and  O_50 
ROOT
HETATM    1  C   UNL     1     -20.484  -8.384  -3.524  1.00  0.00    -0.050 C 
HETATM    2  C   UNL     1     -19.479  -9.021  -2.626  1.00  0.00    -0.013 C 
HETATM    3  C   UNL     1     -19.382 -10.782  -1.899  1.00  0.00     0.052 C 
HETATM    4  C   UNL     1     -18.208 -11.263  -0.727  1.00  0.00     0.046 A 
HETATM    5  C   UNL     1     -16.782 -11.757  -0.957  1.00  0.00    -0.005 A 
HETATM    6  C   UNL     1     -16.220 -11.207  -2.236  1.00  0.00     0.018 C 
HETATM    7  C   UNL     1     -15.690 -11.831   0.099  1.00  0.00     0.018 C 
HETATM    8  C   UNL     1     -17.905 -12.796  -0.652  1.00  0.00     0.110 A 
HETATM    9  C   UNL     1     -18.742 -13.595  -1.592  1.00  0.00     0.174 C 
HETATM   10  C   UNL     1     -20.289 -13.272  -1.236  1.00  0.00     0.050 C 
HETATM   11  C   UNL     1     -20.710 -12.850   0.190  1.00  0.00     0.016 C 
HETATM   12  C   UNL     1     -20.646 -12.207  -2.234  1.00  0.00     0.086 C 
HETATM   13  C   UNL     1     -22.380 -11.701  -2.504  1.00  0.00     0.131 A 
HETATM   14  C   UNL     1     -22.827 -10.752  -1.507  1.00  0.00    -0.000 C 
HETATM   15  C   UNL     1     -21.938  -9.789  -1.657  1.00  0.00    -0.029 C 
HETATM   16  C   UNL     1     -21.501  -8.942  -0.486  1.00  0.00     0.051 C 
HETATM   17  C   UNL     1     -21.402 -10.393  -3.184  1.00  0.00     0.099 A 
HETATM   18  O   UNL     1     -20.371 -10.691  -3.840  1.00  0.00    -0.304 OA
HETATM   19  C   UNL     1     -22.555 -10.758  -3.879  1.00  0.00     0.134 A 
HETATM   20  C   UNL     1     -21.914  -9.216  -4.369  1.00  0.00     0.141 A 
ENDROOT
BRANCH   1  21
HETATM   21  C   UNL     1     -20.828  -6.964  -4.002  1.00  0.00     0.213 C 
BRANCH  21  22
HETATM   22  O   UNL     1     -20.488  -6.497  -5.293  1.00  0.00    -0.317 OA
BRANCH  22  23
HETATM   23  C   UNL     1     -21.402  -5.602  -5.792  1.00  0.00     0.263 C 
HETATM   24  O   UNL     1     -22.618  -5.731  -5.674  1.00  0.00    -0.265 OA
BRANCH  23  25
HETATM   25  C   UNL     1     -20.782  -4.493  -6.631  1.00  0.00     0.149 C 
BRANCH  25  26
HETATM   26  C   UNL     1     -21.070  -4.542  -8.109  1.00  0.00    -0.046 C 
HETATM   27  C   UNL     1     -22.395  -4.586  -8.551  1.00  0.00     0.047 C 
HETATM   28  C   UNL     1     -22.713  -4.450  -9.897  1.00  0.00     0.101 C 
HETATM   29  C   UNL     1     -21.680  -4.450 -10.834  1.00  0.00     0.099 C 
HETATM   30  C   UNL     1     -20.346  -4.532 -10.425  1.00  0.00     0.040 C 
HETATM   31  C   UNL     1     -20.040  -4.560  -9.060  1.00  0.00     0.010 C 
BRANCH  28  32
HETATM   32  O   UNL     1     -24.006  -4.304 -10.325  1.00  0.00    -0.353 OA
HETATM   33  C   UNL     1     -24.739  -3.300  -9.618  1.00  0.00     0.210 C 
ENDBRANCH  28  32
BRANCH  29  34
HETATM   34  O   UNL     1     -21.987  -4.345 -12.162  1.00  0.00    -0.358 OA
HETATM   35  H   UNL     1     -21.411  -3.680 -12.569  1.00  0.00     0.217 HD
ENDBRANCH  29  34
ENDBRANCH  25  26
ENDBRANCH  23  25
ENDBRANCH  22  23
ENDBRANCH  21  22
ENDBRANCH   1  21
BRANCH  19  36
HETATM   36  O   UNL     1     -22.393 -11.651  -4.986  1.00  0.00    -0.381 OA
HETATM   37  H   UNL     1     -22.177 -11.060  -5.750  1.00  0.00     0.211 HD
ENDBRANCH  19  36
BRANCH  12  38
HETATM   38  O   UNL     1     -20.535 -12.961  -3.513  1.00  0.00    -0.387 OA
HETATM   39  H   UNL     1     -19.596 -13.176  -3.655  1.00  0.00     0.210 HD
ENDBRANCH  12  38
BRANCH   8  40
HETATM   40  O   UNL     1     -17.913 -13.431   0.717  1.00  0.00    -0.306 OA
BRANCH  40  41
HETATM   41  C   UNL     1     -17.540 -14.759   0.835  1.00  0.00     0.255 C 
HETATM   42  C   UNL     1     -18.553 -15.634   1.535  1.00  0.00     0.126 C 
HETATM   43  O   UNL     1     -16.534 -15.257   0.344  1.00  0.00    -0.266 OA
ENDBRANCH  40  41
ENDBRANCH   8  40
BRANCH   9  44
HETATM   44  O   UNL     1     -18.344 -13.220  -2.941  1.00  0.00    -0.312 OA
BRANCH  44  45
HETATM   45  C   UNL     1     -17.584 -14.038  -3.696  1.00  0.00     0.263 C 
HETATM   46  O   UNL     1     -16.783 -14.832  -3.226  1.00  0.00    -0.265 OA
BRANCH  45  47
HETATM   47  C   UNL     1     -17.756 -13.772  -5.186  1.00  0.00     0.149 C 
BRANCH  47  48
HETATM   48  C   UNL     1     -17.126 -12.470  -5.567  1.00  0.00    -0.049 A 
HETATM   49  C   UNL     1     -15.731 -12.364  -5.581  1.00  0.00     0.007 A 
HETATM   50  C   UNL     1     -15.128 -11.121  -5.703  1.00  0.00     0.001 A 
HETATM   51  C   UNL     1     -15.920  -9.978  -5.807  1.00  0.00     0.000 A 
HETATM   52  C   UNL     1     -17.313 -10.078  -5.848  1.00  0.00     0.001 A 
HETATM   53  C   UNL     1     -17.916 -11.329  -5.732  1.00  0.00     0.007 A 
ENDBRANCH  47  48
ENDBRANCH  45  47
ENDBRANCH  44  45
ENDBRANCH   9  44
TORSDOF 15
ENDMDL
MODEL 3
REMARK VINA RESULT:      -9.3      1.811      3.455
REMARK  15 active torsions:
REMARK  status: ('A' for Active; 'I' for Inactive)
REMARK    1  A    between atoms: O_2  and  C_3 
REMARK    2  A    between atoms: C_5  and  C_6 
REMARK    3  A    between atoms: C_6  and  C_7 
REMARK    4  A    between atoms: C_7  and  O_9 
REMARK    5  A    between atoms: O_9  and  C_10 
REMARK    6  A    between atoms: C_10  and  C_11 
REMARK    7  A    between atoms: C_18  and  O_19 
REMARK    8  A    between atoms: O_19  and  C_20 
REMARK    9  A    between atoms: C_23  and  O_24 
REMARK   10  A    between atoms: O_24  and  C_25 
REMARK   11  A    between atoms: C_25  and  C_27 
REMARK   12  A    between atoms: C_27  and  C_28 
REMARK   13  A    between atoms: C_36  and  O_37 
REMARK   14  A    between atoms: C_44  and  O_45 
REMARK   15  A    between atoms: C_49  and  O_50 
ROOT
HETATM    1  C   UNL     1     -21.126  -8.750  -5.069  1.00  0.00    -0.050 C 
HETATM    2  C   UNL     1     -20.849 -10.099  -5.639  1.00  0.00    -0.013 C 
HETATM    3  C   UNL     1     -19.939 -11.608  -4.908  1.00  0.00     0.052 C 
HETATM    4  C   UNL     1     -19.576 -13.031  -5.818  1.00  0.00     0.046 A 
HETATM    5  C   UNL     1     -20.463 -14.248  -6.073  1.00  0.00    -0.005 A 
HETATM    6  C   UNL     1     -21.916 -13.877  -6.020  1.00  0.00     0.018 C 
HETATM    7  C   UNL     1     -20.236 -15.298  -7.150  1.00  0.00     0.018 C 
HETATM    8  C   UNL     1     -19.349 -14.337  -4.984  1.00  0.00     0.110 A 
HETATM    9  C   UNL     1     -19.437 -14.103  -3.515  1.00  0.00     0.174 C 
HETATM   10  C   UNL     1     -18.343 -12.964  -3.153  1.00  0.00     0.050 C 
HETATM   11  C   UNL     1     -17.070 -12.777  -4.009  1.00  0.00     0.016 C 
HETATM   12  C   UNL     1     -19.165 -11.705  -3.138  1.00  0.00     0.086 C 
HETATM   13  C   UNL     1     -18.500 -10.145  -2.462  1.00  0.00     0.131 A 
HETATM   14  C   UNL     1     -17.668  -9.451  -3.421  1.00  0.00    -0.000 C 
HETATM   15  C   UNL     1     -18.508  -9.307  -4.428  1.00  0.00    -0.029 C 
HETATM   16  C   UNL     1     -18.020  -9.307  -5.857  1.00  0.00     0.051 C 
HETATM   17  C   UNL     1     -19.887  -9.669  -3.452  1.00  0.00     0.099 A 
HETATM   18  O   UNL     1     -20.928 -10.374  -3.408  1.00  0.00    -0.304 OA
HETATM   19  C   UNL     1     -19.696  -8.990  -2.250  1.00  0.00     0.134 A 
HETATM   20  C   UNL     1     -20.792  -8.180  -3.333  1.00  0.00     0.141 A 
ENDROOT
BRANCH   1  21
HETATM   21  C   UNL     1     -21.623  -7.390  -5.585  1.00  0.00     0.213 C 
BRANCH  21  22
HETATM   22  O   UNL     1     -21.049  -6.750  -6.707  1.00  0.00    -0.317 OA
BRANCH  22  23
HETATM   23  C   UNL     1     -20.532  -5.513  -6.407  1.00  0.00     0.263 C 
HETATM   24  O   UNL     1     -19.579  -5.337  -5.653  1.00  0.00    -0.265 OA
BRANCH  23  25
HETATM   25  C   UNL     1     -21.333  -4.355  -6.987  1.00  0.00     0.149 C 
BRANCH  25  26
HETATM   26  C   UNL     1     -21.443  -4.313  -8.489  1.00  0.00    -0.046 C 
HETATM   27  C   UNL     1     -22.697  -4.143  -9.082  1.00  0.00     0.047 C 
HETATM   28  C   UNL     1     -22.827  -3.918 -10.447  1.00  0.00     0.101 C 
HETATM   29  C   UNL     1     -21.700  -4.046 -11.258  1.00  0.00     0.099 C 
HETATM   30  C   UNL     1     -20.451  -4.342 -10.703  1.00  0.00     0.040 C 
HETATM   31  C   UNL     1     -20.320  -4.458  -9.315  1.00  0.00     0.010 C 
BRANCH  28  32
HETATM   32  O   UNL     1     -24.023  -3.564 -11.014  1.00  0.00    -0.353 OA
HETATM   33  C   UNL     1     -25.061  -3.313 -10.062  1.00  0.00     0.210 C 
ENDBRANCH  28  32
BRANCH  29  34
HETATM   34  O   UNL     1     -21.824  -3.854 -12.606  1.00  0.00    -0.358 OA
HETATM   35  H   UNL     1     -21.263  -4.492 -13.071  1.00  0.00     0.217 HD
ENDBRANCH  29  34
ENDBRANCH  25  26
ENDBRANCH  23  25
ENDBRANCH  22  23
ENDBRANCH  21  22
ENDBRANCH   1  21
BRANCH  19  36
HETATM   36  O   UNL     1     -20.465  -9.428  -1.125  1.00  0.00    -0.381 OA
HETATM   37  H   UNL     1     -21.040 -10.148  -1.485  1.00  0.00     0.211 HD
ENDBRANCH  19  36
BRANCH  12  38
HETATM   38  O   UNL     1     -20.071 -11.965  -1.987  1.00  0.00    -0.387 OA
HETATM   39  H   UNL     1     -19.764 -12.774  -1.539  1.00  0.00     0.210 HD
ENDBRANCH  12  38
BRANCH   8  40
HETATM   40  O   UNL     1     -18.123 -15.153  -5.308  1.00  0.00    -0.306 OA
BRANCH  40  41
HETATM   41  C   UNL     1     -17.940 -16.363  -4.660  1.00  0.00     0.255 C 
HETATM   42  C   UNL     1     -16.539 -16.592  -4.143  1.00  0.00     0.126 C 
HETATM   43  O   UNL     1     -18.826 -17.171  -4.411  1.00  0.00    -0.266 OA
ENDBRANCH  40  41
ENDBRANCH   8  40
BRANCH   9  44
HETATM   44  O   UNL     1     -20.813 -13.730  -3.223  1.00  0.00    -0.312 OA
BRANCH  44  45
HETATM   45  C   UNL     1     -21.637 -14.569  -2.563  1.00  0.00     0.263 C 
HETATM   46  O   UNL     1     -21.257 -15.601  -2.032  1.00  0.00    -0.265 OA
BRANCH  45  47
HETATM   47  C   UNL     1     -23.095 -14.139  -2.661  1.00  0.00     0.149 C 
BRANCH  47  48
HETATM   48  C   UNL     1     -23.421 -13.129  -1.605  1.00  0.00    -0.049 A 
HETATM   49  C   UNL     1     -23.589 -11.789  -1.970  1.00  0.00     0.007 A 
HETATM   50  C   UNL     1     -23.662 -10.806  -0.995  1.00  0.00     0.001 A 
HETATM   51  C   UNL     1     -23.562 -11.161   0.351  1.00  0.00     0.000 A 
HETATM   52  C   UNL     1     -23.447 -12.501   0.727  1.00  0.00     0.001 A 
HETATM   53  C   UNL     1     -23.381 -13.488  -0.255  1.00  0.00     0.007 A 
ENDBRANCH  47  48
ENDBRANCH  45  47
ENDBRANCH  44  45
ENDBRANCH   9  44
TORSDOF 15
ENDMDL
MODEL 4
REMARK VINA RESULT:      -9.2      2.487      4.647
REMARK  15 active torsions:
REMARK  status: ('A' for Active; 'I' for Inactive)
REMARK    1  A    between atoms: O_2  and  C_3 
REMARK    2  A    between atoms: C_5  and  C_6 
REMARK    3  A    between atoms: C_6  and  C_7 
REMARK    4  A    between atoms: C_7  and  O_9 
REMARK    5  A    between atoms: O_9  and  C_10 
REMARK    6  A    between atoms: C_10  and  C_11 
REMARK    7  A    between atoms: C_18  and  O_19 
REMARK    8  A    between atoms: O_19  and  C_20 
REMARK    9  A    between atoms: C_23  and  O_24 
REMARK   10  A    between atoms: O_24  and  C_25 
REMARK   11  A    between atoms: C_25  and  C_27 
REMARK   12  A    between atoms: C_27  and  C_28 
REMARK   13  A    between atoms: C_36  and  O_37 
REMARK   14  A    between atoms: C_44  and  O_45 
REMARK   15  A    between atoms: C_49  and  O_50 
ROOT
HETATM    1  C   UNL     1     -19.555  -8.880  -5.177  1.00  0.00    -0.050 C 
HETATM    2  C   UNL     1     -19.253  -9.987  -6.129  1.00  0.00    -0.013 C 
HETATM    3  C   UNL     1     -18.436 -11.689  -5.856  1.00  0.00     0.052 C 
HETATM    4  C   UNL     1     -18.020 -12.761  -7.145  1.00  0.00     0.046 A 
HETATM    5  C   UNL     1     -18.902 -13.791  -7.846  1.00  0.00    -0.005 A 
HETATM    6  C   UNL     1     -20.348 -13.393  -7.788  1.00  0.00     0.018 C 
HETATM    7  C   UNL     1     -18.601 -14.450  -9.184  1.00  0.00     0.018 C 
HETATM    8  C   UNL     1     -17.889 -14.273  -6.762  1.00  0.00     0.110 A 
HETATM    9  C   UNL     1     -18.099 -14.518  -5.307  1.00  0.00     0.174 C 
HETATM   10  C   UNL     1     -17.022 -13.603  -4.515  1.00  0.00     0.050 C 
HETATM   11  C   UNL     1     -15.677 -13.209  -5.165  1.00  0.00     0.016 C 
HETATM   12  C   UNL     1     -17.820 -12.380  -4.158  1.00  0.00     0.086 C 
HETATM   13  C   UNL     1     -17.189 -11.149  -2.966  1.00  0.00     0.131 A 
HETATM   14  C   UNL     1     -16.265 -10.223  -3.584  1.00  0.00    -0.000 C 
HETATM   15  C   UNL     1     -17.013  -9.727  -4.552  1.00  0.00    -0.029 C 
HETATM   16  C   UNL     1     -16.403  -9.292  -5.863  1.00  0.00     0.051 C 
HETATM   17  C   UNL     1     -18.477 -10.321  -3.854  1.00  0.00     0.099 A 
HETATM   18  O   UNL     1     -19.530 -10.956  -4.118  1.00  0.00    -0.304 OA
HETATM   19  C   UNL     1     -18.379 -10.071  -2.485  1.00  0.00     0.134 A 
HETATM   20  C   UNL     1     -19.363  -8.910  -3.330  1.00  0.00     0.141 A 
ENDROOT
BRANCH   1  21
HETATM   21  C   UNL     1     -19.982  -7.406  -5.263  1.00  0.00     0.213 C 
BRANCH  21  22
HETATM   22  O   UNL     1     -20.557  -6.851  -6.430  1.00  0.00    -0.317 OA
BRANCH  22  23
HETATM   23  C   UNL     1     -21.348  -5.760  -6.166  1.00  0.00     0.263 C 
HETATM   24  O   UNL     1     -22.395  -5.816  -5.525  1.00  0.00    -0.265 OA
BRANCH  23  25
HETATM   25  C   UNL     1     -20.886  -4.483  -6.854  1.00  0.00     0.149 C 
BRANCH  25  26
HETATM   26  C   UNL     1     -21.089  -4.423  -8.345  1.00  0.00    -0.046 C 
HETATM   27  C   UNL     1     -22.348  -4.093  -8.855  1.00  0.00     0.047 C 
HETATM   28  C   UNL     1     -22.538  -3.850 -10.210  1.00  0.00     0.101 C 
HETATM   29  C   UNL     1     -21.492  -4.118 -11.093  1.00  0.00     0.099 C 
HETATM   30  C   UNL     1     -20.258  -4.571 -10.620  1.00  0.00     0.040 C 
HETATM   31  C   UNL     1     -20.051  -4.707  -9.243  1.00  0.00     0.010 C 
BRANCH  28  32
HETATM   32  O   UNL     1     -23.714  -3.345 -10.698  1.00  0.00    -0.353 OA
HETATM   33  C   UNL     1     -24.768  -3.298  -9.732  1.00  0.00     0.210 C 
ENDBRANCH  28  32
BRANCH  29  34
HETATM   34  O   UNL     1     -21.680  -3.908 -12.431  1.00  0.00    -0.358 OA
HETATM   35  H   UNL     1     -20.910  -3.442 -12.791  1.00  0.00     0.217 HD
ENDBRANCH  29  34
ENDBRANCH  25  26
ENDBRANCH  23  25
ENDBRANCH  22  23
ENDBRANCH  21  22
ENDBRANCH   1  21
BRANCH  19  36
HETATM   36  O   UNL     1     -19.250 -10.812  -1.624  1.00  0.00    -0.381 OA
HETATM   37  H   UNL     1     -19.554 -11.574  -2.177  1.00  0.00     0.211 HD
ENDBRANCH  19  36
BRANCH  12  38
HETATM   38  O   UNL     1     -18.827 -12.955  -3.225  1.00  0.00    -0.387 OA
HETATM   39  H   UNL     1     -19.419 -13.533  -3.739  1.00  0.00     0.210 HD
ENDBRANCH  12  38
BRANCH   8  40
HETATM   40  O   UNL     1     -16.653 -14.996  -7.237  1.00  0.00    -0.306 OA
BRANCH  40  41
HETATM   41  C   UNL     1     -16.556 -16.359  -7.019  1.00  0.00     0.255 C 
HETATM   42  C   UNL     1     -15.319 -16.788  -6.266  1.00  0.00     0.126 C 
HETATM   43  O   UNL     1     -17.419 -17.183  -7.301  1.00  0.00    -0.266 OA
ENDBRANCH  40  41
ENDBRANCH   8  40
BRANCH   9  44
HETATM   44  O   UNL     1     -19.489 -14.197  -5.017  1.00  0.00    -0.312 OA
BRANCH  44  45
HETATM   45  C   UNL     1     -20.354 -15.150  -4.614  1.00  0.00     0.263 C 
HETATM   46  O   UNL     1     -20.001 -16.209  -4.118  1.00  0.00    -0.265 OA
BRANCH  45  47
HETATM   47  C   UNL     1     -21.796 -14.800  -4.958  1.00  0.00     0.149 C 
BRANCH  47  48
HETATM   48  C   UNL     1     -22.264 -13.630  -4.152  1.00  0.00    -0.049 A 
HETATM   49  C   UNL     1     -22.539 -12.421  -4.800  1.00  0.00     0.007 A 
HETATM   50  C   UNL     1     -22.749 -11.266  -4.060  1.00  0.00     0.001 A 
HETATM   51  C   UNL     1     -22.678 -11.317  -2.668  1.00  0.00     0.000 A 
HETATM   52  C   UNL     1     -22.457 -12.530  -2.011  1.00  0.00     0.001 A 
HETATM   53  C   UNL     1     -22.253 -13.690  -2.756  1.00  0.00     0.007 A 
ENDBRANCH  47  48
ENDBRANCH  45  47
ENDBRANCH  44  45
ENDBRANCH   9  44
TORSDOF 15
ENDMDL
MODEL 5
REMARK VINA RESULT:      -8.6      4.287      8.849
REMARK  15 active torsions:
REMARK  status: ('A' for Active; 'I' for Inactive)
REMARK    1  A    between atoms: O_2  and  C_3 
REMARK    2  A    between atoms: C_5  and  C_6 
REMARK    3  A    between atoms: C_6  and  C_7 
REMARK    4  A    between atoms: C_7  and  O_9 
REMARK    5  A    between atoms: O_9  and  C_10 
REMARK    6  A    between atoms: C_10  and  C_11 
REMARK    7  A    between atoms: C_18  and  O_19 
REMARK    8  A    between atoms: O_19  and  C_20 
REMARK    9  A    between atoms: C_23  and  O_24 
REMARK   10  A    between atoms: O_24  and  C_25 
REMARK   11  A    between atoms: C_25  and  C_27 
REMARK   12  A    between atoms: C_27  and  C_28 
REMARK   13  A    between atoms: C_36  and  O_37 
REMARK   14  A    between atoms: C_44  and  O_45 
REMARK   15  A    between atoms: C_49  and  O_50 
ROOT
HETATM    1  C   UNL     1     -16.650 -13.099  -4.490  1.00  0.00    -0.050 C 
HETATM    2  C   UNL     1     -17.272 -12.542  -3.255  1.00  0.00    -0.013 C 
HETATM    3  C   UNL     1     -18.684 -11.280  -3.020  1.00  0.00     0.052 C 
HETATM    4  C   UNL     1     -19.136 -10.636  -1.482  1.00  0.00     0.046 A 
HETATM    5  C   UNL     1     -20.090 -11.228  -0.448  1.00  0.00    -0.005 A 
HETATM    6  C   UNL     1     -20.139 -12.724  -0.553  1.00  0.00     0.018 C 
HETATM    7  C   UNL     1     -20.183 -10.809   1.012  1.00  0.00     0.018 C 
HETATM    8  C   UNL     1     -20.596 -10.081  -1.376  1.00  0.00     0.110 A 
HETATM    9  C   UNL     1     -21.337 -10.161  -2.667  1.00  0.00     0.174 C 
HETATM   10  C   UNL     1     -20.465  -9.346  -3.762  1.00  0.00     0.050 C 
HETATM   11  C   UNL     1     -19.535  -8.185  -3.341  1.00  0.00     0.016 C 
HETATM   12  C   UNL     1     -19.683 -10.434  -4.444  1.00  0.00     0.086 C 
HETATM   13  C   UNL     1     -18.771 -10.120  -5.994  1.00  0.00     0.131 A 
HETATM   14  C   UNL     1     -17.482  -9.509  -5.749  1.00  0.00    -0.000 C 
HETATM   15  C   UNL     1     -16.928 -10.399  -4.948  1.00  0.00    -0.029 C 
HETATM   16  C   UNL     1     -15.952  -9.983  -3.875  1.00  0.00     0.051 C 
HETATM   17  C   UNL     1     -18.087 -11.617  -5.347  1.00  0.00     0.099 A 
HETATM   18  O   UNL     1     -18.866 -12.466  -4.841  1.00  0.00    -0.304 OA
HETATM   19  C   UNL     1     -18.267 -11.540  -6.727  1.00  0.00     0.134 A 
HETATM   20  C   UNL     1     -17.211 -12.836  -6.241  1.00  0.00     0.141 A 
ENDROOT
BRANCH   1  21
HETATM   21  C   UNL     1     -15.400 -13.916  -4.850  1.00  0.00     0.213 C 
BRANCH  21  22
HETATM   22  O   UNL     1     -15.155 -15.202  -4.316  1.00  0.00    -0.317 OA
BRANCH  22  23
HETATM   23  C   UNL     1     -14.073 -15.230  -3.471  1.00  0.00     0.263 C 
HETATM   24  O   UNL     1     -12.918 -15.024  -3.836  1.00  0.00    -0.265 OA
BRANCH  23  25
HETATM   25  C   UNL     1     -14.409 -15.675  -2.054  1.00  0.00     0.149 C 
BRANCH  25  26
HETATM   26  C   UNL     1     -15.111 -14.660  -1.190  1.00  0.00    -0.046 C 
HETATM   27  C   UNL     1     -16.251 -15.035  -0.476  1.00  0.00     0.047 C 
HETATM   28  C   UNL     1     -16.823 -14.191   0.468  1.00  0.00     0.101 C 
HETATM   29  C   UNL     1     -16.355 -12.882   0.569  1.00  0.00     0.099 C 
HETATM   30  C   UNL     1     -15.294 -12.440  -0.226  1.00  0.00     0.040 C 
HETATM   31  C   UNL     1     -14.659 -13.336  -1.094  1.00  0.00     0.010 C 
BRANCH  28  32
HETATM   32  O   UNL     1     -17.822 -14.612   1.307  1.00  0.00    -0.353 OA
HETATM   33  C   UNL     1     -17.424 -15.654   2.201  1.00  0.00     0.210 C 
ENDBRANCH  28  32
BRANCH  29  34
HETATM   34  O   UNL     1     -16.931 -12.037   1.476  1.00  0.00    -0.358 OA
HETATM   35  H   UNL     1     -16.309 -11.324   1.686  1.00  0.00     0.217 HD
ENDBRANCH  29  34
ENDBRANCH  25  26
ENDBRANCH  23  25
ENDBRANCH  22  23
ENDBRANCH  21  22
ENDBRANCH   1  21
BRANCH  19  36
HETATM   36  O   UNL     1     -19.450 -12.142  -7.265  1.00  0.00    -0.381 OA
HETATM   37  H   UNL     1     -20.019 -11.375  -7.525  1.00  0.00     0.211 HD
ENDBRANCH  19  36
BRANCH  12  38
HETATM   38  O   UNL     1     -20.775 -11.208  -5.095  1.00  0.00    -0.387 OA
HETATM   39  H   UNL     1     -20.892 -12.039  -4.599  1.00  0.00     0.210 HD
ENDBRANCH  12  38
BRANCH   8  40
HETATM   40  O   UNL     1     -20.767  -8.713  -0.763  1.00  0.00    -0.306 OA
BRANCH  40  41
HETATM   41  C   UNL     1     -22.049  -8.234  -0.556  1.00  0.00     0.255 C 
HETATM   42  C   UNL     1     -22.325  -6.889  -1.185  1.00  0.00     0.126 C 
HETATM   43  O   UNL     1     -22.953  -8.850  -0.004  1.00  0.00    -0.266 OA
ENDBRANCH  40  41
ENDBRANCH   8  40
BRANCH   9  44
HETATM   44  O   UNL     1     -21.515 -11.573  -2.971  1.00  0.00    -0.312 OA
BRANCH  44  45
HETATM   45  C   UNL     1     -22.746 -12.105  -3.112  1.00  0.00     0.263 C 
HETATM   46  O   UNL     1     -23.063 -12.821  -4.049  1.00  0.00    -0.265 OA
BRANCH  45  47
HETATM   47  C   UNL     1     -23.712 -11.614  -2.041  1.00  0.00     0.149 C 
BRANCH  47  48
HETATM   48  C   UNL     1     -23.784 -12.588  -0.907  1.00  0.00    -0.049 A 
HETATM   49  C   UNL     1     -23.521 -12.143   0.393  1.00  0.00     0.007 A 
HETATM   50  C   UNL     1     -23.355 -13.058   1.422  1.00  0.00     0.001 A 
HETATM   51  C   UNL     1     -23.447 -14.424   1.152  1.00  0.00     0.000 A 
HETATM   52  C   UNL     1     -23.761 -14.875  -0.132  1.00  0.00     0.001 A 
HETATM   53  C   UNL     1     -23.934 -13.953  -1.163  1.00  0.00     0.007 A 
ENDBRANCH  47  48
ENDBRANCH  45  47
ENDBRANCH  44  45
ENDBRANCH   9  44
TORSDOF 15
ENDMDL
MODEL 6
REMARK VINA RESULT:      -8.5      3.792      7.854
REMARK  15 active torsions:
REMARK  status: ('A' for Active; 'I' for Inactive)
REMARK    1  A    between atoms: O_2  and  C_3 
REMARK    2  A    between atoms: C_5  and  C_6 
REMARK    3  A    between atoms: C_6  and  C_7 
REMARK    4  A    between atoms: C_7  and  O_9 
REMARK    5  A    between atoms: O_9  and  C_10 
REMARK    6  A    between atoms: C_10  and  C_11 
REMARK    7  A    between atoms: C_18  and  O_19 
REMARK    8  A    between atoms: O_19  and  C_20 
REMARK    9  A    between atoms: C_23  and  O_24 
REMARK   10  A    between atoms: O_24  and  C_25 
REMARK   11  A    between atoms: C_25  and  C_27 
REMARK   12  A    between atoms: C_27  and  C_28 
REMARK   13  A    between atoms: C_36  and  O_37 
REMARK   14  A    between atoms: C_44  and  O_45 
REMARK   15  A    between atoms: C_49  and  O_50 
ROOT
HETATM    1  C   UNL     1     -21.777 -13.766  -3.576  1.00  0.00    -0.050 C 
HETATM    2  C   UNL     1     -20.357 -13.927  -3.154  1.00  0.00    -0.013 C 
HETATM    3  C   UNL     1     -18.725 -13.637  -4.099  1.00  0.00     0.052 C 
HETATM    4  C   UNL     1     -17.173 -14.057  -3.466  1.00  0.00     0.046 A 
HETATM    5  C   UNL     1     -16.269 -13.241  -2.546  1.00  0.00    -0.005 A 
HETATM    6  C   UNL     1     -17.073 -12.302  -1.694  1.00  0.00     0.018 C 
HETATM    7  C   UNL     1     -15.095 -13.786  -1.747  1.00  0.00     0.018 C 
HETATM    8  C   UNL     1     -15.955 -13.283  -4.073  1.00  0.00     0.110 A 
HETATM    9  C   UNL     1     -16.355 -12.336  -5.152  1.00  0.00     0.174 C 
HETATM   10  C   UNL     1     -17.133 -13.205  -6.276  1.00  0.00     0.050 C 
HETATM   11  C   UNL     1     -16.830 -14.706  -6.479  1.00  0.00     0.016 C 
HETATM   12  C   UNL     1     -18.579 -12.998  -5.918  1.00  0.00     0.086 C 
HETATM   13  C   UNL     1     -19.920 -13.488  -7.056  1.00  0.00     0.131 A 
HETATM   14  C   UNL     1     -20.220 -14.900  -6.961  1.00  0.00    -0.000 C 
HETATM   15  C   UNL     1     -20.511 -15.011  -5.679  1.00  0.00    -0.029 C 
HETATM   16  C   UNL     1     -20.213 -16.281  -4.918  1.00  0.00     0.051 C 
HETATM   17  C   UNL     1     -20.694 -13.305  -5.476  1.00  0.00     0.099 A 
HETATM   18  O   UNL     1     -20.353 -12.339  -4.746  1.00  0.00    -0.304 OA
HETATM   19  C   UNL     1     -21.402 -12.859  -6.591  1.00  0.00     0.134 A 
HETATM   20  C   UNL     1     -22.393 -13.040  -5.171  1.00  0.00     0.141 A 
ENDROOT
BRANCH   1  21
HETATM   21  C   UNL     1     -23.163 -14.159  -3.041  1.00  0.00     0.213 C 
BRANCH  21  22
HETATM   22  O   UNL     1     -23.330 -14.939  -1.873  1.00  0.00    -0.317 OA
BRANCH  22  23
HETATM   23  C   UNL     1     -23.831 -14.215  -0.819  1.00  0.00     0.263 C 
HETATM   24  O   UNL     1     -24.150 -14.712   0.259  1.00  0.00    -0.265 OA
BRANCH  23  25
HETATM   25  C   UNL     1     -24.088 -12.750  -1.144  1.00  0.00     0.149 C 
BRANCH  25  26
HETATM   26  C   UNL     1     -23.134 -11.759  -0.531  1.00  0.00    -0.046 C 
HETATM   27  C   UNL     1     -23.487 -10.408  -0.475  1.00  0.00     0.047 C 
HETATM   28  C   UNL     1     -22.725  -9.491   0.238  1.00  0.00     0.101 C 
HETATM   29  C   UNL     1     -21.495  -9.896   0.754  1.00  0.00     0.099 C 
HETATM   30  C   UNL     1     -21.058 -11.215   0.603  1.00  0.00     0.040 C 
HETATM   31  C   UNL     1     -21.887 -12.152  -0.024  1.00  0.00     0.010 C 
BRANCH  28  32
HETATM   32  O   UNL     1     -23.153  -8.207   0.459  1.00  0.00    -0.353 OA
HETATM   33  C   UNL     1     -22.628  -7.256  -0.471  1.00  0.00     0.210 C 
ENDBRANCH  28  32
BRANCH  29  34
HETATM   34  O   UNL     1     -20.727  -8.992   1.433  1.00  0.00    -0.358 OA
HETATM   35  H   UNL     1     -19.802  -9.090   1.158  1.00  0.00     0.217 HD
ENDBRANCH  29  34
ENDBRANCH  25  26
ENDBRANCH  23  25
ENDBRANCH  22  23
ENDBRANCH  21  22
ENDBRANCH   1  21
BRANCH  19  36
HETATM   36  O   UNL     1     -21.341 -11.459  -6.885  1.00  0.00    -0.381 OA
HETATM   37  H   UNL     1     -20.844 -11.069  -6.123  1.00  0.00     0.211 HD
ENDBRANCH  19  36
BRANCH  12  38
HETATM   38  O   UNL     1     -18.731 -11.538  -6.166  1.00  0.00    -0.387 OA
HETATM   39  H   UNL     1     -18.780 -11.089  -5.303  1.00  0.00     0.210 HD
ENDBRANCH  12  38
BRANCH   8  40
HETATM   40  O   UNL     1     -14.772 -14.107  -4.518  1.00  0.00    -0.306 OA
BRANCH  40  41
HETATM   41  C   UNL     1     -13.616 -13.453  -4.907  1.00  0.00     0.255 C 
HETATM   42  C   UNL     1     -13.191 -13.726  -6.331  1.00  0.00     0.126 C 
HETATM   43  O   UNL     1     -13.006 -12.633  -4.231  1.00  0.00    -0.266 OA
ENDBRANCH  40  41
ENDBRANCH   8  40
BRANCH   9  44
HETATM   44  O   UNL     1     -17.162 -11.296  -4.531  1.00  0.00    -0.312 OA
BRANCH  44  45
HETATM   45  C   UNL     1     -16.661 -10.065  -4.310  1.00  0.00     0.263 C 
HETATM   46  O   UNL     1     -15.621  -9.664  -4.812  1.00  0.00    -0.265 OA
BRANCH  45  47
HETATM   47  C   UNL     1     -17.473  -9.288  -3.281  1.00  0.00     0.149 C 
BRANCH  47  48
HETATM   48  C   UNL     1     -18.923  -9.279  -3.649  1.00  0.00    -0.049 A 
HETATM   49  C   UNL     1     -19.330  -8.610  -4.808  1.00  0.00     0.007 A 
HETATM   50  C   UNL     1     -20.677  -8.390  -5.050  1.00  0.00     0.001 A 
HETATM   51  C   UNL     1     -21.624  -8.835  -4.127  1.00  0.00     0.000 A 
HETATM   52  C   UNL     1     -21.232  -9.551  -2.994  1.00  0.00     0.001 A 
HETATM   53  C   UNL     1     -19.877  -9.776  -2.757  1.00  0.00     0.007 A 
ENDBRANCH  47  48
ENDBRANCH  45  47
ENDBRANCH  44  45
ENDBRANCH   9  44
TORSDOF 15
ENDMDL
MODEL 7
REMARK VINA RESULT:      -8.5      3.725      7.345
REMARK  15 active torsions:
REMARK  status: ('A' for Active; 'I' for Inactive)
REMARK    1  A    between atoms: O_2  and  C_3 
REMARK    2  A    between atoms: C_5  and  C_6 
REMARK    3  A    between atoms: C_6  and  C_7 
REMARK    4  A    between atoms: C_7  and  O_9 
REMARK    5  A    between atoms: O_9  and  C_10 
REMARK    6  A    between atoms: C_10  and  C_11 
REMARK    7  A    between atoms: C_18  and  O_19 
REMARK    8  A    between atoms: O_19  and  C_20 
REMARK    9  A    between atoms: C_23  and  O_24 
REMARK   10  A    between atoms: O_24  and  C_25 
REMARK   11  A    between atoms: C_25  and  C_27 
REMARK   12  A    between atoms: C_27  and  C_28 
REMARK   13  A    between atoms: C_36  and  O_37 
REMARK   14  A    between atoms: C_44  and  O_45 
REMARK   15  A    between atoms: C_49  and  O_50 
ROOT
HETATM    1  C   UNL     1     -20.636 -13.045  -4.005  1.00  0.00    -0.050 C 
HETATM    2  C   UNL     1     -19.561 -14.058  -3.806  1.00  0.00    -0.013 C 
HETATM    3  C   UNL     1     -17.996 -14.446  -4.825  1.00  0.00     0.052 C 
HETATM    4  C   UNL     1     -16.964 -15.794  -4.506  1.00  0.00     0.046 A 
HETATM    5  C   UNL     1     -15.806 -15.892  -3.516  1.00  0.00    -0.005 A 
HETATM    6  C   UNL     1     -16.001 -14.950  -2.364  1.00  0.00     0.018 C 
HETATM    7  C   UNL     1     -15.166 -17.183  -3.028  1.00  0.00     0.018 C 
HETATM    8  C   UNL     1     -15.494 -15.669  -5.028  1.00  0.00     0.110 A 
HETATM    9  C   UNL     1     -15.254 -14.399  -5.772  1.00  0.00     0.174 C 
HETATM   10  C   UNL     1     -16.326 -14.354  -6.985  1.00  0.00     0.050 C 
HETATM   11  C   UNL     1     -16.889 -15.653  -7.603  1.00  0.00     0.016 C 
HETATM   12  C   UNL     1     -17.434 -13.509  -6.421  1.00  0.00     0.086 C 
HETATM   13  C   UNL     1     -18.766 -12.856  -7.484  1.00  0.00     0.131 A 
HETATM   14  C   UNL     1     -19.798 -13.841  -7.724  1.00  0.00    -0.000 C 
HETATM   15  C   UNL     1     -20.164 -14.130  -6.490  1.00  0.00    -0.029 C 
HETATM   16  C   UNL     1     -20.651 -15.511  -6.125  1.00  0.00     0.051 C 
HETATM   17  C   UNL     1     -19.387 -12.734  -5.832  1.00  0.00     0.099 A 
HETATM   18  O   UNL     1     -18.607 -12.355  -4.922  1.00  0.00    -0.304 OA
HETATM   19  C   UNL     1     -19.679 -11.686  -6.704  1.00  0.00     0.134 A 
HETATM   20  C   UNL     1     -20.672 -11.690  -5.276  1.00  0.00     0.141 A 
ENDROOT
BRANCH   1  21
HETATM   21  C   UNL     1     -22.034 -12.759  -3.435  1.00  0.00     0.213 C 
BRANCH  21  22
HETATM   22  O   UNL     1     -22.378 -13.046  -2.094  1.00  0.00    -0.317 OA
BRANCH  22  23
HETATM   23  C   UNL     1     -22.805 -11.938  -1.405  1.00  0.00     0.263 C 
HETATM   24  O   UNL     1     -23.980 -11.581  -1.348  1.00  0.00    -0.265 OA
BRANCH  23  25
HETATM   25  C   UNL     1     -21.675 -11.101  -0.821  1.00  0.00     0.149 C 
BRANCH  25  26
HETATM   26  C   UNL     1     -21.787  -9.611  -1.013  1.00  0.00    -0.046 C 
HETATM   27  C   UNL     1     -21.444  -9.048  -2.245  1.00  0.00     0.047 C 
HETATM   28  C   UNL     1     -21.702  -7.712  -2.526  1.00  0.00     0.101 C 
HETATM   29  C   UNL     1     -22.143  -6.882  -1.496  1.00  0.00     0.099 C 
HETATM   30  C   UNL     1     -22.374  -7.395  -0.216  1.00  0.00     0.040 C 
HETATM   31  C   UNL     1     -22.212  -8.764   0.020  1.00  0.00     0.010 C 
BRANCH  28  32
HETATM   32  O   UNL     1     -21.547  -7.192  -3.785  1.00  0.00    -0.353 OA
HETATM   33  C   UNL     1     -20.550  -7.857  -4.565  1.00  0.00     0.210 C 
ENDBRANCH  28  32
BRANCH  29  34
HETATM   34  O   UNL     1     -22.372  -5.560  -1.758  1.00  0.00    -0.358 OA
HETATM   35  H   UNL     1     -21.607  -5.192  -2.226  1.00  0.00     0.217 HD
ENDBRANCH  29  34
ENDBRANCH  25  26
ENDBRANCH  23  25
ENDBRANCH  22  23
ENDBRANCH  21  22
ENDBRANCH   1  21
BRANCH  19  36
HETATM   36  O   UNL     1     -18.843 -10.525  -6.630  1.00  0.00    -0.381 OA
HETATM   37  H   UNL     1     -17.924 -10.876  -6.746  1.00  0.00     0.211 HD
ENDBRANCH  19  36
BRANCH  12  38
HETATM   38  O   UNL     1     -16.745 -12.199  -6.263  1.00  0.00    -0.387 OA
HETATM   39  H   UNL     1     -17.093 -11.592  -6.941  1.00  0.00     0.210 HD
ENDBRANCH  12  38
BRANCH   8  40
HETATM   40  O   UNL     1     -14.940 -16.838  -5.805  1.00  0.00    -0.306 OA
BRANCH  40  41
HETATM   41  C   UNL     1     -13.659 -16.744  -6.322  1.00  0.00     0.255 C 
HETATM   42  C   UNL     1     -12.564 -16.701  -5.281  1.00  0.00     0.126 C 
HETATM   43  O   UNL     1     -13.373 -16.791  -7.512  1.00  0.00    -0.266 OA
ENDBRANCH  40  41
ENDBRANCH   8  40
BRANCH   9  44
HETATM   44  O   UNL     1     -15.384 -13.312  -4.813  1.00  0.00    -0.312 OA
BRANCH  44  45
HETATM   45  C   UNL     1     -14.367 -12.456  -4.589  1.00  0.00     0.263 C 
HETATM   46  O   UNL     1     -13.511 -12.199  -5.422  1.00  0.00    -0.265 OA
BRANCH  45  47
HETATM   47  C   UNL     1     -14.349 -11.946  -3.153  1.00  0.00     0.149 C 
BRANCH  47  48
HETATM   48  C   UNL     1     -15.595 -11.174  -2.850  1.00  0.00    -0.049 A 
HETATM   49  C   UNL     1     -16.491 -11.671  -1.897  1.00  0.00     0.007 A 
HETATM   50  C   UNL     1     -17.749 -11.104  -1.763  1.00  0.00     0.001 A 
HETATM   51  C   UNL     1     -18.118 -10.041  -2.587  1.00  0.00     0.000 A 
HETATM   52  C   UNL     1     -17.212  -9.504  -3.505  1.00  0.00     0.001 A 
HETATM   53  C   UNL     1     -15.945 -10.071  -3.633  1.00  0.00     0.007 A 
ENDBRANCH  47  48
ENDBRANCH  45  47
ENDBRANCH  44  45
ENDBRANCH   9  44
TORSDOF 15
ENDMDL
MODEL 8
REMARK VINA RESULT:      -8.5      2.112      3.072
REMARK  15 active torsions:
REMARK  status: ('A' for Active; 'I' for Inactive)
REMARK    1  A    between atoms: O_2  and  C_3 
REMARK    2  A    between atoms: C_5  and  C_6 
REMARK    3  A    between atoms: C_6  and  C_7 
REMARK    4  A    between atoms: C_7  and  O_9 
REMARK    5  A    between atoms: O_9  and  C_10 
REMARK    6  A    between atoms: C_10  and  C_11 
REMARK    7  A    between atoms: C_18  and  O_19 
REMARK    8  A    between atoms: O_19  and  C_20 
REMARK    9  A    between atoms: C_23  and  O_24 
REMARK   10  A    between atoms: O_24  and  C_25 
REMARK   11  A    between atoms: C_25  and  C_27 
REMARK   12  A    between atoms: C_27  and  C_28 
REMARK   13  A    between atoms: C_36  and  O_37 
REMARK   14  A    between atoms: C_44  and  O_45 
REMARK   15  A    between atoms: C_49  and  O_50 
ROOT
HETATM    1  C   UNL     1     -20.032  -8.436  -4.995  1.00  0.00    -0.050 C 
HETATM    2  C   UNL     1     -21.091  -9.017  -4.122  1.00  0.00    -0.013 C 
HETATM    3  C   UNL     1     -21.275 -10.756  -3.357  1.00  0.00     0.052 C 
HETATM    4  C   UNL     1     -22.686 -11.276  -2.508  1.00  0.00     0.046 A 
HETATM    5  C   UNL     1     -23.037 -11.076  -1.036  1.00  0.00    -0.005 A 
HETATM    6  C   UNL     1     -22.380  -9.843  -0.487  1.00  0.00     0.018 C 
HETATM    7  C   UNL     1     -24.421 -11.239  -0.426  1.00  0.00     0.018 C 
HETATM    8  C   UNL     1     -22.482 -12.457  -1.501  1.00  0.00     0.110 A 
HETATM    9  C   UNL     1     -21.082 -12.970  -1.493  1.00  0.00     0.174 C 
HETATM   10  C   UNL     1     -20.734 -13.411  -3.012  1.00  0.00     0.050 C 
HETATM   11  C   UNL     1     -21.842 -13.867  -3.987  1.00  0.00     0.016 C 
HETATM   12  C   UNL     1     -20.012 -12.207  -3.552  1.00  0.00     0.086 C 
HETATM   13  C   UNL     1     -19.099 -12.277  -5.132  1.00  0.00     0.131 A 
HETATM   14  C   UNL     1     -19.977 -12.116  -6.271  1.00  0.00    -0.000 C 
HETATM   15  C   UNL     1     -20.531 -10.950  -6.000  1.00  0.00    -0.029 C 
HETATM   16  C   UNL     1     -21.947 -10.642  -6.425  1.00  0.00     0.051 C 
HETATM   17  C   UNL     1     -19.343 -10.554  -4.810  1.00  0.00     0.099 A 
HETATM   18  O   UNL     1     -19.202 -10.136  -3.632  1.00  0.00    -0.304 OA
HETATM   19  C   UNL     1     -18.116 -10.937  -5.350  1.00  0.00     0.134 A 
HETATM   20  C   UNL     1     -18.422  -9.228  -5.477  1.00  0.00     0.141 A 
ENDROOT
BRANCH   1  21
HETATM   21  C   UNL     1     -19.849  -7.178  -5.857  1.00  0.00     0.213 C 
BRANCH  21  22
HETATM   22  O   UNL     1     -20.131  -5.880  -5.373  1.00  0.00    -0.317 OA
BRANCH  22  23
HETATM   23  C   UNL     1     -20.696  -5.068  -6.325  1.00  0.00     0.263 C 
HETATM   24  O   UNL     1     -20.856  -3.858  -6.182  1.00  0.00    -0.265 OA
BRANCH  23  25
HETATM   25  C   UNL     1     -21.235  -5.820  -7.535  1.00  0.00     0.149 C 
BRANCH  25  26
HETATM   26  C   UNL     1     -21.315  -5.037  -8.820  1.00  0.00    -0.046 C 
HETATM   27  C   UNL     1     -22.550  -4.541  -9.247  1.00  0.00     0.047 C 
HETATM   28  C   UNL     1     -22.644  -3.666 -10.322  1.00  0.00     0.101 C 
HETATM   29  C   UNL     1     -21.507  -3.424 -11.093  1.00  0.00     0.099 C 
HETATM   30  C   UNL     1     -20.282  -4.010 -10.760  1.00  0.00     0.040 C 
HETATM   31  C   UNL     1     -20.183  -4.803  -9.612  1.00  0.00     0.010 C 
BRANCH  28  32
HETATM   32  O   UNL     1     -23.814  -3.026 -10.636  1.00  0.00    -0.353 OA
HETATM   33  C   UNL     1     -24.928  -3.433  -9.836  1.00  0.00     0.210 C 
ENDBRANCH  28  32
BRANCH  29  34
HETATM   34  O   UNL     1     -21.598  -2.586 -12.169  1.00  0.00    -0.358 OA
HETATM   35  H   UNL     1     -22.431  -2.756 -12.634  1.00  0.00     0.217 HD
ENDBRANCH  29  34
ENDBRANCH  25  26
ENDBRANCH  23  25
ENDBRANCH  22  23
ENDBRANCH  21  22
ENDBRANCH   1  21
BRANCH  19  36
HETATM   36  O   UNL     1     -17.025 -11.101  -4.438  1.00  0.00    -0.381 OA
HETATM   37  H   UNL     1     -16.899 -12.081  -4.378  1.00  0.00     0.211 HD
ENDBRANCH  19  36
BRANCH  12  38
HETATM   38  O   UNL     1     -18.791 -12.198  -2.701  1.00  0.00    -0.387 OA
HETATM   39  H   UNL     1     -18.360 -11.330  -2.802  1.00  0.00     0.210 HD
ENDBRANCH  12  38
BRANCH   8  40
HETATM   40  O   UNL     1     -23.455 -13.606  -1.585  1.00  0.00    -0.306 OA
BRANCH  40  41
HETATM   41  C   UNL     1     -23.391 -14.603  -0.627  1.00  0.00     0.255 C 
HETATM   42  C   UNL     1     -23.233 -15.999  -1.184  1.00  0.00     0.126 C 
HETATM   43  O   UNL     1     -23.357 -14.418   0.584  1.00  0.00    -0.266 OA
ENDBRANCH  40  41
ENDBRANCH   8  40
BRANCH   9  44
HETATM   44  O   UNL     1     -20.240 -11.906  -0.967  1.00  0.00    -0.312 OA
BRANCH  44  45
HETATM   45  C   UNL     1     -19.640 -12.022   0.234  1.00  0.00     0.263 C 
HETATM   46  O   UNL     1     -19.666 -11.145   1.084  1.00  0.00    -0.265 OA
BRANCH  45  47
HETATM   47  C   UNL     1     -18.838 -13.312   0.355  1.00  0.00     0.149 C 
BRANCH  47  48
HETATM   48  C   UNL     1     -17.427 -13.022   0.758  1.00  0.00    -0.049 A 
HETATM   49  C   UNL     1     -16.658 -12.152  -0.023  1.00  0.00     0.007 A 
HETATM   50  C   UNL     1     -15.293 -12.045   0.192  1.00  0.00     0.001 A 
HETATM   51  C   UNL     1     -14.689 -12.813   1.188  1.00  0.00     0.000 A 
HETATM   52  C   UNL     1     -15.456 -13.644   2.008  1.00  0.00     0.001 A 
HETATM   53  C   UNL     1     -16.830 -13.745   1.794  1.00  0.00     0.007 A 
ENDBRANCH  47  48
ENDBRANCH  45  47
ENDBRANCH  44  45
ENDBRANCH   9  44
TORSDOF 15
ENDMDL
MODEL 9
REMARK VINA RESULT:      -8.4      2.675      6.723
REMARK  15 active torsions:
REMARK  status: ('A' for Active; 'I' for Inactive)
REMARK    1  A    between atoms: O_2  and  C_3 
REMARK    2  A    between atoms: C_5  and  C_6 
REMARK    3  A    between atoms: C_6  and  C_7 
REMARK    4  A    between atoms: C_7  and  O_9 
REMARK    5  A    between atoms: O_9  and  C_10 
REMARK    6  A    between atoms: C_10  and  C_11 
REMARK    7  A    between atoms: C_18  and  O_19 
REMARK    8  A    between atoms: O_19  and  C_20 
REMARK    9  A    between atoms: C_23  and  O_24 
REMARK   10  A    between atoms: O_24  and  C_25 
REMARK   11  A    between atoms: C_25  and  C_27 
REMARK   12  A    between atoms: C_27  and  C_28 
REMARK   13  A    between atoms: C_36  and  O_37 
REMARK   14  A    between atoms: C_44  and  O_45 
REMARK   15  A    between atoms: C_49  and  O_50 
ROOT
HETATM    1  C   UNL     1     -20.937 -11.309  -1.608  1.00  0.00    -0.050 C 
HETATM    2  C   UNL     1     -19.642 -10.915  -2.231  1.00  0.00    -0.013 C 
HETATM    3  C   UNL     1     -18.226 -11.968  -2.957  1.00  0.00     0.052 C 
HETATM    4  C   UNL     1     -16.719 -11.303  -3.479  1.00  0.00     0.046 A 
HETATM    5  C   UNL     1     -16.367 -10.696  -4.834  1.00  0.00    -0.005 A 
HETATM    6  C   UNL     1     -17.583 -10.121  -5.500  1.00  0.00     0.018 C 
HETATM    7  C   UNL     1     -15.157  -9.821  -5.124  1.00  0.00     0.018 C 
HETATM    8  C   UNL     1     -15.919 -12.156  -4.519  1.00  0.00     0.110 A 
HETATM    9  C   UNL     1     -16.591 -13.447  -4.843  1.00  0.00     0.174 C 
HETATM   10  C   UNL     1     -16.788 -14.239  -3.444  1.00  0.00     0.050 C 
HETATM   11  C   UNL     1     -15.831 -14.010  -2.254  1.00  0.00     0.016 C 
HETATM   12  C   UNL     1     -18.202 -13.899  -3.064  1.00  0.00     0.086 C 
HETATM   13  C   UNL     1     -19.067 -14.792  -1.726  1.00  0.00     0.131 A 
HETATM   14  C   UNL     1     -18.716 -14.280  -0.419  1.00  0.00    -0.000 C 
HETATM   15  C   UNL     1     -19.051 -13.010  -0.547  1.00  0.00    -0.029 C 
HETATM   16  C   UNL     1     -18.295 -11.927   0.185  1.00  0.00     0.051 C 
HETATM   17  C   UNL     1     -19.992 -13.302  -1.966  1.00  0.00     0.099 A 
HETATM   18  O   UNL     1     -20.189 -12.899  -3.140  1.00  0.00    -0.304 OA
HETATM   19  C   UNL     1     -20.712 -14.470  -1.715  1.00  0.00     0.134 A 
HETATM   20  C   UNL     1     -21.652 -13.020  -1.504  1.00  0.00     0.141 A 
ENDROOT
BRANCH   1  21
HETATM   21  C   UNL     1     -22.048 -10.628  -0.793  1.00  0.00     0.213 C 
BRANCH  21  22
HETATM   22  O   UNL     1     -22.586  -9.370  -1.149  1.00  0.00    -0.317 OA
BRANCH  22  23
HETATM   23  C   UNL     1     -21.782  -8.322  -0.773  1.00  0.00     0.263 C 
HETATM   24  O   UNL     1     -21.044  -8.347   0.209  1.00  0.00    -0.265 OA
BRANCH  23  25
HETATM   25  C   UNL     1     -21.982  -7.063  -1.606  1.00  0.00     0.149 C 
BRANCH  25  26
HETATM   26  C   UNL     1     -21.429  -7.102  -3.007  1.00  0.00    -0.046 C 
HETATM   27  C   UNL     1     -21.675  -6.033  -3.873  1.00  0.00     0.047 C 
HETATM   28  C   UNL     1     -21.039  -5.940  -5.105  1.00  0.00     0.101 C 
HETATM   29  C   UNL     1     -20.284  -7.023  -5.554  1.00  0.00     0.099 C 
HETATM   30  C   UNL     1     -20.125  -8.161  -4.758  1.00  0.00     0.040 C 
HETATM   31  C   UNL     1     -20.683  -8.192  -3.476  1.00  0.00     0.010 C 
BRANCH  28  32
HETATM   32  O   UNL     1     -21.123  -4.814  -5.882  1.00  0.00    -0.353 OA
HETATM   33  C   UNL     1     -22.248  -4.803  -6.764  1.00  0.00     0.210 C 
ENDBRANCH  28  32
BRANCH  29  34
HETATM   34  O   UNL     1     -19.678  -6.950  -6.778  1.00  0.00    -0.358 OA
HETATM   35  H   UNL     1     -18.718  -7.017  -6.661  1.00  0.00     0.217 HD
ENDBRANCH  29  34
ENDBRANCH  25  26
ENDBRANCH  23  25
ENDBRANCH  22  23
ENDBRANCH  21  22
ENDBRANCH   1  21
BRANCH  19  36
HETATM   36  O   UNL     1     -21.251 -15.159  -2.848  1.00  0.00    -0.381 OA
HETATM   37  H   UNL     1     -22.179 -14.823  -2.923  1.00  0.00     0.211 HD
ENDBRANCH  19  36
BRANCH  12  38
HETATM   38  O   UNL     1     -18.962 -14.553  -4.164  1.00  0.00    -0.387 OA
HETATM   39  H   UNL     1     -18.320 -14.962  -4.772  1.00  0.00     0.210 HD
ENDBRANCH  12  38
BRANCH   8  40
HETATM   40  O   UNL     1     -14.456 -12.390  -4.235  1.00  0.00    -0.306 OA
BRANCH  40  41
HETATM   41  C   UNL     1     -13.751 -13.255  -5.054  1.00  0.00     0.255 C 
HETATM   42  C   UNL     1     -13.390 -12.685  -6.406  1.00  0.00     0.126 C 
HETATM   43  O   UNL     1     -13.339 -14.361  -4.725  1.00  0.00    -0.266 OA
ENDBRANCH  40  41
ENDBRANCH   8  40
BRANCH   9  44
HETATM   44  O   UNL     1     -17.832 -13.121  -5.530  1.00  0.00    -0.312 OA
BRANCH  44  45
HETATM   45  C   UNL     1     -18.002 -13.410  -6.836  1.00  0.00     0.263 C 
HETATM   46  O   UNL     1     -17.380 -14.287  -7.415  1.00  0.00    -0.265 OA
BRANCH  45  47
HETATM   47  C   UNL     1     -18.963 -12.445  -7.519  1.00  0.00     0.149 C 
BRANCH  47  48
HETATM   48  C   UNL     1     -20.353 -12.622  -6.995  1.00  0.00    -0.049 A 
HETATM   49  C   UNL     1     -20.952 -11.579  -6.280  1.00  0.00     0.007 A 
HETATM   50  C   UNL     1     -22.136 -11.796  -5.592  1.00  0.00     0.001 A 
HETATM   51  C   UNL     1     -22.723 -13.062  -5.611  1.00  0.00     0.000 A 
HETATM   52  C   UNL     1     -22.161 -14.095  -6.365  1.00  0.00     0.001 A 
HETATM   53  C   UNL     1     -20.974 -13.872  -7.062  1.00  0.00     0.007 A 
ENDBRANCH  47  48
ENDBRANCH  45  47
ENDBRANCH  44  45
ENDBRANCH   9  44
TORSDOF 15
ENDMDL
