MODEL 1
REMARK VINA RESULT:      -4.6      0.000      0.000
REMARK  5 active torsions:
REMARK  status: ('A' for Active; 'I' for Inactive)
REMARK    1  A    between atoms: C_2  and  C_3 
REMARK    2  A    between atoms: C_3  and  S_4 
REMARK    3  A    between atoms: S_4  and  S_5 
REMARK    4  A    between atoms: S_5  and  C_7 
REMARK    5  A    between atoms: C_7  and  C_8 
ROOT
HETATM    1  S   UNL     1     -35.382  -1.874 -10.821  1.00  0.00     0.081 S 
HETATM    2  O   UNL     1     -36.241  -3.101 -10.923  1.00  0.00    -0.246 OA
ENDROOT
BRANCH   1   3
HETATM    3  S   UNL     1     -35.186  -1.439 -12.791  1.00  0.00    -0.062 SA
BRANCH   3   4
HETATM    4  C   UNL     1     -35.124   0.375 -12.749  1.00  0.00     0.114 C 
BRANCH   4   5
HETATM    5  C   UNL     1     -34.679   0.885 -14.088  1.00  0.00    -0.026 C 
HETATM    6  C   UNL     1     -35.489   1.072 -15.139  1.00  0.00     0.007 C 
ENDBRANCH   4   5
ENDBRANCH   3   4
ENDBRANCH   1   3
BRANCH   1   7
HETATM    7  C   UNL     1     -33.682  -2.392 -10.398  1.00  0.00     0.147 C 
BRANCH   7   8
HETATM    8  C   UNL     1     -33.110  -3.260 -11.481  1.00  0.00    -0.024 C 
HETATM    9  C   UNL     1     -33.119  -4.600 -11.466  1.00  0.00     0.008 C 
ENDBRANCH   7   8
ENDBRANCH   1   7
TORSDOF 5
ENDMDL
MODEL 2
REMARK VINA RESULT:      -4.5      3.289      4.202
REMARK  5 active torsions:
REMARK  status: ('A' for Active; 'I' for Inactive)
REMARK    1  A    between atoms: C_2  and  C_3 
REMARK    2  A    between atoms: C_3  and  S_4 
REMARK    3  A    between atoms: S_4  and  S_5 
REMARK    4  A    between atoms: S_5  and  C_7 
REMARK    5  A    between atoms: C_7  and  C_8 
ROOT
HETATM    1  S   UNL     1     -35.865  -0.898 -11.858  1.00  0.00     0.081 S 
HETATM    2  O   UNL     1     -34.913   0.239 -12.082  1.00  0.00    -0.246 OA
ENDROOT
BRANCH   1   3
HETATM    3  S   UNL     1     -37.274   0.057 -10.757  1.00  0.00    -0.062 SA
BRANCH   3   4
HETATM    4  C   UNL     1     -36.819  -0.455  -9.076  1.00  0.00     0.114 C 
BRANCH   4   5
HETATM    5  C   UNL     1     -36.679   0.762  -8.210  1.00  0.00    -0.026 C 
HETATM    6  C   UNL     1     -36.941   0.795  -6.896  1.00  0.00     0.007 C 
ENDBRANCH   4   5
ENDBRANCH   3   4
ENDBRANCH   1   3
BRANCH   1   7
HETATM    7  C   UNL     1     -35.140  -2.023 -10.614  1.00  0.00     0.147 C 
BRANCH   7   8
HETATM    8  C   UNL     1     -33.667  -2.188 -10.848  1.00  0.00    -0.024 C 
HETATM    9  C   UNL     1     -33.096  -3.289 -11.356  1.00  0.00     0.008 C 
ENDBRANCH   7   8
ENDBRANCH   1   7
TORSDOF 5
ENDMDL
MODEL 3
REMARK VINA RESULT:      -4.4      1.390      4.718
REMARK  5 active torsions:
REMARK  status: ('A' for Active; 'I' for Inactive)
REMARK    1  A    between atoms: C_2  and  C_3 
REMARK    2  A    between atoms: C_3  and  S_4 
REMARK    3  A    between atoms: S_4  and  S_5 
REMARK    4  A    between atoms: S_5  and  C_7 
REMARK    5  A    between atoms: C_7  and  C_8 
ROOT
HETATM    1  S   UNL     1     -36.250  -0.700 -11.886  1.00  0.00     0.081 S 
HETATM    2  O   UNL     1     -35.830   0.369 -10.920  1.00  0.00    -0.246 OA
ENDROOT
BRANCH   1   3
HETATM    3  S   UNL     1     -35.584  -2.334 -10.887  1.00  0.00    -0.062 SA
BRANCH   3   4
HETATM    4  C   UNL     1     -33.788  -2.077 -10.944  1.00  0.00     0.114 C 
BRANCH   4   5
HETATM    5  C   UNL     1     -33.120  -3.349 -11.376  1.00  0.00    -0.026 C 
HETATM    6  C   UNL     1     -33.536  -4.579 -11.042  1.00  0.00     0.007 C 
ENDBRANCH   4   5
ENDBRANCH   3   4
ENDBRANCH   1   3
BRANCH   1   7
HETATM    7  C   UNL     1     -35.114  -0.666 -13.316  1.00  0.00     0.147 C 
BRANCH   7   8
HETATM    8  C   UNL     1     -34.902   0.743 -13.787  1.00  0.00    -0.024 C 
HETATM    9  C   UNL     1     -35.291   1.214 -14.980  1.00  0.00     0.008 C 
ENDBRANCH   7   8
ENDBRANCH   1   7
TORSDOF 5
ENDMDL
MODEL 4
REMARK VINA RESULT:      -4.1      1.972      2.396
REMARK  5 active torsions:
REMARK  status: ('A' for Active; 'I' for Inactive)
REMARK    1  A    between atoms: C_2  and  C_3 
REMARK    2  A    between atoms: C_3  and  S_4 
REMARK    3  A    between atoms: S_4  and  S_5 
REMARK    4  A    between atoms: S_5  and  C_7 
REMARK    5  A    between atoms: C_7  and  C_8 
ROOT
HETATM    1  S   UNL     1     -33.970  -3.476 -12.433  1.00  0.00     0.081 S 
HETATM    2  O   UNL     1     -32.896  -3.195 -11.423  1.00  0.00    -0.246 OA
ENDROOT
BRANCH   1   3
HETATM    3  S   UNL     1     -35.389  -2.183 -11.781  1.00  0.00    -0.062 SA
BRANCH   3   4
HETATM    4  C   UNL     1     -34.622  -0.586 -12.177  1.00  0.00     0.114 C 
BRANCH   4   5
HETATM    5  C   UNL     1     -35.368   0.052 -13.312  1.00  0.00    -0.026 C 
HETATM    6  C   UNL     1     -34.820   0.881 -14.212  1.00  0.00     0.007 C 
ENDBRANCH   4   5
ENDBRANCH   3   4
ENDBRANCH   1   3
BRANCH   1   7
HETATM    7  C   UNL     1     -34.738  -5.084 -12.028  1.00  0.00     0.147 C 
BRANCH   7   8
HETATM    8  C   UNL     1     -34.379  -5.503 -10.632  1.00  0.00    -0.024 C 
HETATM    9  C   UNL     1     -34.587  -6.727 -10.128  1.00  0.00     0.008 C 
ENDBRANCH   7   8
ENDBRANCH   1   7
TORSDOF 5
ENDMDL
MODEL 5
REMARK VINA RESULT:      -4.1      8.757     10.266
REMARK  5 active torsions:
REMARK  status: ('A' for Active; 'I' for Inactive)
REMARK    1  A    between atoms: C_2  and  C_3 
REMARK    2  A    between atoms: C_3  and  S_4 
REMARK    3  A    between atoms: S_4  and  S_5 
REMARK    4  A    between atoms: S_5  and  C_7 
REMARK    5  A    between atoms: C_7  and  C_8 
ROOT
HETATM    1  S   UNL     1     -29.247  -6.745 -17.564  1.00  0.00     0.081 S 
HETATM    2  O   UNL     1     -29.890  -8.100 -17.590  1.00  0.00    -0.246 OA
ENDROOT
BRANCH   1   3
HETATM    3  S   UNL     1     -28.072  -6.964 -15.927  1.00  0.00    -0.062 SA
BRANCH   3   4
HETATM    4  C   UNL     1     -26.548  -6.142 -16.471  1.00  0.00     0.114 C 
BRANCH   4   5
HETATM    5  C   UNL     1     -25.364  -6.899 -15.945  1.00  0.00    -0.026 C 
HETATM    6  C   UNL     1     -24.398  -7.429 -16.710  1.00  0.00     0.007 C 
ENDBRANCH   4   5
ENDBRANCH   3   4
ENDBRANCH   1   3
BRANCH   1   7
HETATM    7  C   UNL     1     -30.475  -5.533 -16.963  1.00  0.00     0.147 C 
BRANCH   7   8
HETATM    8  C   UNL     1     -30.210  -4.178 -17.552  1.00  0.00    -0.024 C 
HETATM    9  C   UNL     1     -29.057  -3.506 -17.424  1.00  0.00     0.008 C 
ENDBRANCH   7   8
ENDBRANCH   1   7
TORSDOF 5
ENDMDL
MODEL 6
REMARK VINA RESULT:      -4.0     15.109     15.869
REMARK  5 active torsions:
REMARK  status: ('A' for Active; 'I' for Inactive)
REMARK    1  A    between atoms: C_2  and  C_3 
REMARK    2  A    between atoms: C_3  and  S_4 
REMARK    3  A    between atoms: S_4  and  S_5 
REMARK    4  A    between atoms: S_5  and  C_7 
REMARK    5  A    between atoms: C_7  and  C_8 
ROOT
HETATM    1  S   UNL     1     -21.779  -6.519  -5.092  1.00  0.00     0.081 S 
HETATM    2  O   UNL     1     -21.328  -7.592  -6.039  1.00  0.00    -0.246 OA
ENDROOT
BRANCH   1   3
HETATM    3  S   UNL     1     -20.452  -5.066  -5.576  1.00  0.00    -0.062 SA
BRANCH   3   4
HETATM    4  C   UNL     1     -21.187  -4.406  -7.098  1.00  0.00     0.114 C 
BRANCH   4   5
HETATM    5  C   UNL     1     -20.127  -4.304  -8.155  1.00  0.00    -0.026 C 
HETATM    6  C   UNL     1     -20.369  -4.151  -9.465  1.00  0.00     0.007 C 
ENDBRANCH   4   5
ENDBRANCH   3   4
ENDBRANCH   1   3
BRANCH   1   7
HETATM    7  C   UNL     1     -21.226  -6.964  -3.408  1.00  0.00     0.147 C 
BRANCH   7   8
HETATM    8  C   UNL     1     -22.044  -6.241  -2.377  1.00  0.00    -0.024 C 
HETATM    9  C   UNL     1     -22.296  -6.704  -1.145  1.00  0.00     0.008 C 
ENDBRANCH   7   8
ENDBRANCH   1   7
TORSDOF 5
ENDMDL
MODEL 7
REMARK VINA RESULT:      -4.0      3.113      5.647
REMARK  5 active torsions:
REMARK  status: ('A' for Active; 'I' for Inactive)
REMARK    1  A    between atoms: C_2  and  C_3 
REMARK    2  A    between atoms: C_3  and  S_4 
REMARK    3  A    between atoms: S_4  and  S_5 
REMARK    4  A    between atoms: S_5  and  C_7 
REMARK    5  A    between atoms: C_7  and  C_8 
ROOT
HETATM    1  S   UNL     1     -33.515  -3.944 -12.819  1.00  0.00     0.081 S 
HETATM    2  O   UNL     1     -34.400  -3.078 -13.667  1.00  0.00    -0.246 OA
ENDROOT
BRANCH   1   3
HETATM    3  S   UNL     1     -34.875  -5.319 -12.212  1.00  0.00    -0.062 SA
BRANCH   3   4
HETATM    4  C   UNL     1     -34.334  -5.625 -10.507  1.00  0.00     0.114 C 
BRANCH   4   5
HETATM    5  C   UNL     1     -34.011  -7.081 -10.345  1.00  0.00    -0.026 C 
HETATM    6  C   UNL     1     -34.783  -7.965  -9.697  1.00  0.00     0.007 C 
ENDBRANCH   4   5
ENDBRANCH   3   4
ENDBRANCH   1   3
BRANCH   1   7
HETATM    7  C   UNL     1     -33.171  -3.064 -11.255  1.00  0.00     0.147 C 
BRANCH   7   8
HETATM    8  C   UNL     1     -34.041  -1.847 -11.133  1.00  0.00    -0.024 C 
HETATM    9  C   UNL     1     -35.260  -1.836 -10.575  1.00  0.00     0.008 C 
ENDBRANCH   7   8
ENDBRANCH   1   7
TORSDOF 5
ENDMDL
MODEL 8
REMARK VINA RESULT:      -4.0      2.429      3.080
REMARK  5 active torsions:
REMARK  status: ('A' for Active; 'I' for Inactive)
REMARK    1  A    between atoms: C_2  and  C_3 
REMARK    2  A    between atoms: C_3  and  S_4 
REMARK    3  A    between atoms: S_4  and  S_5 
REMARK    4  A    between atoms: S_5  and  C_7 
REMARK    5  A    between atoms: C_7  and  C_8 
ROOT
HETATM    1  S   UNL     1     -35.446  -1.984 -10.604  1.00  0.00     0.081 S 
HETATM    2  O   UNL     1     -36.195  -3.227 -10.985  1.00  0.00    -0.246 OA
ENDROOT
BRANCH   1   3
HETATM    3  S   UNL     1     -36.172  -0.713 -12.007  1.00  0.00    -0.062 SA
BRANCH   3   4
HETATM    4  C   UNL     1     -37.687  -0.122 -11.201  1.00  0.00     0.114 C 
BRANCH   4   5
HETATM    5  C   UNL     1     -37.332   0.528  -9.897  1.00  0.00    -0.026 C 
HETATM    6  C   UNL     1     -37.885   0.219  -8.716  1.00  0.00     0.007 C 
ENDBRANCH   4   5
ENDBRANCH   3   4
ENDBRANCH   1   3
BRANCH   1   7
HETATM    7  C   UNL     1     -33.711  -2.165 -11.147  1.00  0.00     0.147 C 
BRANCH   7   8
HETATM    8  C   UNL     1     -33.264  -3.592 -11.017  1.00  0.00    -0.024 C 
HETATM    9  C   UNL     1     -32.687  -4.300 -11.998  1.00  0.00     0.008 C 
ENDBRANCH   7   8
ENDBRANCH   1   7
TORSDOF 5
ENDMDL
MODEL 9
REMARK VINA RESULT:      -4.0      1.833      5.062
REMARK  5 active torsions:
REMARK  status: ('A' for Active; 'I' for Inactive)
REMARK    1  A    between atoms: C_2  and  C_3 
REMARK    2  A    between atoms: C_3  and  S_4 
REMARK    3  A    between atoms: S_4  and  S_5 
REMARK    4  A    between atoms: S_5  and  C_7 
REMARK    5  A    between atoms: C_7  and  C_8 
ROOT
HETATM    1  S   UNL     1     -35.548  -1.908 -11.828  1.00  0.00     0.081 S 
HETATM    2  O   UNL     1     -36.470  -2.595 -10.864  1.00  0.00    -0.246 OA
ENDROOT
BRANCH   1   3
HETATM    3  S   UNL     1     -33.817  -2.031 -10.780  1.00  0.00    -0.062 SA
BRANCH   3   4
HETATM    4  C   UNL     1     -33.167  -3.626 -11.353  1.00  0.00     0.114 C 
BRANCH   4   5
HETATM    5  C   UNL     1     -33.828  -4.733 -10.585  1.00  0.00    -0.026 C 
HETATM    6  C   UNL     1     -33.838  -6.020 -10.961  1.00  0.00     0.007 C 
ENDBRANCH   4   5
ENDBRANCH   3   4
ENDBRANCH   1   3
BRANCH   1   7
HETATM    7  C   UNL     1     -35.878  -0.112 -11.765  1.00  0.00     0.147 C 
BRANCH   7   8
HETATM    8  C   UNL     1     -37.069   0.174 -10.897  1.00  0.00    -0.024 C 
HETATM    9  C   UNL     1     -37.005   0.707  -9.669  1.00  0.00     0.008 C 
ENDBRANCH   7   8
ENDBRANCH   1   7
TORSDOF 5
ENDMDL
