REMARK  16 active torsions:
REMARK  status: ('A' for Active; 'I' for Inactive)
REMARK    1  A    between atoms: C_2  and  C_3 
REMARK    2  A    between atoms: C_3  and  C_4 
REMARK    3  A    between atoms: C_4  and  C_5 
REMARK    4  A    between atoms: C_5  and  C_6 
REMARK    5  A    between atoms: C_7  and  C_8 
REMARK    6  A    between atoms: C_8  and  C_9 
REMARK    7  A    between atoms: C_10  and  C_11 
REMARK    8  A    between atoms: C_11  and  C_12 
REMARK    9  A    between atoms: C_13  and  C_14 
REMARK   10  A    between atoms: C_15  and  C_16 
REMARK   11  A    between atoms: C_16  and  O_17 
REMARK   12  A    between atoms: C_16  and  C_18 
REMARK   13  A    between atoms: C_18  and  C_19 
REMARK   14  A    between atoms: C_19  and  C_20 
REMARK   15  A    between atoms: C_20  and  C_21 
REMARK   16  A    between atoms: C_21  and  O_23 
ROOT
HETATM    1  C   UNL     1      12.580  -7.114  -0.359  1.00  0.00    -0.023 C 
HETATM    2  C   UNL     1      13.303  -7.654  -1.351  1.00  0.00    -0.004 C 
ENDROOT
BRANCH   2   3
HETATM    3  C   UNL     1      14.745  -7.695  -1.334  1.00  0.00    -0.002 C 
HETATM    4  C   UNL     1      15.471  -8.237  -2.325  1.00  0.00     0.004 C 
BRANCH   4   5
HETATM    5  C   UNL     1      16.972  -8.230  -2.344  1.00  0.00     0.141 C 
BRANCH   5   6
HETATM    6  O   UNL     1      17.427  -9.575  -2.448  1.00  0.00    -0.392 OA
HETATM    7  H   UNL     1      17.002  -9.976  -3.223  1.00  0.00     0.210 HD
ENDBRANCH   5   6
BRANCH   5   8
HETATM    8  C   UNL     1      17.541  -7.424  -3.521  1.00  0.00     0.036 C 
BRANCH   8   9
HETATM    9  C   UNL     1      17.132  -5.950  -3.473  1.00  0.00     0.013 C 
BRANCH   9  10
HETATM   10  C   UNL     1      17.717  -5.147  -4.632  1.00  0.00     0.110 C 
BRANCH  10  11
HETATM   11  C   UNL     1      17.285  -3.699  -4.565  1.00  0.00     0.139 C 
HETATM   12  O   UNL     1      16.571  -3.211  -3.704  1.00  0.00    -0.650 OA
BRANCH  11  13
HETATM   13  O   UNL     1      17.782  -2.965  -5.588  1.00  0.00    -0.776 OA
HETATM   14  H   UNL     1      18.341  -3.477  -6.203  1.00  0.00     0.167 HD
ENDBRANCH  11  13
ENDBRANCH  10  11
ENDBRANCH   9  10
ENDBRANCH   8   9
ENDBRANCH   5   8
ENDBRANCH   4   5
ENDBRANCH   2   3
BRANCH   1  15
HETATM   15  C   UNL     1      11.080  -7.087  -0.349  1.00  0.00     0.054 C 
BRANCH  15  16
HETATM   16  C   UNL     1      10.556  -5.683  -0.278  1.00  0.00    -0.027 C 
HETATM   17  C   UNL     1       9.759  -5.229   0.703  1.00  0.00    -0.027 C 
BRANCH  17  18
HETATM   18  C   UNL     1       9.204  -3.836   0.753  1.00  0.00     0.053 C 
BRANCH  18  19
HETATM   19  C   UNL     1       9.642  -3.123   1.997  1.00  0.00    -0.027 C 
HETATM   20  C   UNL     1       8.796  -2.631   2.915  1.00  0.00    -0.030 C 
BRANCH  20  21
HETATM   21  C   UNL     1       9.241  -1.904   4.149  1.00  0.00     0.027 C 
BRANCH  21  22
HETATM   22  C   UNL     1       8.768  -2.624   5.412  1.00  0.00     0.004 C 
BRANCH  22  23
HETATM   23  C   UNL     1       9.228  -1.881   6.666  1.00  0.00    -0.000 C 
BRANCH  23  24
HETATM   24  C   UNL     1       8.760  -2.590   7.935  1.00  0.00    -0.005 C 
HETATM   25  C   UNL     1       9.221  -1.849   9.179  1.00  0.00     0.005 C 
ENDBRANCH  23  24
ENDBRANCH  22  23
ENDBRANCH  21  22
ENDBRANCH  20  21
ENDBRANCH  18  19
ENDBRANCH  17  18
ENDBRANCH  15  16
ENDBRANCH   1  15
TORSDOF 16
