MODEL 1
REMARK VINA RESULT:      -8.1      0.000      0.000
REMARK  16 active torsions:
REMARK  status: ('A' for Active; 'I' for Inactive)
REMARK    1  A    between atoms: C_2  and  C_3 
REMARK    2  A    between atoms: C_3  and  C_4 
REMARK    3  A    between atoms: C_4  and  C_5 
REMARK    4  A    between atoms: C_5  and  C_6 
REMARK    5  A    between atoms: C_7  and  C_8 
REMARK    6  A    between atoms: C_8  and  C_9 
REMARK    7  A    between atoms: C_10  and  C_11 
REMARK    8  A    between atoms: C_11  and  C_12 
REMARK    9  A    between atoms: C_13  and  C_14 
REMARK   10  A    between atoms: C_15  and  C_16 
REMARK   11  A    between atoms: C_16  and  O_17 
REMARK   12  A    between atoms: C_16  and  C_18 
REMARK   13  A    between atoms: C_18  and  C_19 
REMARK   14  A    between atoms: C_19  and  C_20 
REMARK   15  A    between atoms: C_20  and  C_21 
REMARK   16  A    between atoms: C_21  and  O_23 
ROOT
HETATM    1  C   UNL     1     -20.665  -4.074  -7.944  1.00  0.00    -0.023 C 
HETATM    2  C   UNL     1     -22.002  -4.084  -7.838  1.00  0.00    -0.004 C 
ENDROOT
BRANCH   2   3
HETATM    3  C   UNL     1     -22.875  -3.761  -8.940  1.00  0.00    -0.002 C 
HETATM    4  C   UNL     1     -22.573  -4.043 -10.217  1.00  0.00     0.004 C 
BRANCH   4   5
HETATM    5  C   UNL     1     -23.502  -3.766 -11.363  1.00  0.00     0.141 C 
BRANCH   5   6
HETATM    6  O   UNL     1     -24.619  -3.033 -10.870  1.00  0.00    -0.392 OA
HETATM    7  H   UNL     1     -25.227  -3.661 -10.448  1.00  0.00     0.210 HD
ENDBRANCH   5   6
BRANCH   5   8
HETATM    8  C   UNL     1     -22.832  -2.952 -12.479  1.00  0.00     0.036 C 
BRANCH   8   9
HETATM    9  C   UNL     1     -23.622  -2.993 -13.790  1.00  0.00     0.013 C 
BRANCH   9  10
HETATM   10  C   UNL     1     -23.028  -2.075 -14.855  1.00  0.00     0.110 C 
BRANCH  10  11
HETATM   11  C   UNL     1     -23.865  -0.826 -15.026  1.00  0.00     0.139 C 
HETATM   12  O   UNL     1     -23.554   0.151 -15.688  1.00  0.00    -0.650 OA
BRANCH  11  13
HETATM   13  O   UNL     1     -25.036  -0.895 -14.351  1.00  0.00    -0.776 OA
HETATM   14  H   UNL     1     -25.787  -0.489 -14.826  1.00  0.00     0.167 HD
ENDBRANCH  11  13
ENDBRANCH  10  11
ENDBRANCH   9  10
ENDBRANCH   8   9
ENDBRANCH   5   8
ENDBRANCH   4   5
ENDBRANCH   2   3
BRANCH   1  15
HETATM   15  C   UNL     1     -19.743  -4.433  -6.816  1.00  0.00     0.054 C 
BRANCH  15  16
HETATM   16  C   UNL     1     -20.217  -5.655  -6.086  1.00  0.00    -0.027 C 
HETATM   17  C   UNL     1     -20.859  -5.622  -4.907  1.00  0.00    -0.027 C 
BRANCH  17  18
HETATM   18  C   UNL     1     -21.299  -6.846  -4.159  1.00  0.00     0.053 C 
BRANCH  18  19
HETATM   19  C   UNL     1     -21.738  -6.501  -2.767  1.00  0.00    -0.027 C 
HETATM   20  C   UNL     1     -21.897  -7.404  -1.788  1.00  0.00    -0.030 C 
BRANCH  20  21
HETATM   21  C   UNL     1     -22.353  -7.055  -0.402  1.00  0.00     0.027 C 
BRANCH  21  22
HETATM   22  C   UNL     1     -21.993  -8.161   0.590  1.00  0.00     0.004 C 
BRANCH  22  23
HETATM   23  C   UNL     1     -22.220  -9.540  -0.027  1.00  0.00    -0.000 C 
BRANCH  23  24
HETATM   24  C   UNL     1     -23.689  -9.948   0.048  1.00  0.00    -0.005 C 
HETATM   25  C   UNL     1     -23.891 -11.367  -0.457  1.00  0.00     0.005 C 
ENDBRANCH  23  24
ENDBRANCH  22  23
ENDBRANCH  21  22
ENDBRANCH  20  21
ENDBRANCH  18  19
ENDBRANCH  17  18
ENDBRANCH  15  16
ENDBRANCH   1  15
TORSDOF 16
ENDMDL
MODEL 2
REMARK VINA RESULT:      -7.9      1.533      2.341
REMARK  16 active torsions:
REMARK  status: ('A' for Active; 'I' for Inactive)
REMARK    1  A    between atoms: C_2  and  C_3 
REMARK    2  A    between atoms: C_3  and  C_4 
REMARK    3  A    between atoms: C_4  and  C_5 
REMARK    4  A    between atoms: C_5  and  C_6 
REMARK    5  A    between atoms: C_7  and  C_8 
REMARK    6  A    between atoms: C_8  and  C_9 
REMARK    7  A    between atoms: C_10  and  C_11 
REMARK    8  A    between atoms: C_11  and  C_12 
REMARK    9  A    between atoms: C_13  and  C_14 
REMARK   10  A    between atoms: C_15  and  C_16 
REMARK   11  A    between atoms: C_16  and  O_17 
REMARK   12  A    between atoms: C_16  and  C_18 
REMARK   13  A    between atoms: C_18  and  C_19 
REMARK   14  A    between atoms: C_19  and  C_20 
REMARK   15  A    between atoms: C_20  and  C_21 
REMARK   16  A    between atoms: C_21  and  O_23 
ROOT
HETATM    1  C   UNL     1     -20.670  -5.737  -6.730  1.00  0.00    -0.023 C 
HETATM    2  C   UNL     1     -19.727  -4.904  -7.192  1.00  0.00    -0.004 C 
ENDROOT
BRANCH   2   3
HETATM    3  C   UNL     1     -19.943  -4.025  -8.316  1.00  0.00    -0.002 C 
HETATM    4  C   UNL     1     -20.501  -4.436  -9.466  1.00  0.00     0.004 C 
BRANCH   4   5
HETATM    5  C   UNL     1     -20.785  -3.516 -10.618  1.00  0.00     0.141 C 
BRANCH   5   6
HETATM    6  O   UNL     1     -20.039  -3.963 -11.745  1.00  0.00    -0.392 OA
HETATM    7  H   UNL     1     -20.452  -4.778 -12.073  1.00  0.00     0.210 HD
ENDBRANCH   5   6
BRANCH   5   8
HETATM    8  C   UNL     1     -22.274  -3.485 -10.992  1.00  0.00     0.036 C 
BRANCH   8   9
HETATM    9  C   UNL     1     -22.497  -3.466 -12.506  1.00  0.00     0.013 C 
BRANCH   9  10
HETATM   10  C   UNL     1     -23.672  -2.578 -12.909  1.00  0.00     0.110 C 
BRANCH  10  11
HETATM   11  C   UNL     1     -23.513  -2.073 -14.326  1.00  0.00     0.139 C 
HETATM   12  O   UNL     1     -22.785  -2.561 -15.175  1.00  0.00    -0.650 OA
BRANCH  11  13
HETATM   13  O   UNL     1     -24.280  -0.986 -14.575  1.00  0.00    -0.776 OA
HETATM   14  H   UNL     1     -24.665  -0.586 -13.772  1.00  0.00     0.167 HD
ENDBRANCH  11  13
ENDBRANCH  10  11
ENDBRANCH   9  10
ENDBRANCH   8   9
ENDBRANCH   5   8
ENDBRANCH   4   5
ENDBRANCH   2   3
BRANCH   1  15
HETATM   15  C   UNL     1     -20.470  -6.638  -5.547  1.00  0.00     0.054 C 
BRANCH  15  16
HETATM   16  C   UNL     1     -21.067  -6.050  -4.302  1.00  0.00    -0.027 C 
HETATM   17  C   UNL     1     -21.634  -6.778  -3.326  1.00  0.00    -0.027 C 
BRANCH  17  18
HETATM   18  C   UNL     1     -22.265  -6.187  -2.100  1.00  0.00     0.053 C 
BRANCH  18  19
HETATM   19  C   UNL     1     -21.972  -7.018  -0.887  1.00  0.00    -0.027 C 
HETATM   20  C   UNL     1     -21.874  -8.356  -0.902  1.00  0.00    -0.030 C 
BRANCH  20  21
HETATM   21  C   UNL     1     -21.598  -9.182   0.320  1.00  0.00     0.027 C 
BRANCH  21  22
HETATM   22  C   UNL     1     -22.256 -10.558   0.214  1.00  0.00     0.004 C 
BRANCH  22  23
HETATM   23  C   UNL     1     -23.708 -10.432  -0.248  1.00  0.00    -0.000 C 
BRANCH  23  24
HETATM   24  C   UNL     1     -24.023 -11.423  -1.366  1.00  0.00    -0.005 C 
HETATM   25  C   UNL     1     -22.752 -12.033  -1.933  1.00  0.00     0.005 C 
ENDBRANCH  23  24
ENDBRANCH  22  23
ENDBRANCH  21  22
ENDBRANCH  20  21
ENDBRANCH  18  19
ENDBRANCH  17  18
ENDBRANCH  15  16
ENDBRANCH   1  15
TORSDOF 16
ENDMDL
MODEL 3
REMARK VINA RESULT:      -7.4      1.485      2.736
REMARK  16 active torsions:
REMARK  status: ('A' for Active; 'I' for Inactive)
REMARK    1  A    between atoms: C_2  and  C_3 
REMARK    2  A    between atoms: C_3  and  C_4 
REMARK    3  A    between atoms: C_4  and  C_5 
REMARK    4  A    between atoms: C_5  and  C_6 
REMARK    5  A    between atoms: C_7  and  C_8 
REMARK    6  A    between atoms: C_8  and  C_9 
REMARK    7  A    between atoms: C_10  and  C_11 
REMARK    8  A    between atoms: C_11  and  C_12 
REMARK    9  A    between atoms: C_13  and  C_14 
REMARK   10  A    between atoms: C_15  and  C_16 
REMARK   11  A    between atoms: C_16  and  O_17 
REMARK   12  A    between atoms: C_16  and  C_18 
REMARK   13  A    between atoms: C_18  and  C_19 
REMARK   14  A    between atoms: C_19  and  C_20 
REMARK   15  A    between atoms: C_20  and  C_21 
REMARK   16  A    between atoms: C_21  and  O_23 
ROOT
HETATM    1  C   UNL     1     -21.497  -5.491  -6.139  1.00  0.00    -0.023 C 
HETATM    2  C   UNL     1     -20.656  -5.146  -7.125  1.00  0.00    -0.004 C 
ENDROOT
BRANCH   2   3
HETATM    3  C   UNL     1     -21.108  -4.774  -8.443  1.00  0.00    -0.002 C 
HETATM    4  C   UNL     1     -22.397  -4.830  -8.816  1.00  0.00     0.004 C 
BRANCH   4   5
HETATM    5  C   UNL     1     -22.883  -4.388 -10.165  1.00  0.00     0.141 C 
BRANCH   5   6
HETATM    6  O   UNL     1     -23.825  -3.336  -9.981  1.00  0.00    -0.392 OA
HETATM    7  H   UNL     1     -24.433  -3.599  -9.271  1.00  0.00     0.210 HD
ENDBRANCH   5   6
BRANCH   5   8
HETATM    8  C   UNL     1     -21.745  -3.879 -11.062  1.00  0.00     0.036 C 
BRANCH   8   9
HETATM    9  C   UNL     1     -22.132  -2.620 -11.841  1.00  0.00     0.013 C 
BRANCH   9  10
HETATM   10  C   UNL     1     -22.727  -2.944 -13.209  1.00  0.00     0.110 C 
BRANCH  10  11
HETATM   11  C   UNL     1     -24.190  -2.565 -13.271  1.00  0.00     0.139 C 
HETATM   12  O   UNL     1     -25.096  -3.137 -12.687  1.00  0.00    -0.650 OA
BRANCH  11  13
HETATM   13  O   UNL     1     -24.412  -1.491 -14.065  1.00  0.00    -0.776 OA
HETATM   14  H   UNL     1     -23.714  -0.812 -14.009  1.00  0.00     0.167 HD
ENDBRANCH  11  13
ENDBRANCH  10  11
ENDBRANCH   9  10
ENDBRANCH   8   9
ENDBRANCH   5   8
ENDBRANCH   4   5
ENDBRANCH   2   3
BRANCH   1  15
HETATM   15  C   UNL     1     -21.046  -5.855  -4.755  1.00  0.00     0.054 C 
BRANCH  15  16
HETATM   16  C   UNL     1     -20.742  -7.320  -4.644  1.00  0.00    -0.027 C 
HETATM   17  C   UNL     1     -21.654  -8.290  -4.818  1.00  0.00    -0.027 C 
BRANCH  17  18
HETATM   18  C   UNL     1     -21.359  -9.754  -4.669  1.00  0.00     0.053 C 
BRANCH  18  19
HETATM   19  C   UNL     1     -22.155 -10.356  -3.550  1.00  0.00    -0.027 C 
HETATM   20  C   UNL     1     -21.812 -10.268  -2.256  1.00  0.00    -0.030 C 
BRANCH  20  21
HETATM   21  C   UNL     1     -22.605 -10.887  -1.144  1.00  0.00     0.027 C 
BRANCH  21  22
HETATM   22  C   UNL     1     -22.482 -10.068   0.141  1.00  0.00     0.004 C 
BRANCH  22  23
HETATM   23  C   UNL     1     -23.059  -8.665  -0.051  1.00  0.00    -0.000 C 
BRANCH  23  24
HETATM   24  C   UNL     1     -21.951  -7.622  -0.176  1.00  0.00    -0.005 C 
HETATM   25  C   UNL     1     -22.293  -6.582  -1.230  1.00  0.00     0.005 C 
ENDBRANCH  23  24
ENDBRANCH  22  23
ENDBRANCH  21  22
ENDBRANCH  20  21
ENDBRANCH  18  19
ENDBRANCH  17  18
ENDBRANCH  15  16
ENDBRANCH   1  15
TORSDOF 16
ENDMDL
MODEL 4
REMARK VINA RESULT:      -7.3      2.803      5.448
REMARK  16 active torsions:
REMARK  status: ('A' for Active; 'I' for Inactive)
REMARK    1  A    between atoms: C_2  and  C_3 
REMARK    2  A    between atoms: C_3  and  C_4 
REMARK    3  A    between atoms: C_4  and  C_5 
REMARK    4  A    between atoms: C_5  and  C_6 
REMARK    5  A    between atoms: C_7  and  C_8 
REMARK    6  A    between atoms: C_8  and  C_9 
REMARK    7  A    between atoms: C_10  and  C_11 
REMARK    8  A    between atoms: C_11  and  C_12 
REMARK    9  A    between atoms: C_13  and  C_14 
REMARK   10  A    between atoms: C_15  and  C_16 
REMARK   11  A    between atoms: C_16  and  O_17 
REMARK   12  A    between atoms: C_16  and  C_18 
REMARK   13  A    between atoms: C_18  and  C_19 
REMARK   14  A    between atoms: C_19  and  C_20 
REMARK   15  A    between atoms: C_20  and  C_21 
REMARK   16  A    between atoms: C_21  and  O_23 
ROOT
HETATM    1  C   UNL     1     -21.447  -5.998  -3.102  1.00  0.00    -0.023 C 
HETATM    2  C   UNL     1     -21.922  -6.450  -4.272  1.00  0.00    -0.004 C 
ENDROOT
BRANCH   2   3
HETATM    3  C   UNL     1     -21.232  -6.254  -5.524  1.00  0.00    -0.002 C 
HETATM    4  C   UNL     1     -20.326  -5.280  -5.712  1.00  0.00     0.004 C 
BRANCH   4   5
HETATM    5  C   UNL     1     -19.560  -5.106  -6.991  1.00  0.00     0.141 C 
BRANCH   5   6
HETATM    6  O   UNL     1     -19.708  -6.289  -7.769  1.00  0.00    -0.392 OA
HETATM    7  H   UNL     1     -18.835  -6.529  -8.119  1.00  0.00     0.210 HD
ENDBRANCH   5   6
BRANCH   5   8
HETATM    8  C   UNL     1     -20.055  -3.908  -7.815  1.00  0.00     0.036 C 
BRANCH   8   9
HETATM    9  C   UNL     1     -21.154  -4.295  -8.808  1.00  0.00     0.013 C 
BRANCH   9  10
HETATM   10  C   UNL     1     -22.546  -3.914  -8.311  1.00  0.00     0.110 C 
BRANCH  10  11
HETATM   11  C   UNL     1     -23.477  -3.623  -9.467  1.00  0.00     0.139 C 
HETATM   12  O   UNL     1     -23.181  -3.685 -10.649  1.00  0.00    -0.650 OA
BRANCH  11  13
HETATM   13  O   UNL     1     -24.718  -3.273  -9.054  1.00  0.00    -0.776 OA
HETATM   14  H   UNL     1     -25.427  -3.830  -9.426  1.00  0.00     0.167 HD
ENDBRANCH  11  13
ENDBRANCH  10  11
ENDBRANCH   9  10
ENDBRANCH   8   9
ENDBRANCH   5   8
ENDBRANCH   4   5
ENDBRANCH   2   3
BRANCH   1  15
HETATM   15  C   UNL     1     -22.139  -6.217  -1.789  1.00  0.00     0.054 C 
BRANCH  15  16
HETATM   16  C   UNL     1     -21.747  -7.527  -1.173  1.00  0.00    -0.027 C 
HETATM   17  C   UNL     1     -22.091  -7.904   0.070  1.00  0.00    -0.027 C 
BRANCH  17  18
HETATM   18  C   UNL     1     -21.666  -9.198   0.699  1.00  0.00     0.053 C 
BRANCH  18  19
HETATM   19  C   UNL     1     -22.138 -10.372  -0.105  1.00  0.00    -0.027 C 
HETATM   20  C   UNL     1     -23.389 -10.856  -0.059  1.00  0.00    -0.030 C 
BRANCH  20  21
HETATM   21  C   UNL     1     -23.850 -12.042  -0.854  1.00  0.00     0.027 C 
BRANCH  21  22
HETATM   22  C   UNL     1     -23.697 -13.334  -0.052  1.00  0.00     0.004 C 
BRANCH  22  23
HETATM   23  C   UNL     1     -23.497 -13.033   1.433  1.00  0.00    -0.000 C 
BRANCH  23  24
HETATM   24  C   UNL     1     -22.984 -14.259   2.185  1.00  0.00    -0.005 C 
HETATM   25  C   UNL     1     -24.031 -14.789   3.150  1.00  0.00     0.005 C 
ENDBRANCH  23  24
ENDBRANCH  22  23
ENDBRANCH  21  22
ENDBRANCH  20  21
ENDBRANCH  18  19
ENDBRANCH  17  18
ENDBRANCH  15  16
ENDBRANCH   1  15
TORSDOF 16
ENDMDL
MODEL 5
REMARK VINA RESULT:      -7.2     11.906     14.517
REMARK  16 active torsions:
REMARK  status: ('A' for Active; 'I' for Inactive)
REMARK    1  A    between atoms: C_2  and  C_3 
REMARK    2  A    between atoms: C_3  and  C_4 
REMARK    3  A    between atoms: C_4  and  C_5 
REMARK    4  A    between atoms: C_5  and  C_6 
REMARK    5  A    between atoms: C_7  and  C_8 
REMARK    6  A    between atoms: C_8  and  C_9 
REMARK    7  A    between atoms: C_10  and  C_11 
REMARK    8  A    between atoms: C_11  and  C_12 
REMARK    9  A    between atoms: C_13  and  C_14 
REMARK   10  A    between atoms: C_15  and  C_16 
REMARK   11  A    between atoms: C_16  and  O_17 
REMARK   12  A    between atoms: C_16  and  C_18 
REMARK   13  A    between atoms: C_18  and  C_19 
REMARK   14  A    between atoms: C_19  and  C_20 
REMARK   15  A    between atoms: C_20  and  C_21 
REMARK   16  A    between atoms: C_21  and  O_23 
ROOT
HETATM    1  C   UNL     1     -34.675  -2.160 -16.780  1.00  0.00    -0.023 C 
HETATM    2  C   UNL     1     -34.653  -3.350 -16.164  1.00  0.00    -0.004 C 
ENDROOT
BRANCH   2   3
HETATM    3  C   UNL     1     -33.455  -4.144 -16.040  1.00  0.00    -0.002 C 
HETATM    4  C   UNL     1     -32.488  -4.156 -16.973  1.00  0.00     0.004 C 
BRANCH   4   5
HETATM    5  C   UNL     1     -31.212  -4.932 -16.824  1.00  0.00     0.141 C 
BRANCH   5   6
HETATM    6  O   UNL     1     -30.951  -5.109 -15.436  1.00  0.00    -0.392 OA
HETATM    7  H   UNL     1     -30.206  -5.724 -15.347  1.00  0.00     0.210 HD
ENDBRANCH   5   6
BRANCH   5   8
HETATM    8  C   UNL     1     -31.282  -6.312 -17.494  1.00  0.00     0.036 C 
BRANCH   8   9
HETATM    9  C   UNL     1     -29.904  -6.829 -17.915  1.00  0.00     0.013 C 
BRANCH   9  10
HETATM   10  C   UNL     1     -29.309  -7.794 -16.892  1.00  0.00     0.110 C 
BRANCH  10  11
HETATM   11  C   UNL     1     -28.233  -7.121 -16.070  1.00  0.00     0.139 C 
HETATM   12  O   UNL     1     -27.798  -7.525 -15.003  1.00  0.00    -0.650 OA
BRANCH  11  13
HETATM   13  O   UNL     1     -27.778  -5.984 -16.647  1.00  0.00    -0.776 OA
HETATM   14  H   UNL     1     -26.809  -5.879 -16.597  1.00  0.00     0.167 HD
ENDBRANCH  11  13
ENDBRANCH  10  11
ENDBRANCH   9  10
ENDBRANCH   8   9
ENDBRANCH   5   8
ENDBRANCH   4   5
ENDBRANCH   2   3
BRANCH   1  15
HETATM   15  C   UNL     1     -35.906  -1.310 -16.894  1.00  0.00     0.054 C 
BRANCH  15  16
HETATM   16  C   UNL     1     -36.021  -0.352 -15.745  1.00  0.00    -0.027 C 
HETATM   17  C   UNL     1     -34.968   0.167 -15.094  1.00  0.00    -0.027 C 
BRANCH  17  18
HETATM   18  C   UNL     1     -35.084   1.095 -13.920  1.00  0.00     0.053 C 
BRANCH  18  19
HETATM   19  C   UNL     1     -35.116   0.333 -12.629  1.00  0.00    -0.027 C 
HETATM   20  C   UNL     1     -34.744  -0.951 -12.508  1.00  0.00    -0.030 C 
BRANCH  20  21
HETATM   21  C   UNL     1     -34.794  -1.712 -11.217  1.00  0.00     0.027 C 
BRANCH  21  22
HETATM   22  C   UNL     1     -33.409  -2.229 -10.829  1.00  0.00     0.004 C 
BRANCH  22  23
HETATM   23  C   UNL     1     -33.207  -3.663 -11.318  1.00  0.00    -0.000 C 
BRANCH  23  24
HETATM   24  C   UNL     1     -34.002  -4.655 -10.472  1.00  0.00    -0.005 C 
HETATM   25  C   UNL     1     -34.131  -5.996 -11.175  1.00  0.00     0.005 C 
ENDBRANCH  23  24
ENDBRANCH  22  23
ENDBRANCH  21  22
ENDBRANCH  20  21
ENDBRANCH  18  19
ENDBRANCH  17  18
ENDBRANCH  15  16
ENDBRANCH   1  15
TORSDOF 16
ENDMDL
MODEL 6
REMARK VINA RESULT:      -7.1      5.817     12.390
REMARK  16 active torsions:
REMARK  status: ('A' for Active; 'I' for Inactive)
REMARK    1  A    between atoms: C_2  and  C_3 
REMARK    2  A    between atoms: C_3  and  C_4 
REMARK    3  A    between atoms: C_4  and  C_5 
REMARK    4  A    between atoms: C_5  and  C_6 
REMARK    5  A    between atoms: C_7  and  C_8 
REMARK    6  A    between atoms: C_8  and  C_9 
REMARK    7  A    between atoms: C_10  and  C_11 
REMARK    8  A    between atoms: C_11  and  C_12 
REMARK    9  A    between atoms: C_13  and  C_14 
REMARK   10  A    between atoms: C_15  and  C_16 
REMARK   11  A    between atoms: C_16  and  O_17 
REMARK   12  A    between atoms: C_16  and  C_18 
REMARK   13  A    between atoms: C_18  and  C_19 
REMARK   14  A    between atoms: C_19  and  C_20 
REMARK   15  A    between atoms: C_20  and  C_21 
REMARK   16  A    between atoms: C_21  and  O_23 
ROOT
HETATM    1  C   UNL     1     -21.462  -7.309  -3.948  1.00  0.00    -0.023 C 
HETATM    2  C   UNL     1     -21.667  -6.206  -3.214  1.00  0.00    -0.004 C 
ENDROOT
BRANCH   2   3
HETATM    3  C   UNL     1     -22.043  -6.252  -1.822  1.00  0.00    -0.002 C 
HETATM    4  C   UNL     1     -22.051  -7.389  -1.106  1.00  0.00     0.004 C 
BRANCH   4   5
HETATM    5  C   UNL     1     -22.383  -7.437   0.357  1.00  0.00     0.141 C 
BRANCH   5   6
HETATM    6  O   UNL     1     -23.780  -7.671   0.495  1.00  0.00    -0.392 OA
HETATM    7  H   UNL     1     -23.905  -8.347   1.179  1.00  0.00     0.210 HD
ENDBRANCH   5   6
BRANCH   5   8
HETATM    8  C   UNL     1     -21.622  -8.548   1.095  1.00  0.00     0.036 C 
BRANCH   8   9
HETATM    9  C   UNL     1     -21.487  -9.822   0.257  1.00  0.00     0.013 C 
BRANCH   9  10
HETATM   10  C   UNL     1     -20.701 -10.912   0.981  1.00  0.00     0.110 C 
BRANCH  10  11
HETATM   11  C   UNL     1     -21.264 -12.283   0.676  1.00  0.00     0.139 C 
HETATM   12  O   UNL     1     -22.421 -12.629   0.849  1.00  0.00    -0.650 OA
BRANCH  11  13
HETATM   13  O   UNL     1     -20.329 -13.124   0.175  1.00  0.00    -0.776 OA
HETATM   14  H   UNL     1     -19.945 -13.726   0.841  1.00  0.00     0.167 HD
ENDBRANCH  11  13
ENDBRANCH  10  11
ENDBRANCH   9  10
ENDBRANCH   8   9
ENDBRANCH   5   8
ENDBRANCH   4   5
ENDBRANCH   2   3
BRANCH   1  15
HETATM   15  C   UNL     1     -21.045  -7.277  -5.389  1.00  0.00     0.054 C 
BRANCH  15  16
HETATM   16  C   UNL     1     -20.836  -5.871  -5.870  1.00  0.00    -0.027 C 
HETATM   17  C   UNL     1     -21.670  -5.233  -6.707  1.00  0.00    -0.027 C 
BRANCH  17  18
HETATM   18  C   UNL     1     -21.440  -3.842  -7.218  1.00  0.00     0.053 C 
BRANCH  18  19
HETATM   19  C   UNL     1     -22.194  -3.601  -8.491  1.00  0.00    -0.027 C 
HETATM   20  C   UNL     1     -23.394  -4.137  -8.763  1.00  0.00    -0.030 C 
BRANCH  20  21
HETATM   21  C   UNL     1     -24.135  -3.905 -10.046  1.00  0.00     0.027 C 
BRANCH  21  22
HETATM   22  C   UNL     1     -23.583  -4.787 -11.167  1.00  0.00     0.004 C 
BRANCH  22  23
HETATM   23  C   UNL     1     -22.413  -4.102 -11.872  1.00  0.00    -0.000 C 
BRANCH  23  24
HETATM   24  C   UNL     1     -22.735  -2.645 -12.196  1.00  0.00    -0.005 C 
HETATM   25  C   UNL     1     -23.594  -2.538 -13.446  1.00  0.00     0.005 C 
ENDBRANCH  23  24
ENDBRANCH  22  23
ENDBRANCH  21  22
ENDBRANCH  20  21
ENDBRANCH  18  19
ENDBRANCH  17  18
ENDBRANCH  15  16
ENDBRANCH   1  15
TORSDOF 16
ENDMDL
MODEL 7
REMARK VINA RESULT:      -7.0      5.637     11.631
REMARK  16 active torsions:
REMARK  status: ('A' for Active; 'I' for Inactive)
REMARK    1  A    between atoms: C_2  and  C_3 
REMARK    2  A    between atoms: C_3  and  C_4 
REMARK    3  A    between atoms: C_4  and  C_5 
REMARK    4  A    between atoms: C_5  and  C_6 
REMARK    5  A    between atoms: C_7  and  C_8 
REMARK    6  A    between atoms: C_8  and  C_9 
REMARK    7  A    between atoms: C_10  and  C_11 
REMARK    8  A    between atoms: C_11  and  C_12 
REMARK    9  A    between atoms: C_13  and  C_14 
REMARK   10  A    between atoms: C_15  and  C_16 
REMARK   11  A    between atoms: C_16  and  O_17 
REMARK   12  A    between atoms: C_16  and  C_18 
REMARK   13  A    between atoms: C_18  and  C_19 
REMARK   14  A    between atoms: C_19  and  C_20 
REMARK   15  A    between atoms: C_20  and  C_21 
REMARK   16  A    between atoms: C_21  and  O_23 
ROOT
HETATM    1  C   UNL     1     -21.852  -6.908  -4.249  1.00  0.00    -0.023 C 
HETATM    2  C   UNL     1     -21.645  -6.403  -3.024  1.00  0.00    -0.004 C 
ENDROOT
BRANCH   2   3
HETATM    3  C   UNL     1     -21.239  -7.215  -1.903  1.00  0.00    -0.002 C 
HETATM    4  C   UNL     1     -22.015  -7.410  -0.824  1.00  0.00     0.004 C 
BRANCH   4   5
HETATM    5  C   UNL     1     -21.626  -8.301   0.319  1.00  0.00     0.141 C 
BRANCH   5   6
HETATM    6  O   UNL     1     -22.336  -7.880   1.479  1.00  0.00    -0.392 OA
HETATM    7  H   UNL     1     -23.285  -7.965   1.296  1.00  0.00     0.210 HD
ENDBRANCH   5   6
BRANCH   5   8
HETATM    8  C   UNL     1     -21.950  -9.777   0.050  1.00  0.00     0.036 C 
BRANCH   8   9
HETATM    9  C   UNL     1     -23.438 -10.011  -0.217  1.00  0.00     0.013 C 
BRANCH   9  10
HETATM   10  C   UNL     1     -23.763 -11.485  -0.447  1.00  0.00     0.110 C 
BRANCH  10  11
HETATM   11  C   UNL     1     -23.041 -12.019  -1.664  1.00  0.00     0.139 C 
HETATM   12  O   UNL     1     -22.394 -13.053  -1.708  1.00  0.00    -0.650 OA
BRANCH  11  13
HETATM   13  O   UNL     1     -23.183 -11.213  -2.742  1.00  0.00    -0.776 OA
HETATM   14  H   UNL     1     -24.108 -10.961  -2.924  1.00  0.00     0.167 HD
ENDBRANCH  11  13
ENDBRANCH  10  11
ENDBRANCH   9  10
ENDBRANCH   8   9
ENDBRANCH   5   8
ENDBRANCH   4   5
ENDBRANCH   2   3
BRANCH   1  15
HETATM   15  C   UNL     1     -22.249  -6.074  -5.432  1.00  0.00     0.054 C 
BRANCH  15  16
HETATM   16  C   UNL     1     -21.084  -5.820  -6.341  1.00  0.00    -0.027 C 
HETATM   17  C   UNL     1     -20.777  -4.615  -6.848  1.00  0.00    -0.027 C 
BRANCH  17  18
HETATM   18  C   UNL     1     -19.634  -4.369  -7.789  1.00  0.00     0.053 C 
BRANCH  18  19
HETATM   19  C   UNL     1     -20.010  -4.711  -9.199  1.00  0.00    -0.027 C 
HETATM   20  C   UNL     1     -20.436  -3.812 -10.100  1.00  0.00    -0.030 C 
BRANCH  20  21
HETATM   21  C   UNL     1     -20.826  -4.165 -11.504  1.00  0.00     0.027 C 
BRANCH  21  22
HETATM   22  C   UNL     1     -22.235  -3.664 -11.825  1.00  0.00     0.004 C 
BRANCH  22  23
HETATM   23  C   UNL     1     -23.291  -4.611 -11.257  1.00  0.00    -0.000 C 
BRANCH  23  24
HETATM   24  C   UNL     1     -24.244  -3.878 -10.314  1.00  0.00    -0.005 C 
HETATM   25  C   UNL     1     -23.815  -4.041  -8.865  1.00  0.00     0.005 C 
ENDBRANCH  23  24
ENDBRANCH  22  23
ENDBRANCH  21  22
ENDBRANCH  20  21
ENDBRANCH  18  19
ENDBRANCH  17  18
ENDBRANCH  15  16
ENDBRANCH   1  15
TORSDOF 16
ENDMDL
MODEL 8
REMARK VINA RESULT:      -6.9      2.640      5.640
REMARK  16 active torsions:
REMARK  status: ('A' for Active; 'I' for Inactive)
REMARK    1  A    between atoms: C_2  and  C_3 
REMARK    2  A    between atoms: C_3  and  C_4 
REMARK    3  A    between atoms: C_4  and  C_5 
REMARK    4  A    between atoms: C_5  and  C_6 
REMARK    5  A    between atoms: C_7  and  C_8 
REMARK    6  A    between atoms: C_8  and  C_9 
REMARK    7  A    between atoms: C_10  and  C_11 
REMARK    8  A    between atoms: C_11  and  C_12 
REMARK    9  A    between atoms: C_13  and  C_14 
REMARK   10  A    between atoms: C_15  and  C_16 
REMARK   11  A    between atoms: C_16  and  O_17 
REMARK   12  A    between atoms: C_16  and  C_18 
REMARK   13  A    between atoms: C_18  and  C_19 
REMARK   14  A    between atoms: C_19  and  C_20 
REMARK   15  A    between atoms: C_20  and  C_21 
REMARK   16  A    between atoms: C_21  and  O_23 
ROOT
HETATM    1  C   UNL     1     -21.626  -6.037  -2.736  1.00  0.00    -0.023 C 
HETATM    2  C   UNL     1     -22.126  -6.735  -3.767  1.00  0.00    -0.004 C 
ENDROOT
BRANCH   2   3
HETATM    3  C   UNL     1     -21.673  -6.556  -5.125  1.00  0.00    -0.002 C 
HETATM    4  C   UNL     1     -20.825  -5.579  -5.488  1.00  0.00     0.004 C 
BRANCH   4   5
HETATM    5  C   UNL     1     -20.302  -5.423  -6.886  1.00  0.00     0.141 C 
BRANCH   5   6
HETATM    6  O   UNL     1     -19.454  -6.530  -7.176  1.00  0.00    -0.392 OA
HETATM    7  H   UNL     1     -19.400  -6.621  -8.140  1.00  0.00     0.210 HD
ENDBRANCH   5   6
BRANCH   5   8
HETATM    8  C   UNL     1     -21.425  -5.374  -7.932  1.00  0.00     0.036 C 
BRANCH   8   9
HETATM    9  C   UNL     1     -21.947  -3.954  -8.164  1.00  0.00     0.013 C 
BRANCH   9  10
HETATM   10  C   UNL     1     -22.385  -3.725  -9.609  1.00  0.00     0.110 C 
BRANCH  10  11
HETATM   11  C   UNL     1     -23.868  -3.435  -9.689  1.00  0.00     0.139 C 
HETATM   12  O   UNL     1     -24.463  -3.055 -10.684  1.00  0.00    -0.650 OA
BRANCH  11  13
HETATM   13  O   UNL     1     -24.498  -3.643  -8.509  1.00  0.00    -0.776 OA
HETATM   14  H   UNL     1     -25.456  -3.808  -8.600  1.00  0.00     0.167 HD
ENDBRANCH  11  13
ENDBRANCH  10  11
ENDBRANCH   9  10
ENDBRANCH   8   9
ENDBRANCH   5   8
ENDBRANCH   4   5
ENDBRANCH   2   3
BRANCH   1  15
HETATM   15  C   UNL     1     -22.068  -6.230  -1.316  1.00  0.00     0.054 C 
BRANCH  15  16
HETATM   16  C   UNL     1     -22.123  -7.683  -0.949  1.00  0.00    -0.027 C 
HETATM   17  C   UNL     1     -22.984  -8.200  -0.057  1.00  0.00    -0.027 C 
BRANCH  17  18
HETATM   18  C   UNL     1     -23.013  -9.647   0.337  1.00  0.00     0.053 C 
BRANCH  18  19
HETATM   19  C   UNL     1     -23.330 -10.522  -0.838  1.00  0.00    -0.027 C 
HETATM   20  C   UNL     1     -22.428 -10.895  -1.759  1.00  0.00    -0.030 C 
BRANCH  20  21
HETATM   21  C   UNL     1     -22.757 -11.757  -2.942  1.00  0.00     0.027 C 
BRANCH  21  22
HETATM   22  C   UNL     1     -22.115 -11.208  -4.217  1.00  0.00     0.004 C 
BRANCH  22  23
HETATM   23  C   UNL     1     -20.599 -11.098  -4.059  1.00  0.00    -0.000 C 
BRANCH  23  24
HETATM   24  C   UNL     1     -20.058  -9.847  -4.746  1.00  0.00    -0.005 C 
HETATM   25  C   UNL     1     -19.179  -9.040  -3.805  1.00  0.00     0.005 C 
ENDBRANCH  23  24
ENDBRANCH  22  23
ENDBRANCH  21  22
ENDBRANCH  20  21
ENDBRANCH  18  19
ENDBRANCH  17  18
ENDBRANCH  15  16
ENDBRANCH   1  15
TORSDOF 16
ENDMDL
MODEL 9
REMARK VINA RESULT:      -6.9      1.598      1.982
REMARK  16 active torsions:
REMARK  status: ('A' for Active; 'I' for Inactive)
REMARK    1  A    between atoms: C_2  and  C_3 
REMARK    2  A    between atoms: C_3  and  C_4 
REMARK    3  A    between atoms: C_4  and  C_5 
REMARK    4  A    between atoms: C_5  and  C_6 
REMARK    5  A    between atoms: C_7  and  C_8 
REMARK    6  A    between atoms: C_8  and  C_9 
REMARK    7  A    between atoms: C_10  and  C_11 
REMARK    8  A    between atoms: C_11  and  C_12 
REMARK    9  A    between atoms: C_13  and  C_14 
REMARK   10  A    between atoms: C_15  and  C_16 
REMARK   11  A    between atoms: C_16  and  O_17 
REMARK   12  A    between atoms: C_16  and  C_18 
REMARK   13  A    between atoms: C_18  and  C_19 
REMARK   14  A    between atoms: C_19  and  C_20 
REMARK   15  A    between atoms: C_20  and  C_21 
REMARK   16  A    between atoms: C_21  and  O_23 
ROOT
HETATM    1  C   UNL     1     -20.273  -4.181  -8.427  1.00  0.00    -0.023 C 
HETATM    2  C   UNL     1     -21.567  -3.926  -8.186  1.00  0.00    -0.004 C 
ENDROOT
BRANCH   2   3
HETATM    3  C   UNL     1     -22.509  -3.609  -9.232  1.00  0.00    -0.002 C 
HETATM    4  C   UNL     1     -22.286  -3.892 -10.525  1.00  0.00     0.004 C 
BRANCH   4   5
HETATM    5  C   UNL     1     -23.285  -3.620 -11.611  1.00  0.00     0.141 C 
BRANCH   5   6
HETATM    6  O   UNL     1     -24.423  -2.992 -11.029  1.00  0.00    -0.392 OA
HETATM    7  H   UNL     1     -24.967  -3.681 -10.616  1.00  0.00     0.210 HD
ENDBRANCH   5   6
BRANCH   5   8
HETATM    8  C   UNL     1     -22.725  -2.706 -12.710  1.00  0.00     0.036 C 
BRANCH   8   9
HETATM    9  C   UNL     1     -23.545  -2.771 -14.001  1.00  0.00     0.013 C 
BRANCH   9  10
HETATM   10  C   UNL     1     -23.051  -1.783 -15.054  1.00  0.00     0.110 C 
BRANCH  10  11
HETATM   11  C   UNL     1     -23.974  -0.588 -15.157  1.00  0.00     0.139 C 
HETATM   12  O   UNL     1     -23.768   0.412 -15.825  1.00  0.00    -0.650 OA
BRANCH  11  13
HETATM   13  O   UNL     1     -25.093  -0.736 -14.409  1.00  0.00    -0.776 OA
HETATM   14  H   UNL     1     -25.896  -0.375 -14.830  1.00  0.00     0.167 HD
ENDBRANCH  11  13
ENDBRANCH  10  11
ENDBRANCH   9  10
ENDBRANCH   8   9
ENDBRANCH   5   8
ENDBRANCH   4   5
ENDBRANCH   2   3
BRANCH   1  15
HETATM   15  C   UNL     1     -19.286  -4.538  -7.355  1.00  0.00     0.054 C 
BRANCH  15  16
HETATM   16  C   UNL     1     -19.973  -5.074  -6.133  1.00  0.00    -0.027 C 
HETATM   17  C   UNL     1     -20.210  -6.378  -5.918  1.00  0.00    -0.027 C 
BRANCH  17  18
HETATM   18  C   UNL     1     -20.931  -6.910  -4.714  1.00  0.00     0.053 C 
BRANCH  18  19
HETATM   19  C   UNL     1     -20.978  -8.408  -4.729  1.00  0.00    -0.027 C 
HETATM   20  C   UNL     1     -21.724  -9.143  -3.890  1.00  0.00    -0.030 C 
BRANCH  20  21
HETATM   21  C   UNL     1     -21.753 -10.642  -3.900  1.00  0.00     0.027 C 
BRANCH  21  22
HETATM   22  C   UNL     1     -22.962 -11.174  -3.131  1.00  0.00     0.004 C 
BRANCH  22  23
HETATM   23  C   UNL     1     -22.819 -10.898  -1.634  1.00  0.00    -0.000 C 
BRANCH  23  24
HETATM   24  C   UNL     1     -21.871 -11.896  -0.973  1.00  0.00    -0.005 C 
HETATM   25  C   UNL     1     -22.262 -13.326  -1.305  1.00  0.00     0.005 C 
ENDBRANCH  23  24
ENDBRANCH  22  23
ENDBRANCH  21  22
ENDBRANCH  20  21
ENDBRANCH  18  19
ENDBRANCH  17  18
ENDBRANCH  15  16
ENDBRANCH   1  15
TORSDOF 16
ENDMDL
