REMARK  10 active torsions:
REMARK  status: ('A' for Active; 'I' for Inactive)
REMARK    1  A    between atoms: C_2  and  O_3 
REMARK    2  A    between atoms: O_3  and  C_4 
REMARK    3  A    between atoms: C_4  and  C_6 
REMARK    4  A    between atoms: C_7  and  C_8 
REMARK    5  A    between atoms: C_17  and  C_18 
REMARK    6  A    between atoms: C_18  and  S_20 
REMARK    7  A    between atoms: S_20  and  C_21 
REMARK    8  A    between atoms: C_21  and  C_22 
REMARK    9  A    between atoms: C_22  and  O_23 
REMARK   10  A    between atoms: C_25  and  C_26 
ROOT
HETATM    1  C   UNL     1       4.839  -2.680  -1.234  1.00  0.00     0.053 C 
HETATM    2  C   UNL     1       5.760  -3.319  -0.477  1.00  0.00     0.055 C 
HETATM    3  N   UNL     1       6.105  -4.626  -0.739  1.00  0.00    -0.358 N 
HETATM    4  C   UNL     1       5.492  -5.443  -1.667  1.00  0.00     0.017 C 
HETATM    5  C   UNL     1       6.019  -6.861  -1.683  1.00  0.00     0.069 C 
HETATM    6  C   UNL     1       4.528  -4.941  -2.483  1.00  0.00     0.030 C 
HETATM    7  C   UNL     1       4.151  -3.430  -2.419  1.00  0.00     0.066 C 
HETATM    8  H   UNL     1       6.812  -5.036  -0.133  1.00  0.00     0.166 HD
ENDROOT
BRANCH   6   9
HETATM    9  C   UNL     1       3.819  -5.920  -3.390  1.00  0.00     0.217 C 
HETATM   10  O   UNL     1       3.659  -7.098  -3.091  1.00  0.00    -0.280 OA
BRANCH   9  11
HETATM   11  S   UNL     1       3.233  -5.336  -4.933  1.00  0.00    -0.085 SA
BRANCH  11  12
HETATM   12  C   UNL     1       1.695  -6.331  -5.099  1.00  0.00     0.108 C 
BRANCH  12  13
HETATM   13  C   UNL     1       0.769  -6.489  -3.882  1.00  0.00     0.177 C 
BRANCH  13  14
HETATM   14  O   UNL     1       0.135  -5.259  -3.526  1.00  0.00    -0.395 OA
HETATM   15  C   UNL     1      -0.762  -5.440  -2.430  1.00  0.00     0.201 C 
ENDBRANCH  13  14
ENDBRANCH  12  13
ENDBRANCH  11  12
ENDBRANCH   9  11
ENDBRANCH   6   9
BRANCH   7  16
HETATM   16  C   UNL     1       2.626  -3.166  -2.519  1.00  0.00     0.010 C 
HETATM   17  C   UNL     1       1.809  -3.561  -1.305  1.00  0.00     0.006 C 
ENDBRANCH   7  16
BRANCH   1  18
HETATM   18  C   UNL     1       4.563  -1.239  -0.953  1.00  0.00     0.292 C 
HETATM   19  O   UNL     1       5.399  -0.413  -0.624  1.00  0.00    -0.259 OA
BRANCH  18  20
HETATM   20  O   UNL     1       3.249  -0.973  -1.108  1.00  0.00    -0.318 OA
BRANCH  20  21
HETATM   21  C   UNL     1       2.777   0.361  -0.882  1.00  0.00     0.174 C 
HETATM   22  C   UNL     1       3.258   1.322  -1.954  1.00  0.00     0.034 C 
ENDBRANCH  20  21
ENDBRANCH  18  20
ENDBRANCH   1  18
BRANCH   2  23
HETATM   23  C   UNL     1       6.463  -2.752   0.695  1.00  0.00    -0.009 A 
HETATM   24  C   UNL     1       5.937  -2.955   1.978  1.00  0.00     0.014 A 
HETATM   25  C   UNL     1       6.616  -2.479   3.102  1.00  0.00     0.001 A 
HETATM   26  C   UNL     1       7.825  -1.801   2.952  1.00  0.00     0.000 A 
HETATM   27  C   UNL     1       8.359  -1.600   1.680  1.00  0.00     0.001 A 
HETATM   28  C   UNL     1       7.684  -2.080   0.554  1.00  0.00     0.014 A 
ENDBRANCH   2  23
TORSDOF 10
