MODEL 1
REMARK VINA RESULT:      -6.0      0.000      0.000
REMARK  10 active torsions:
REMARK  status: ('A' for Active; 'I' for Inactive)
REMARK    1  A    between atoms: C_2  and  O_3 
REMARK    2  A    between atoms: O_3  and  C_4 
REMARK    3  A    between atoms: C_4  and  C_6 
REMARK    4  A    between atoms: C_7  and  C_8 
REMARK    5  A    between atoms: C_17  and  C_18 
REMARK    6  A    between atoms: C_18  and  S_20 
REMARK    7  A    between atoms: S_20  and  C_21 
REMARK    8  A    between atoms: C_21  and  C_22 
REMARK    9  A    between atoms: C_22  and  O_23 
REMARK   10  A    between atoms: C_25  and  C_26 
ROOT
HETATM    1  C   UNL     1     -20.881  -8.730  -3.804  1.00  0.00     0.053 C 
HETATM    2  C   UNL     1     -21.283  -7.454  -3.608  1.00  0.00     0.055 C 
HETATM    3  N   UNL     1     -21.739  -7.039  -2.377  1.00  0.00    -0.358 N 
HETATM    4  C   UNL     1     -21.958  -7.858  -1.289  1.00  0.00     0.017 C 
HETATM    5  C   UNL     1     -22.545  -7.147  -0.089  1.00  0.00     0.069 C 
HETATM    6  C   UNL     1     -21.623  -9.174  -1.350  1.00  0.00     0.030 C 
HETATM    7  C   UNL     1     -20.936  -9.752  -2.624  1.00  0.00     0.066 C 
HETATM    8  H   UNL     1     -22.015  -6.062  -2.304  1.00  0.00     0.166 HD
ENDROOT
BRANCH   6   9
HETATM    9  C   UNL     1     -22.000 -10.034  -0.167  1.00  0.00     0.217 C 
HETATM   10  O   UNL     1     -23.159 -10.360   0.068  1.00  0.00    -0.280 OA
BRANCH   9  11
HETATM   11  S   UNL     1     -20.724 -10.554   0.913  1.00  0.00    -0.085 SA
BRANCH  11  12
HETATM   12  C   UNL     1     -20.542 -12.308   0.388  1.00  0.00     0.108 C 
BRANCH  12  13
HETATM   13  C   UNL     1     -19.300 -12.725  -0.417  1.00  0.00     0.177 C 
BRANCH  13  14
HETATM   14  O   UNL     1     -18.481 -11.606  -0.759  1.00  0.00    -0.395 OA
HETATM   15  C   UNL     1     -17.095 -11.918  -0.614  1.00  0.00     0.201 C 
ENDBRANCH  13  14
ENDBRANCH  12  13
ENDBRANCH  11  12
ENDBRANCH   9  11
ENDBRANCH   6   9
BRANCH   7  16
HETATM   16  C   UNL     1     -21.469 -11.149  -3.037  1.00  0.00     0.010 C 
HETATM   17  C   UNL     1     -22.902 -11.186  -3.530  1.00  0.00     0.006 C 
ENDBRANCH   7  16
BRANCH   1  18
HETATM   18  C   UNL     1     -20.321  -9.103  -5.138  1.00  0.00     0.292 C 
HETATM   19  O   UNL     1     -20.958  -9.594  -6.056  1.00  0.00    -0.259 OA
BRANCH  18  20
HETATM   20  O   UNL     1     -19.002  -8.824  -5.189  1.00  0.00    -0.318 OA
BRANCH  20  21
HETATM   21  C   UNL     1     -18.059  -9.875  -4.943  1.00  0.00     0.174 C 
HETATM   22  C   UNL     1     -17.288  -9.654  -3.654  1.00  0.00     0.034 C 
ENDBRANCH  20  21
ENDBRANCH  18  20
ENDBRANCH   1  18
BRANCH   2  23
HETATM   23  C   UNL     1     -21.323  -6.390  -4.636  1.00  0.00    -0.009 A 
HETATM   24  C   UNL     1     -20.215  -5.548  -4.799  1.00  0.00     0.014 A 
HETATM   25  C   UNL     1     -20.209  -4.576  -5.802  1.00  0.00     0.001 A 
HETATM   26  C   UNL     1     -21.307  -4.442  -6.650  1.00  0.00     0.000 A 
HETATM   27  C   UNL     1     -22.412  -5.279  -6.499  1.00  0.00     0.001 A 
HETATM   28  C   UNL     1     -22.418  -6.256  -5.499  1.00  0.00     0.014 A 
ENDBRANCH   2  23
TORSDOF 10
ENDMDL
MODEL 2
REMARK VINA RESULT:      -5.9      2.774      5.221
REMARK  10 active torsions:
REMARK  status: ('A' for Active; 'I' for Inactive)
REMARK    1  A    between atoms: C_2  and  O_3 
REMARK    2  A    between atoms: O_3  and  C_4 
REMARK    3  A    between atoms: C_4  and  C_6 
REMARK    4  A    between atoms: C_7  and  C_8 
REMARK    5  A    between atoms: C_17  and  C_18 
REMARK    6  A    between atoms: C_18  and  S_20 
REMARK    7  A    between atoms: S_20  and  C_21 
REMARK    8  A    between atoms: C_21  and  C_22 
REMARK    9  A    between atoms: C_22  and  O_23 
REMARK   10  A    between atoms: C_25  and  C_26 
ROOT
HETATM    1  C   UNL     1     -20.075 -10.613  -1.884  1.00  0.00     0.053 C 
HETATM    2  C   UNL     1     -19.690  -9.538  -2.609  1.00  0.00     0.055 C 
HETATM    3  N   UNL     1     -18.369  -9.356  -2.953  1.00  0.00    -0.358 N 
HETATM    4  C   UNL     1     -17.315 -10.130  -2.512  1.00  0.00     0.017 C 
HETATM    5  C   UNL     1     -15.959  -9.648  -2.980  1.00  0.00     0.069 C 
HETATM    6  C   UNL     1     -17.551 -11.231  -1.751  1.00  0.00     0.030 C 
HETATM    7  C   UNL     1     -19.013 -11.662  -1.423  1.00  0.00     0.066 C 
HETATM    8  H   UNL     1     -18.157  -8.530  -3.507  1.00  0.00     0.166 HD
ENDROOT
BRANCH   6   9
HETATM    9  C   UNL     1     -16.345 -11.960  -1.206  1.00  0.00     0.217 C 
HETATM   10  O   UNL     1     -15.639 -11.494  -0.319  1.00  0.00    -0.280 OA
BRANCH   9  11
HETATM   11  S   UNL     1     -15.943 -13.517  -1.898  1.00  0.00    -0.085 SA
BRANCH  11  12
HETATM   12  C   UNL     1     -14.492 -13.054  -2.929  1.00  0.00     0.108 C 
BRANCH  12  13
HETATM   13  C   UNL     1     -14.676 -12.879  -4.446  1.00  0.00     0.177 C 
BRANCH  13  14
HETATM   14  O   UNL     1     -13.537 -12.270  -5.058  1.00  0.00    -0.395 OA
HETATM   15  C   UNL     1     -13.366 -12.730  -6.398  1.00  0.00     0.201 C 
ENDBRANCH  13  14
ENDBRANCH  12  13
ENDBRANCH  11  12
ENDBRANCH   9  11
ENDBRANCH   6   9
BRANCH   7  16
HETATM   16  C   UNL     1     -19.206 -12.140   0.039  1.00  0.00     0.010 C 
HETATM   17  C   UNL     1     -19.525 -13.611   0.214  1.00  0.00     0.006 C 
ENDBRANCH   7  16
BRANCH   1  18
HETATM   18  C   UNL     1     -21.531 -10.800  -1.608  1.00  0.00     0.292 C 
HETATM   19  O   UNL     1     -22.322 -11.360  -2.351  1.00  0.00    -0.259 OA
BRANCH  18  20
HETATM   20  O   UNL     1     -21.859 -10.256  -0.418  1.00  0.00    -0.318 OA
BRANCH  20  21
HETATM   21  C   UNL     1     -23.181  -9.738  -0.228  1.00  0.00     0.174 C 
HETATM   22  C   UNL     1     -23.166  -8.366   0.419  1.00  0.00     0.034 C 
ENDBRANCH  20  21
ENDBRANCH  18  20
ENDBRANCH   1  18
BRANCH   2  23
HETATM   23  C   UNL     1     -20.573  -8.449  -3.080  1.00  0.00    -0.009 A 
HETATM   24  C   UNL     1     -20.854  -7.373  -2.227  1.00  0.00     0.014 A 
HETATM   25  C   UNL     1     -21.637  -6.306  -2.673  1.00  0.00     0.001 A 
HETATM   26  C   UNL     1     -22.140  -6.304  -3.973  1.00  0.00     0.000 A 
HETATM   27  C   UNL     1     -21.860  -7.367  -4.830  1.00  0.00     0.001 A 
HETATM   28  C   UNL     1     -21.073  -8.434  -4.388  1.00  0.00     0.014 A 
ENDBRANCH   2  23
TORSDOF 10
ENDMDL
MODEL 3
REMARK VINA RESULT:      -5.9      3.318      5.602
REMARK  10 active torsions:
REMARK  status: ('A' for Active; 'I' for Inactive)
REMARK    1  A    between atoms: C_2  and  O_3 
REMARK    2  A    between atoms: O_3  and  C_4 
REMARK    3  A    between atoms: C_4  and  C_6 
REMARK    4  A    between atoms: C_7  and  C_8 
REMARK    5  A    between atoms: C_17  and  C_18 
REMARK    6  A    between atoms: C_18  and  S_20 
REMARK    7  A    between atoms: S_20  and  C_21 
REMARK    8  A    between atoms: C_21  and  C_22 
REMARK    9  A    between atoms: C_22  and  O_23 
REMARK   10  A    between atoms: C_25  and  C_26 
ROOT
HETATM    1  C   UNL     1     -19.850  -9.436  -4.381  1.00  0.00     0.053 C 
HETATM    2  C   UNL     1     -19.555  -8.968  -3.147  1.00  0.00     0.055 C 
HETATM    3  N   UNL     1     -18.271  -9.037  -2.654  1.00  0.00    -0.358 N 
HETATM    4  C   UNL     1     -17.213  -9.677  -3.268  1.00  0.00     0.017 C 
HETATM    5  C   UNL     1     -15.935  -9.668  -2.459  1.00  0.00     0.069 C 
HETATM    6  C   UNL     1     -17.371 -10.217  -4.505  1.00  0.00     0.030 C 
HETATM    7  C   UNL     1     -18.725 -10.067  -5.262  1.00  0.00     0.066 C 
HETATM    8  H   UNL     1     -18.125  -8.656  -1.722  1.00  0.00     0.166 HD
ENDROOT
BRANCH   6   9
HETATM    9  C   UNL     1     -16.208 -11.004  -5.063  1.00  0.00     0.217 C 
HETATM   10  O   UNL     1     -15.414 -10.527  -5.865  1.00  0.00    -0.280 OA
BRANCH   9  11
HETATM   11  S   UNL     1     -16.019 -12.668  -4.550  1.00  0.00    -0.085 SA
BRANCH  11  12
HETATM   12  C   UNL     1     -14.270 -12.639  -3.980  1.00  0.00     0.108 C 
BRANCH  12  13
HETATM   13  C   UNL     1     -13.309 -13.742  -4.454  1.00  0.00     0.177 C 
BRANCH  13  14
HETATM   14  O   UNL     1     -13.220 -13.802  -5.879  1.00  0.00    -0.395 OA
HETATM   15  C   UNL     1     -13.151 -15.153  -6.335  1.00  0.00     0.201 C 
ENDBRANCH  13  14
ENDBRANCH  12  13
ENDBRANCH  11  12
ENDBRANCH   9  11
ENDBRANCH   6   9
BRANCH   7  16
HETATM   16  C   UNL     1     -19.167 -11.355  -6.005  1.00  0.00     0.010 C 
HETATM   17  C   UNL     1     -19.713 -12.465  -5.128  1.00  0.00     0.006 C 
ENDBRANCH   7  16
BRANCH   1  18
HETATM   18  C   UNL     1     -21.242  -9.263  -4.894  1.00  0.00     0.292 C 
HETATM   19  O   UNL     1     -22.240  -9.767  -4.405  1.00  0.00    -0.259 OA
BRANCH  18  20
HETATM   20  O   UNL     1     -21.246  -8.471  -5.987  1.00  0.00    -0.318 OA
BRANCH  20  21
HETATM   21  C   UNL     1     -21.406  -7.057  -5.821  1.00  0.00     0.174 C 
HETATM   22  C   UNL     1     -20.174  -6.290  -6.268  1.00  0.00     0.034 C 
ENDBRANCH  20  21
ENDBRANCH  18  20
ENDBRANCH   1  18
BRANCH   2  23
HETATM   23  C   UNL     1     -20.519  -8.382  -2.189  1.00  0.00    -0.009 A 
HETATM   24  C   UNL     1     -21.028  -7.098  -2.424  1.00  0.00     0.014 A 
HETATM   25  C   UNL     1     -21.983  -6.550  -1.564  1.00  0.00     0.001 A 
HETATM   26  C   UNL     1     -22.437  -7.282  -0.468  1.00  0.00     0.000 A 
HETATM   27  C   UNL     1     -21.941  -8.563  -0.230  1.00  0.00     0.001 A 
HETATM   28  C   UNL     1     -20.989  -9.115  -1.092  1.00  0.00     0.014 A 
ENDBRANCH   2  23
TORSDOF 10
ENDMDL
MODEL 4
REMARK VINA RESULT:      -5.8      1.574      2.168
REMARK  10 active torsions:
REMARK  status: ('A' for Active; 'I' for Inactive)
REMARK    1  A    between atoms: C_2  and  O_3 
REMARK    2  A    between atoms: O_3  and  C_4 
REMARK    3  A    between atoms: C_4  and  C_6 
REMARK    4  A    between atoms: C_7  and  C_8 
REMARK    5  A    between atoms: C_17  and  C_18 
REMARK    6  A    between atoms: C_18  and  S_20 
REMARK    7  A    between atoms: S_20  and  C_21 
REMARK    8  A    between atoms: C_21  and  C_22 
REMARK    9  A    between atoms: C_22  and  O_23 
REMARK   10  A    between atoms: C_25  and  C_26 
ROOT
HETATM    1  C   UNL     1     -20.800  -8.858  -3.722  1.00  0.00     0.053 C 
HETATM    2  C   UNL     1     -21.216  -7.580  -3.568  1.00  0.00     0.055 C 
HETATM    3  N   UNL     1     -21.718  -7.142  -2.363  1.00  0.00    -0.358 N 
HETATM    4  C   UNL     1     -21.972  -7.940  -1.267  1.00  0.00     0.017 C 
HETATM    5  C   UNL     1     -22.605  -7.207  -0.104  1.00  0.00     0.069 C 
HETATM    6  C   UNL     1     -21.629  -9.255  -1.288  1.00  0.00     0.030 C 
HETATM    7  C   UNL     1     -20.894  -9.856  -2.524  1.00  0.00     0.066 C 
HETATM    8  H   UNL     1     -22.001  -6.166  -2.321  1.00  0.00     0.166 HD
ENDROOT
BRANCH   6   9
HETATM    9  C   UNL     1     -22.045 -10.092  -0.101  1.00  0.00     0.217 C 
HETATM   10  O   UNL     1     -21.272 -10.380   0.806  1.00  0.00    -0.280 OA
BRANCH   9  11
HETATM   11  S   UNL     1     -23.692 -10.686  -0.049  1.00  0.00    -0.085 SA
BRANCH  11  12
HETATM   12  C   UNL     1     -23.387 -12.480   0.213  1.00  0.00     0.108 C 
BRANCH  12  13
HETATM   13  C   UNL     1     -23.930 -13.491  -0.810  1.00  0.00     0.177 C 
BRANCH  13  14
HETATM   14  O   UNL     1     -22.883 -14.223  -1.451  1.00  0.00    -0.395 OA
HETATM   15  C   UNL     1     -21.692 -14.214  -0.663  1.00  0.00     0.201 C 
ENDBRANCH  13  14
ENDBRANCH  12  13
ENDBRANCH  11  12
ENDBRANCH   9  11
ENDBRANCH   6   9
BRANCH   7  16
HETATM   16  C   UNL     1     -21.405 -11.264  -2.927  1.00  0.00     0.010 C 
HETATM   17  C   UNL     1     -22.755 -11.301  -3.616  1.00  0.00     0.006 C 
ENDBRANCH   7  16
BRANCH   1  18
HETATM   18  C   UNL     1     -20.191  -9.256  -5.027  1.00  0.00     0.292 C 
HETATM   19  O   UNL     1     -20.812  -9.623  -6.012  1.00  0.00    -0.259 OA
BRANCH  18  20
HETATM   20  O   UNL     1     -18.847  -9.159  -4.967  1.00  0.00    -0.318 OA
BRANCH  20  21
HETATM   21  C   UNL     1     -18.048 -10.270  -5.393  1.00  0.00     0.174 C 
HETATM   22  C   UNL     1     -16.676  -9.832  -5.871  1.00  0.00     0.034 C 
ENDBRANCH  20  21
ENDBRANCH  18  20
ENDBRANCH   1  18
BRANCH   2  23
HETATM   23  C   UNL     1     -21.223  -6.539  -4.619  1.00  0.00    -0.009 A 
HETATM   24  C   UNL     1     -22.356  -6.387  -5.430  1.00  0.00     0.014 A 
HETATM   25  C   UNL     1     -22.406  -5.372  -6.388  1.00  0.00     0.001 A 
HETATM   26  C   UNL     1     -21.329  -4.500  -6.539  1.00  0.00     0.000 A 
HETATM   27  C   UNL     1     -20.201  -4.640  -5.732  1.00  0.00     0.001 A 
HETATM   28  C   UNL     1     -20.150  -5.651  -4.769  1.00  0.00     0.014 A 
ENDBRANCH   2  23
TORSDOF 10
ENDMDL
MODEL 5
REMARK VINA RESULT:      -5.7      2.736      5.375
REMARK  10 active torsions:
REMARK  status: ('A' for Active; 'I' for Inactive)
REMARK    1  A    between atoms: C_2  and  O_3 
REMARK    2  A    between atoms: O_3  and  C_4 
REMARK    3  A    between atoms: C_4  and  C_6 
REMARK    4  A    between atoms: C_7  and  C_8 
REMARK    5  A    between atoms: C_17  and  C_18 
REMARK    6  A    between atoms: C_18  and  S_20 
REMARK    7  A    between atoms: S_20  and  C_21 
REMARK    8  A    between atoms: C_21  and  C_22 
REMARK    9  A    between atoms: C_22  and  O_23 
REMARK   10  A    between atoms: C_25  and  C_26 
ROOT
HETATM    1  C   UNL     1     -20.149 -10.830  -2.892  1.00  0.00     0.053 C 
HETATM    2  C   UNL     1     -19.717  -9.571  -2.648  1.00  0.00     0.055 C 
HETATM    3  N   UNL     1     -18.372  -9.282  -2.608  1.00  0.00    -0.358 N 
HETATM    4  C   UNL     1     -17.353 -10.211  -2.672  1.00  0.00     0.017 C 
HETATM    5  C   UNL     1     -15.969  -9.620  -2.516  1.00  0.00     0.069 C 
HETATM    6  C   UNL     1     -17.641 -11.522  -2.888  1.00  0.00     0.030 C 
HETATM    7  C   UNL     1     -19.113 -11.975  -3.126  1.00  0.00     0.066 C 
HETATM    8  H   UNL     1     -18.124  -8.312  -2.429  1.00  0.00     0.166 HD
ENDROOT
BRANCH   6   9
HETATM    9  C   UNL     1     -16.488 -12.497  -2.827  1.00  0.00     0.217 C 
HETATM   10  O   UNL     1     -15.873 -12.726  -1.792  1.00  0.00    -0.280 OA
BRANCH   9  11
HETATM   11  S   UNL     1     -16.011 -13.300  -4.308  1.00  0.00    -0.085 SA
BRANCH  11  12
HETATM   12  C   UNL     1     -15.057 -11.954  -5.120  1.00  0.00     0.108 C 
BRANCH  12  13
HETATM   13  C   UNL     1     -15.669 -11.223  -6.326  1.00  0.00     0.177 C 
BRANCH  13  14
HETATM   14  O   UNL     1     -16.157  -9.927  -5.977  1.00  0.00    -0.395 OA
HETATM   15  C   UNL     1     -17.567  -9.834  -6.184  1.00  0.00     0.201 C 
ENDBRANCH  13  14
ENDBRANCH  12  13
ENDBRANCH  11  12
ENDBRANCH   9  11
ENDBRANCH   6   9
BRANCH   7  16
HETATM   16  C   UNL     1     -19.478 -13.300  -2.406  1.00  0.00     0.010 C 
HETATM   17  C   UNL     1     -19.866 -14.454  -3.309  1.00  0.00     0.006 C 
ENDBRANCH   7  16
BRANCH   1  18
HETATM   18  C   UNL     1     -21.620 -11.069  -3.003  1.00  0.00     0.292 C 
HETATM   19  O   UNL     1     -22.271 -10.983  -4.032  1.00  0.00    -0.259 OA
BRANCH  18  20
HETATM   20  O   UNL     1     -22.136 -11.389  -1.798  1.00  0.00    -0.318 OA
BRANCH  20  21
HETATM   21  C   UNL     1     -23.541 -11.216  -1.575  1.00  0.00     0.174 C 
HETATM   22  C   UNL     1     -23.835 -10.716  -0.172  1.00  0.00     0.034 C 
ENDBRANCH  20  21
ENDBRANCH  18  20
ENDBRANCH   1  18
BRANCH   2  23
HETATM   23  C   UNL     1     -20.576  -8.399  -2.372  1.00  0.00    -0.009 A 
HETATM   24  C   UNL     1     -20.898  -7.519  -3.414  1.00  0.00     0.014 A 
HETATM   25  C   UNL     1     -21.754  -6.440  -3.187  1.00  0.00     0.001 A 
HETATM   26  C   UNL     1     -22.298  -6.234  -1.920  1.00  0.00     0.000 A 
HETATM   27  C   UNL     1     -21.989  -7.108  -0.878  1.00  0.00     0.001 A 
HETATM   28  C   UNL     1     -21.136  -8.192  -1.104  1.00  0.00     0.014 A 
ENDBRANCH   2  23
TORSDOF 10
ENDMDL
MODEL 6
REMARK VINA RESULT:      -5.6      2.736      5.100
REMARK  10 active torsions:
REMARK  status: ('A' for Active; 'I' for Inactive)
REMARK    1  A    between atoms: C_2  and  O_3 
REMARK    2  A    between atoms: O_3  and  C_4 
REMARK    3  A    between atoms: C_4  and  C_6 
REMARK    4  A    between atoms: C_7  and  C_8 
REMARK    5  A    between atoms: C_17  and  C_18 
REMARK    6  A    between atoms: C_18  and  S_20 
REMARK    7  A    between atoms: S_20  and  C_21 
REMARK    8  A    between atoms: C_21  and  C_22 
REMARK    9  A    between atoms: C_22  and  O_23 
REMARK   10  A    between atoms: C_25  and  C_26 
ROOT
HETATM    1  C   UNL     1     -20.008 -10.599  -1.848  1.00  0.00     0.053 C 
HETATM    2  C   UNL     1     -19.637  -9.526  -2.584  1.00  0.00     0.055 C 
HETATM    3  N   UNL     1     -18.317  -9.325  -2.922  1.00  0.00    -0.358 N 
HETATM    4  C   UNL     1     -17.253 -10.076  -2.467  1.00  0.00     0.017 C 
HETATM    5  C   UNL     1     -15.903  -9.577  -2.933  1.00  0.00     0.069 C 
HETATM    6  C   UNL     1     -17.475 -11.173  -1.696  1.00  0.00     0.030 C 
HETATM    7  C   UNL     1     -18.931 -11.625  -1.371  1.00  0.00     0.066 C 
HETATM    8  H   UNL     1     -18.117  -8.502  -3.485  1.00  0.00     0.166 HD
ENDROOT
BRANCH   6   9
HETATM    9  C   UNL     1     -16.260 -11.875  -1.136  1.00  0.00     0.217 C 
HETATM   10  O   UNL     1     -15.670 -11.477  -0.138  1.00  0.00    -0.280 OA
BRANCH   9  11
HETATM   11  S   UNL     1     -15.672 -13.296  -1.974  1.00  0.00    -0.085 SA
BRANCH  11  12
HETATM   12  C   UNL     1     -14.360 -13.846  -0.808  1.00  0.00     0.108 C 
BRANCH  12  13
HETATM   13  C   UNL     1     -14.620 -15.064   0.093  1.00  0.00     0.177 C 
BRANCH  13  14
HETATM   14  O   UNL     1     -13.536 -15.309   0.991  1.00  0.00    -0.395 OA
HETATM   15  C   UNL     1     -12.599 -14.231   0.975  1.00  0.00     0.201 C 
ENDBRANCH  13  14
ENDBRANCH  12  13
ENDBRANCH  11  12
ENDBRANCH   9  11
ENDBRANCH   6   9
BRANCH   7  16
HETATM   16  C   UNL     1     -19.124 -12.090   0.096  1.00  0.00     0.010 C 
HETATM   17  C   UNL     1     -19.296 -13.583   0.295  1.00  0.00     0.006 C 
ENDBRANCH   7  16
BRANCH   1  18
HETATM   18  C   UNL     1     -21.462 -10.808  -1.579  1.00  0.00     0.292 C 
HETATM   19  O   UNL     1     -22.238 -11.394  -2.316  1.00  0.00    -0.259 OA
BRANCH  18  20
HETATM   20  O   UNL     1     -21.807 -10.250  -0.399  1.00  0.00    -0.318 OA
BRANCH  20  21
HETATM   21  C   UNL     1     -23.115  -9.686  -0.251  1.00  0.00     0.174 C 
HETATM   22  C   UNL     1     -23.073  -8.323   0.415  1.00  0.00     0.034 C 
ENDBRANCH  20  21
ENDBRANCH  18  20
ENDBRANCH   1  18
BRANCH   2  23
HETATM   23  C   UNL     1     -20.535  -8.457  -3.071  1.00  0.00    -0.009 A 
HETATM   24  C   UNL     1     -20.823  -7.367  -2.239  1.00  0.00     0.014 A 
HETATM   25  C   UNL     1     -21.621  -6.318  -2.702  1.00  0.00     0.001 A 
HETATM   26  C   UNL     1     -22.134  -6.350  -3.998  1.00  0.00     0.000 A 
HETATM   27  C   UNL     1     -21.848  -7.428  -4.835  1.00  0.00     0.001 A 
HETATM   28  C   UNL     1     -21.045  -8.476  -4.376  1.00  0.00     0.014 A 
ENDBRANCH   2  23
TORSDOF 10
ENDMDL
MODEL 7
REMARK VINA RESULT:      -5.5      3.453      6.056
REMARK  10 active torsions:
REMARK  status: ('A' for Active; 'I' for Inactive)
REMARK    1  A    between atoms: C_2  and  O_3 
REMARK    2  A    between atoms: O_3  and  C_4 
REMARK    3  A    between atoms: C_4  and  C_6 
REMARK    4  A    between atoms: C_7  and  C_8 
REMARK    5  A    between atoms: C_17  and  C_18 
REMARK    6  A    between atoms: C_18  and  S_20 
REMARK    7  A    between atoms: S_20  and  C_21 
REMARK    8  A    between atoms: C_21  and  C_22 
REMARK    9  A    between atoms: C_22  and  O_23 
REMARK   10  A    between atoms: C_25  and  C_26 
ROOT
HETATM    1  C   UNL     1     -20.462 -10.857  -3.013  1.00  0.00     0.053 C 
HETATM    2  C   UNL     1     -20.048  -9.786  -2.298  1.00  0.00     0.055 C 
HETATM    3  N   UNL     1     -18.744  -9.352  -2.368  1.00  0.00    -0.358 N 
HETATM    4  C   UNL     1     -17.721  -9.998  -3.032  1.00  0.00     0.017 C 
HETATM    5  C   UNL     1     -16.369  -9.340  -2.871  1.00  0.00     0.069 C 
HETATM    6  C   UNL     1     -17.986 -11.106  -3.774  1.00  0.00     0.030 C 
HETATM    7  C   UNL     1     -19.450 -11.618  -3.928  1.00  0.00     0.066 C 
HETATM    8  H   UNL     1     -18.510  -8.534  -1.810  1.00  0.00     0.166 HD
ENDROOT
BRANCH   6   9
HETATM    9  C   UNL     1     -16.803 -11.828  -4.374  1.00  0.00     0.217 C 
HETATM   10  O   UNL     1     -16.143 -12.648  -3.745  1.00  0.00    -0.280 OA
BRANCH   9  11
HETATM   11  S   UNL     1     -16.358 -11.448  -6.024  1.00  0.00    -0.085 SA
BRANCH  11  12
HETATM   12  C   UNL     1     -15.349 -12.929  -6.443  1.00  0.00     0.108 C 
BRANCH  12  13
HETATM   13  C   UNL     1     -13.817 -12.839  -6.365  1.00  0.00     0.177 C 
BRANCH  13  14
HETATM   14  O   UNL     1     -13.258 -13.877  -5.558  1.00  0.00    -0.395 OA
HETATM   15  C   UNL     1     -13.076 -15.075  -6.313  1.00  0.00     0.201 C 
ENDBRANCH  13  14
ENDBRANCH  12  13
ENDBRANCH  11  12
ENDBRANCH   9  11
ENDBRANCH   6   9
BRANCH   7  16
HETATM   16  C   UNL     1     -19.579 -13.162  -3.847  1.00  0.00     0.010 C 
HETATM   17  C   UNL     1     -19.254 -13.779  -2.502  1.00  0.00     0.006 C 
ENDBRANCH   7  16
BRANCH   1  18
HETATM   18  C   UNL     1     -21.906 -11.235  -2.958  1.00  0.00     0.292 C 
HETATM   19  O   UNL     1     -22.749 -10.915  -3.781  1.00  0.00    -0.259 OA
BRANCH  18  20
HETATM   20  O   UNL     1     -22.157 -11.979  -1.861  1.00  0.00    -0.318 OA
BRANCH  20  21
HETATM   21  C   UNL     1     -23.515 -12.182  -1.452  1.00  0.00     0.174 C 
HETATM   22  C   UNL     1     -23.976 -11.120  -0.470  1.00  0.00     0.034 C 
ENDBRANCH  20  21
ENDBRANCH  18  20
ENDBRANCH   1  18
BRANCH   2  23
HETATM   23  C   UNL     1     -20.879  -8.994  -1.364  1.00  0.00    -0.009 A 
HETATM   24  C   UNL     1     -20.882  -9.318  -0.001  1.00  0.00     0.014 A 
HETATM   25  C   UNL     1     -21.613  -8.546   0.906  1.00  0.00     0.001 A 
HETATM   26  C   UNL     1     -22.343  -7.446   0.457  1.00  0.00     0.000 A 
HETATM   27  C   UNL     1     -22.341  -7.113  -0.897  1.00  0.00     0.001 A 
HETATM   28  C   UNL     1     -21.606  -7.880  -1.805  1.00  0.00     0.014 A 
ENDBRANCH   2  23
TORSDOF 10
ENDMDL
MODEL 8
REMARK VINA RESULT:      -5.4      3.089      5.261
REMARK  10 active torsions:
REMARK  status: ('A' for Active; 'I' for Inactive)
REMARK    1  A    between atoms: C_2  and  O_3 
REMARK    2  A    between atoms: O_3  and  C_4 
REMARK    3  A    between atoms: C_4  and  C_6 
REMARK    4  A    between atoms: C_7  and  C_8 
REMARK    5  A    between atoms: C_17  and  C_18 
REMARK    6  A    between atoms: C_18  and  S_20 
REMARK    7  A    between atoms: S_20  and  C_21 
REMARK    8  A    between atoms: C_21  and  C_22 
REMARK    9  A    between atoms: C_22  and  O_23 
REMARK   10  A    between atoms: C_25  and  C_26 
ROOT
HETATM    1  C   UNL     1     -20.474 -10.865  -3.015  1.00  0.00     0.053 C 
HETATM    2  C   UNL     1     -20.057  -9.788  -2.310  1.00  0.00     0.055 C 
HETATM    3  N   UNL     1     -18.748  -9.365  -2.376  1.00  0.00    -0.358 N 
HETATM    4  C   UNL     1     -17.726 -10.028  -3.025  1.00  0.00     0.017 C 
HETATM    5  C   UNL     1     -16.370  -9.379  -2.861  1.00  0.00     0.069 C 
HETATM    6  C   UNL     1     -17.995 -11.143  -3.754  1.00  0.00     0.030 C 
HETATM    7  C   UNL     1     -19.461 -11.646  -3.913  1.00  0.00     0.066 C 
HETATM    8  H   UNL     1     -18.512  -8.542  -1.827  1.00  0.00     0.166 HD
ENDROOT
BRANCH   6   9
HETATM    9  C   UNL     1     -16.812 -11.882  -4.336  1.00  0.00     0.217 C 
HETATM   10  O   UNL     1     -16.651 -12.020  -5.543  1.00  0.00    -0.280 OA
BRANCH   9  11
HETATM   11  S   UNL     1     -15.653 -12.583  -3.227  1.00  0.00    -0.085 SA
BRANCH  11  12
HETATM   12  C   UNL     1     -16.773 -13.097  -1.861  1.00  0.00     0.108 C 
BRANCH  12  13
HETATM   13  C   UNL     1     -16.674 -12.384  -0.502  1.00  0.00     0.177 C 
BRANCH  13  14
HETATM   14  O   UNL     1     -17.907 -11.768  -0.128  1.00  0.00    -0.395 OA
HETATM   15  C   UNL     1     -18.986 -12.702  -0.181  1.00  0.00     0.201 C 
ENDBRANCH  13  14
ENDBRANCH  12  13
ENDBRANCH  11  12
ENDBRANCH   9  11
ENDBRANCH   6   9
BRANCH   7  16
HETATM   16  C   UNL     1     -19.604 -13.187  -3.813  1.00  0.00     0.010 C 
HETATM   17  C   UNL     1     -20.178 -13.875  -5.035  1.00  0.00     0.006 C 
ENDBRANCH   7  16
BRANCH   1  18
HETATM   18  C   UNL     1     -21.921 -11.230  -2.966  1.00  0.00     0.292 C 
HETATM   19  O   UNL     1     -22.758 -10.903  -3.792  1.00  0.00    -0.259 OA
BRANCH  18  20
HETATM   20  O   UNL     1     -22.183 -11.973  -1.871  1.00  0.00    -0.318 OA
BRANCH  20  21
HETATM   21  C   UNL     1     -23.544 -12.157  -1.462  1.00  0.00     0.174 C 
HETATM   22  C   UNL     1     -23.977 -11.116  -0.446  1.00  0.00     0.034 C 
ENDBRANCH  20  21
ENDBRANCH  18  20
ENDBRANCH   1  18
BRANCH   2  23
HETATM   23  C   UNL     1     -20.889  -8.977  -1.394  1.00  0.00    -0.009 A 
HETATM   24  C   UNL     1     -20.905  -9.284  -0.026  1.00  0.00     0.014 A 
HETATM   25  C   UNL     1     -21.636  -8.495   0.865  1.00  0.00     0.001 A 
HETATM   26  C   UNL     1     -22.353  -7.394   0.396  1.00  0.00     0.000 A 
HETATM   27  C   UNL     1     -22.337  -7.078  -0.961  1.00  0.00     0.001 A 
HETATM   28  C   UNL     1     -21.602  -7.863  -1.854  1.00  0.00     0.014 A 
ENDBRANCH   2  23
TORSDOF 10
ENDMDL
MODEL 9
REMARK VINA RESULT:      -5.3      3.197      5.429
REMARK  10 active torsions:
REMARK  status: ('A' for Active; 'I' for Inactive)
REMARK    1  A    between atoms: C_2  and  O_3 
REMARK    2  A    between atoms: O_3  and  C_4 
REMARK    3  A    between atoms: C_4  and  C_6 
REMARK    4  A    between atoms: C_7  and  C_8 
REMARK    5  A    between atoms: C_17  and  C_18 
REMARK    6  A    between atoms: C_18  and  S_20 
REMARK    7  A    between atoms: S_20  and  C_21 
REMARK    8  A    between atoms: C_21  and  C_22 
REMARK    9  A    between atoms: C_22  and  O_23 
REMARK   10  A    between atoms: C_25  and  C_26 
ROOT
HETATM    1  C   UNL     1     -20.141 -10.800  -3.248  1.00  0.00     0.053 C 
HETATM    2  C   UNL     1     -19.770  -9.581  -2.793  1.00  0.00     0.055 C 
HETATM    3  N   UNL     1     -18.444  -9.212  -2.764  1.00  0.00    -0.358 N 
HETATM    4  C   UNL     1     -17.378 -10.041  -3.050  1.00  0.00     0.017 C 
HETATM    5  C   UNL     1     -16.024  -9.395  -2.853  1.00  0.00     0.069 C 
HETATM    6  C   UNL     1     -17.601 -11.306  -3.496  1.00  0.00     0.030 C 
HETATM    7  C   UNL     1     -19.056 -11.808  -3.743  1.00  0.00     0.066 C 
HETATM    8  H   UNL     1     -18.243  -8.277  -2.418  1.00  0.00     0.166 HD
ENDROOT
BRANCH   6   9
HETATM    9  C   UNL     1     -16.391 -12.193  -3.675  1.00  0.00     0.217 C 
HETATM   10  O   UNL     1     -15.873 -12.388  -4.769  1.00  0.00    -0.280 OA
BRANCH   9  11
HETATM   11  S   UNL     1     -15.733 -12.983  -2.258  1.00  0.00    -0.085 SA
BRANCH  11  12
HETATM   12  C   UNL     1     -14.693 -14.275  -3.054  1.00  0.00     0.108 C 
BRANCH  12  13
HETATM   13  C   UNL     1     -13.171 -14.070  -3.132  1.00  0.00     0.177 C 
BRANCH  13  14
HETATM   14  O   UNL     1     -12.465 -14.958  -2.263  1.00  0.00    -0.395 OA
HETATM   15  C   UNL     1     -12.407 -14.440  -0.934  1.00  0.00     0.201 C 
ENDBRANCH  13  14
ENDBRANCH  12  13
ENDBRANCH  11  12
ENDBRANCH   9  11
ENDBRANCH   6   9
BRANCH   7  16
HETATM   16  C   UNL     1     -19.298 -13.264  -3.269  1.00  0.00     0.010 C 
HETATM   17  C   UNL     1     -19.680 -14.254  -4.351  1.00  0.00     0.006 C 
ENDBRANCH   7  16
BRANCH   1  18
HETATM   18  C   UNL     1     -21.599 -11.115  -3.331  1.00  0.00     0.292 C 
HETATM   19  O   UNL     1     -22.281 -11.029  -4.339  1.00  0.00    -0.259 OA
BRANCH  18  20
HETATM   20  O   UNL     1     -22.065 -11.504  -2.126  1.00  0.00    -0.318 OA
BRANCH  20  21
HETATM   21  C   UNL     1     -23.428 -11.226  -1.783  1.00  0.00     0.174 C 
HETATM   22  C   UNL     1     -23.640 -11.194  -0.280  1.00  0.00     0.034 C 
ENDBRANCH  20  21
ENDBRANCH  18  20
ENDBRANCH   1  18
BRANCH   2  23
HETATM   23  C   UNL     1     -20.678  -8.542  -2.259  1.00  0.00    -0.009 A 
HETATM   24  C   UNL     1     -21.016  -8.555  -0.899  1.00  0.00     0.014 A 
HETATM   25  C   UNL     1     -21.824  -7.550  -0.363  1.00  0.00     0.001 A 
HETATM   26  C   UNL     1     -22.296  -6.524  -1.181  1.00  0.00     0.000 A 
HETATM   27  C   UNL     1     -21.960  -6.499  -2.533  1.00  0.00     0.001 A 
HETATM   28  C   UNL     1     -21.147  -7.501  -3.071  1.00  0.00     0.014 A 
ENDBRANCH   2  23
TORSDOF 10
ENDMDL
