REMARK  17 active torsions:
REMARK  status: ('A' for Active; 'I' for Inactive)
REMARK    1  A    between atoms: C_2  and  C_3 
REMARK    2  A    between atoms: C_3  and  C_4 
REMARK    3  A    between atoms: C_4  and  C_5 
REMARK    4  A    between atoms: C_5  and  C_6 
REMARK    5  A    between atoms: C_7  and  C_8 
REMARK    6  A    between atoms: C_8  and  C_9 
REMARK    7  A    between atoms: C_10  and  C_11 
REMARK    8  A    between atoms: C_11  and  C_12 
REMARK    9  A    between atoms: C_13  and  C_14 
REMARK   10  A    between atoms: C_15  and  C_16 
REMARK   11  A    between atoms: C_16  and  C_17 
REMARK   12  A    between atoms: C_16  and  O_23 
REMARK   13  A    between atoms: C_17  and  C_18 
REMARK   14  A    between atoms: C_18  and  C_19 
REMARK   15  A    between atoms: C_19  and  C_20 
REMARK   16  A    between atoms: C_20  and  O_22 
REMARK   17  A    between atoms: O_23  and  O_24 
ROOT
HETATM    1  C   UNL     1      12.654   6.402  -3.565  1.00  0.00    -0.023 C 
HETATM    2  C   UNL     1      13.456   6.442  -4.640  1.00  0.00    -0.004 C 
ENDROOT
BRANCH   2   3
HETATM    3  C   UNL     1      14.891   6.511  -4.528  1.00  0.00    -0.002 C 
HETATM    4  C   UNL     1      15.711   6.527  -5.588  1.00  0.00     0.008 C 
BRANCH   4   5
HETATM    5  C   UNL     1      17.212   6.565  -5.467  1.00  0.00     0.183 C 
BRANCH   5   6
HETATM    6  C   UNL     1      17.774   5.136  -5.508  1.00  0.00     0.040 C 
BRANCH   6   7
HETATM    7  C   UNL     1      19.301   5.048  -5.420  1.00  0.00     0.013 C 
BRANCH   7   8
HETATM    8  C   UNL     1      19.894   5.580  -4.113  1.00  0.00     0.110 C 
BRANCH   8   9
HETATM    9  C   UNL     1      21.398   5.422  -4.094  1.00  0.00     0.139 C 
HETATM   10  O   UNL     1      22.068   4.921  -4.987  1.00  0.00    -0.650 OA
BRANCH   9  11
HETATM   11  O   UNL     1      21.956   5.900  -2.960  1.00  0.00    -0.776 OA
HETATM   12  H   UNL     1      21.315   6.277  -2.330  1.00  0.00     0.167 HD
ENDBRANCH   9  11
ENDBRANCH   8   9
ENDBRANCH   7   8
ENDBRANCH   6   7
ENDBRANCH   5   6
BRANCH   5  13
HETATM   13  O   UNL     1      17.759   7.302  -6.568  1.00  0.00    -0.234 OA
BRANCH  13  14
HETATM   14  O   UNL     1      17.411   8.701  -6.347  1.00  0.00    -0.250 OA
HETATM   15  H   UNL     1      17.823   9.041  -7.162  1.00  0.00     0.253 HD
ENDBRANCH  13  14
ENDBRANCH   5  13
ENDBRANCH   4   5
ENDBRANCH   2   3
BRANCH   1  16
HETATM   16  C   UNL     1      11.159   6.305  -3.642  1.00  0.00     0.054 C 
BRANCH  16  17
HETATM   17  C   UNL     1      10.661   5.076  -2.938  1.00  0.00    -0.027 C 
HETATM   18  C   UNL     1       9.808   5.101  -1.901  1.00  0.00    -0.027 C 
BRANCH  18  19
HETATM   19  C   UNL     1       9.279   3.876  -1.215  1.00  0.00     0.053 C 
BRANCH  19  20
HETATM   20  C   UNL     1       9.637   3.873   0.242  1.00  0.00    -0.027 C 
HETATM   21  C   UNL     1       8.736   3.855   1.238  1.00  0.00    -0.030 C 
BRANCH  21  22
HETATM   22  C   UNL     1       9.104   3.837   2.693  1.00  0.00     0.027 C 
BRANCH  22  23
HETATM   23  C   UNL     1       8.565   2.585   3.386  1.00  0.00     0.004 C 
BRANCH  23  24
HETATM   24  C   UNL     1       8.952   2.569   4.865  1.00  0.00    -0.000 C 
BRANCH  24  25
HETATM   25  C   UNL     1       8.421   1.322   5.567  1.00  0.00    -0.005 C 
HETATM   26  C   UNL     1       8.807   1.311   7.038  1.00  0.00     0.005 C 
ENDBRANCH  24  25
ENDBRANCH  23  24
ENDBRANCH  22  23
ENDBRANCH  21  22
ENDBRANCH  19  20
ENDBRANCH  18  19
ENDBRANCH  16  17
ENDBRANCH   1  16
TORSDOF 17
