MODEL 1
REMARK VINA RESULT:      -6.9      0.000      0.000
REMARK  17 active torsions:
REMARK  status: ('A' for Active; 'I' for Inactive)
REMARK    1  A    between atoms: C_2  and  C_3 
REMARK    2  A    between atoms: C_3  and  C_4 
REMARK    3  A    between atoms: C_4  and  C_5 
REMARK    4  A    between atoms: C_5  and  C_6 
REMARK    5  A    between atoms: C_7  and  C_8 
REMARK    6  A    between atoms: C_8  and  C_9 
REMARK    7  A    between atoms: C_10  and  C_11 
REMARK    8  A    between atoms: C_11  and  C_12 
REMARK    9  A    between atoms: C_13  and  C_14 
REMARK   10  A    between atoms: C_15  and  C_16 
REMARK   11  A    between atoms: C_16  and  C_17 
REMARK   12  A    between atoms: C_16  and  O_23 
REMARK   13  A    between atoms: C_17  and  C_18 
REMARK   14  A    between atoms: C_18  and  C_19 
REMARK   15  A    between atoms: C_19  and  C_20 
REMARK   16  A    between atoms: C_20  and  O_22 
REMARK   17  A    between atoms: O_23  and  O_24 
ROOT
HETATM    1  C   UNL     1     -21.136  -8.631  -5.455  1.00  0.00    -0.023 C 
HETATM    2  C   UNL     1     -20.129  -7.762  -5.624  1.00  0.00    -0.004 C 
ENDROOT
BRANCH   2   3
HETATM    3  C   UNL     1     -20.349  -6.399  -6.039  1.00  0.00    -0.002 C 
HETATM    4  C   UNL     1     -21.168  -6.060  -7.043  1.00  0.00     0.008 C 
BRANCH   4   5
HETATM    5  C   UNL     1     -21.370  -4.638  -7.496  1.00  0.00     0.183 C 
BRANCH   5   6
HETATM    6  C   UNL     1     -20.216  -4.216  -8.418  1.00  0.00     0.040 C 
BRANCH   6   7
HETATM    7  C   UNL     1     -20.316  -4.750  -9.850  1.00  0.00     0.013 C 
BRANCH   7   8
HETATM    8  C   UNL     1     -20.463  -3.668 -10.923  1.00  0.00     0.110 C 
BRANCH   8   9
HETATM    9  C   UNL     1     -21.746  -3.846 -11.703  1.00  0.00     0.139 C 
HETATM   10  O   UNL     1     -22.837  -4.115 -11.218  1.00  0.00    -0.650 OA
BRANCH   9  11
HETATM   11  O   UNL     1     -21.574  -3.678 -13.033  1.00  0.00    -0.776 OA
HETATM   12  H   UNL     1     -21.938  -4.400 -13.576  1.00  0.00     0.167 HD
ENDBRANCH   9  11
ENDBRANCH   8   9
ENDBRANCH   7   8
ENDBRANCH   6   7
ENDBRANCH   5   6
BRANCH   5  13
HETATM   13  O   UNL     1     -22.598  -4.542  -8.230  1.00  0.00    -0.234 OA
BRANCH  13  14
HETATM   14  O   UNL     1     -22.905  -3.121  -8.346  1.00  0.00    -0.250 OA
HETATM   15  H   UNL     1     -23.715  -3.145  -7.804  1.00  0.00     0.253 HD
ENDBRANCH  13  14
ENDBRANCH   5  13
ENDBRANCH   4   5
ENDBRANCH   2   3
BRANCH   1  16
HETATM   16  C   UNL     1     -20.948 -10.049  -5.001  1.00  0.00     0.054 C 
BRANCH  16  17
HETATM   17  C   UNL     1     -21.805 -10.351  -3.806  1.00  0.00    -0.027 C 
HETATM   18  C   UNL     1     -22.134 -11.593  -3.415  1.00  0.00    -0.027 C 
BRANCH  18  19
HETATM   19  C   UNL     1     -22.961 -11.904  -2.202  1.00  0.00     0.053 C 
BRANCH  19  20
HETATM   20  C   UNL     1     -23.435 -10.647  -1.532  1.00  0.00    -0.027 C 
HETATM   21  C   UNL     1     -23.085 -10.280  -0.289  1.00  0.00    -0.030 C 
BRANCH  21  22
HETATM   22  C   UNL     1     -23.552  -9.014   0.367  1.00  0.00     0.027 C 
BRANCH  22  23
HETATM   23  C   UNL     1     -22.375  -8.102   0.715  1.00  0.00     0.004 C 
BRANCH  23  24
HETATM   24  C   UNL     1     -21.609  -7.694  -0.543  1.00  0.00    -0.000 C 
BRANCH  24  25
HETATM   25  C   UNL     1     -22.201  -6.435  -1.173  1.00  0.00    -0.005 C 
HETATM   26  C   UNL     1     -21.946  -6.397  -2.672  1.00  0.00     0.005 C 
ENDBRANCH  24  25
ENDBRANCH  23  24
ENDBRANCH  22  23
ENDBRANCH  21  22
ENDBRANCH  19  20
ENDBRANCH  18  19
ENDBRANCH  16  17
ENDBRANCH   1  16
TORSDOF 17
ENDMDL
MODEL 2
REMARK VINA RESULT:      -6.7      1.662      3.483
REMARK  17 active torsions:
REMARK  status: ('A' for Active; 'I' for Inactive)
REMARK    1  A    between atoms: C_2  and  C_3 
REMARK    2  A    between atoms: C_3  and  C_4 
REMARK    3  A    between atoms: C_4  and  C_5 
REMARK    4  A    between atoms: C_5  and  C_6 
REMARK    5  A    between atoms: C_7  and  C_8 
REMARK    6  A    between atoms: C_8  and  C_9 
REMARK    7  A    between atoms: C_10  and  C_11 
REMARK    8  A    between atoms: C_11  and  C_12 
REMARK    9  A    between atoms: C_13  and  C_14 
REMARK   10  A    between atoms: C_15  and  C_16 
REMARK   11  A    between atoms: C_16  and  C_17 
REMARK   12  A    between atoms: C_16  and  O_23 
REMARK   13  A    between atoms: C_17  and  C_18 
REMARK   14  A    between atoms: C_18  and  C_19 
REMARK   15  A    between atoms: C_19  and  C_20 
REMARK   16  A    between atoms: C_20  and  O_22 
REMARK   17  A    between atoms: O_23  and  O_24 
ROOT
HETATM    1  C   UNL     1     -21.818  -6.387  -3.483  1.00  0.00    -0.023 C 
HETATM    2  C   UNL     1     -20.828  -6.064  -4.329  1.00  0.00    -0.004 C 
ENDROOT
BRANCH   2   3
HETATM    3  C   UNL     1     -20.967  -6.183  -5.758  1.00  0.00    -0.002 C 
HETATM    4  C   UNL     1     -20.337  -5.381  -6.628  1.00  0.00     0.008 C 
BRANCH   4   5
HETATM    5  C   UNL     1     -20.511  -5.486  -8.120  1.00  0.00     0.183 C 
BRANCH   5   6
HETATM    6  C   UNL     1     -21.958  -5.142  -8.501  1.00  0.00     0.040 C 
BRANCH   6   7
HETATM    7  C   UNL     1     -22.156  -3.721  -9.039  1.00  0.00     0.013 C 
BRANCH   7   8
HETATM    8  C   UNL     1     -22.914  -3.643 -10.366  1.00  0.00     0.110 C 
BRANCH   8   9
HETATM    9  C   UNL     1     -24.379  -3.339 -10.139  1.00  0.00     0.139 C 
HETATM   10  O   UNL     1     -25.222  -3.223 -11.018  1.00  0.00    -0.650 OA
BRANCH   9  11
HETATM   11  O   UNL     1     -24.683  -3.201  -8.830  1.00  0.00    -0.776 OA
HETATM   12  H   UNL     1     -25.083  -2.341  -8.604  1.00  0.00     0.167 HD
ENDBRANCH   9  11
ENDBRANCH   8   9
ENDBRANCH   7   8
ENDBRANCH   6   7
ENDBRANCH   5   6
BRANCH   5  13
HETATM   13  O   UNL     1     -19.635  -4.555  -8.767  1.00  0.00    -0.234 OA
BRANCH  13  14
HETATM   14  O   UNL     1     -18.766  -4.010  -7.730  1.00  0.00    -0.250 OA
HETATM   15  H   UNL     1     -17.935  -4.373  -8.089  1.00  0.00     0.253 HD
ENDBRANCH  13  14
ENDBRANCH   5  13
ENDBRANCH   4   5
ENDBRANCH   2   3
BRANCH   1  16
HETATM   16  C   UNL     1     -21.719  -6.253  -1.992  1.00  0.00     0.054 C 
BRANCH  16  17
HETATM   17  C   UNL     1     -22.313  -7.447  -1.302  1.00  0.00    -0.027 C 
HETATM   18  C   UNL     1     -22.660  -7.467  -0.005  1.00  0.00    -0.027 C 
BRANCH  18  19
HETATM   19  C   UNL     1     -23.285  -8.645   0.682  1.00  0.00     0.053 C 
BRANCH  19  20
HETATM   20  C   UNL     1     -22.961  -9.924  -0.032  1.00  0.00    -0.027 C 
HETATM   21  C   UNL     1     -23.884 -10.742  -0.565  1.00  0.00    -0.030 C 
BRANCH  21  22
HETATM   22  C   UNL     1     -23.550 -12.012  -1.291  1.00  0.00     0.027 C 
BRANCH  22  23
HETATM   23  C   UNL     1     -22.143 -11.956  -1.889  1.00  0.00     0.004 C 
BRANCH  23  24
HETATM   24  C   UNL     1     -22.198 -11.684  -3.392  1.00  0.00    -0.000 C 
BRANCH  24  25
HETATM   25  C   UNL     1     -22.141 -10.188  -3.690  1.00  0.00    -0.005 C 
HETATM   26  C   UNL     1     -21.179  -9.889  -4.830  1.00  0.00     0.005 C 
ENDBRANCH  24  25
ENDBRANCH  23  24
ENDBRANCH  22  23
ENDBRANCH  21  22
ENDBRANCH  19  20
ENDBRANCH  18  19
ENDBRANCH  16  17
ENDBRANCH   1  16
TORSDOF 17
ENDMDL
MODEL 3
REMARK VINA RESULT:      -6.7      3.243      5.341
REMARK  17 active torsions:
REMARK  status: ('A' for Active; 'I' for Inactive)
REMARK    1  A    between atoms: C_2  and  C_3 
REMARK    2  A    between atoms: C_3  and  C_4 
REMARK    3  A    between atoms: C_4  and  C_5 
REMARK    4  A    between atoms: C_5  and  C_6 
REMARK    5  A    between atoms: C_7  and  C_8 
REMARK    6  A    between atoms: C_8  and  C_9 
REMARK    7  A    between atoms: C_10  and  C_11 
REMARK    8  A    between atoms: C_11  and  C_12 
REMARK    9  A    between atoms: C_13  and  C_14 
REMARK   10  A    between atoms: C_15  and  C_16 
REMARK   11  A    between atoms: C_16  and  C_17 
REMARK   12  A    between atoms: C_16  and  O_23 
REMARK   13  A    between atoms: C_17  and  C_18 
REMARK   14  A    between atoms: C_18  and  C_19 
REMARK   15  A    between atoms: C_19  and  C_20 
REMARK   16  A    between atoms: C_20  and  O_22 
REMARK   17  A    between atoms: O_23  and  O_24 
ROOT
HETATM    1  C   UNL     1     -21.559  -7.470  -1.056  1.00  0.00    -0.023 C 
HETATM    2  C   UNL     1     -22.044  -6.521  -1.872  1.00  0.00    -0.004 C 
ENDROOT
BRANCH   2   3
HETATM    3  C   UNL     1     -21.484  -6.269  -3.176  1.00  0.00    -0.002 C 
HETATM    4  C   UNL     1     -21.944  -6.843  -4.297  1.00  0.00     0.008 C 
BRANCH   4   5
HETATM    5  C   UNL     1     -21.336  -6.603  -5.654  1.00  0.00     0.183 C 
BRANCH   5   6
HETATM    6  C   UNL     1     -20.597  -5.257  -5.662  1.00  0.00     0.040 C 
BRANCH   6   7
HETATM    7  C   UNL     1     -19.690  -5.034  -6.877  1.00  0.00     0.013 C 
BRANCH   7   8
HETATM    8  C   UNL     1     -20.107  -3.868  -7.776  1.00  0.00     0.110 C 
BRANCH   8   9
HETATM    9  C   UNL     1     -21.490  -4.089  -8.348  1.00  0.00     0.139 C 
HETATM   10  O   UNL     1     -21.771  -4.889  -9.230  1.00  0.00    -0.650 OA
BRANCH   9  11
HETATM   11  O   UNL     1     -22.421  -3.293  -7.777  1.00  0.00    -0.776 OA
HETATM   12  H   UNL     1     -22.616  -3.513  -6.848  1.00  0.00     0.167 HD
ENDBRANCH   9  11
ENDBRANCH   8   9
ENDBRANCH   7   8
ENDBRANCH   6   7
ENDBRANCH   5   6
BRANCH   5  13
HETATM   13  O   UNL     1     -20.393  -7.643  -5.942  1.00  0.00    -0.234 OA
BRANCH  13  14
HETATM   14  O   UNL     1     -21.117  -8.905  -5.833  1.00  0.00    -0.250 OA
HETATM   15  H   UNL     1     -21.131  -9.100  -6.788  1.00  0.00     0.253 HD
ENDBRANCH  13  14
ENDBRANCH   5  13
ENDBRANCH   4   5
ENDBRANCH   2   3
BRANCH   1  16
HETATM   16  C   UNL     1     -22.130  -7.778   0.297  1.00  0.00     0.054 C 
BRANCH  16  17
HETATM   17  C   UNL     1     -23.215  -8.811   0.202  1.00  0.00    -0.027 C 
HETATM   18  C   UNL     1     -23.061 -10.006  -0.392  1.00  0.00    -0.027 C 
BRANCH  18  19
HETATM   19  C   UNL     1     -24.130 -11.057  -0.460  1.00  0.00     0.053 C 
BRANCH  19  20
HETATM   20  C   UNL     1     -23.725 -12.291   0.292  1.00  0.00    -0.027 C 
HETATM   21  C   UNL     1     -22.538 -12.446   0.900  1.00  0.00    -0.030 C 
BRANCH  21  22
HETATM   22  C   UNL     1     -22.148 -13.678   1.662  1.00  0.00     0.027 C 
BRANCH  22  23
HETATM   23  C   UNL     1     -23.308 -14.671   1.743  1.00  0.00     0.004 C 
BRANCH  23  24
HETATM   24  C   UNL     1     -23.769 -14.857   3.189  1.00  0.00    -0.000 C 
BRANCH  24  25
HETATM   25  C   UNL     1     -22.590 -15.122   4.121  1.00  0.00    -0.005 C 
HETATM   26  C   UNL     1     -23.058 -15.671   5.459  1.00  0.00     0.005 C 
ENDBRANCH  24  25
ENDBRANCH  23  24
ENDBRANCH  22  23
ENDBRANCH  21  22
ENDBRANCH  19  20
ENDBRANCH  18  19
ENDBRANCH  16  17
ENDBRANCH   1  16
TORSDOF 17
ENDMDL
MODEL 4
REMARK VINA RESULT:      -6.7      1.463      2.843
REMARK  17 active torsions:
REMARK  status: ('A' for Active; 'I' for Inactive)
REMARK    1  A    between atoms: C_2  and  C_3 
REMARK    2  A    between atoms: C_3  and  C_4 
REMARK    3  A    between atoms: C_4  and  C_5 
REMARK    4  A    between atoms: C_5  and  C_6 
REMARK    5  A    between atoms: C_7  and  C_8 
REMARK    6  A    between atoms: C_8  and  C_9 
REMARK    7  A    between atoms: C_10  and  C_11 
REMARK    8  A    between atoms: C_11  and  C_12 
REMARK    9  A    between atoms: C_13  and  C_14 
REMARK   10  A    between atoms: C_15  and  C_16 
REMARK   11  A    between atoms: C_16  and  C_17 
REMARK   12  A    between atoms: C_16  and  O_23 
REMARK   13  A    between atoms: C_17  and  C_18 
REMARK   14  A    between atoms: C_18  and  C_19 
REMARK   15  A    between atoms: C_19  and  C_20 
REMARK   16  A    between atoms: C_20  and  O_22 
REMARK   17  A    between atoms: O_23  and  O_24 
ROOT
HETATM    1  C   UNL     1     -20.342  -7.626  -4.458  1.00  0.00    -0.023 C 
HETATM    2  C   UNL     1     -21.355  -7.417  -5.312  1.00  0.00    -0.004 C 
ENDROOT
BRANCH   2   3
HETATM    3  C   UNL     1     -21.272  -6.460  -6.386  1.00  0.00    -0.002 C 
HETATM    4  C   UNL     1     -21.588  -5.166  -6.244  1.00  0.00     0.008 C 
BRANCH   4   5
HETATM    5  C   UNL     1     -21.533  -4.175  -7.377  1.00  0.00     0.183 C 
BRANCH   5   6
HETATM    6  C   UNL     1     -20.310  -4.464  -8.261  1.00  0.00     0.040 C 
BRANCH   6   7
HETATM    7  C   UNL     1     -20.644  -4.836  -9.710  1.00  0.00     0.013 C 
BRANCH   7   8
HETATM    8  C   UNL     1     -20.422  -3.710 -10.723  1.00  0.00     0.110 C 
BRANCH   8   9
HETATM    9  C   UNL     1     -21.683  -3.426 -11.507  1.00  0.00     0.139 C 
HETATM   10  O   UNL     1     -22.693  -2.902 -11.056  1.00  0.00    -0.650 OA
BRANCH   9  11
HETATM   11  O   UNL     1     -21.593  -3.820 -12.796  1.00  0.00    -0.776 OA
HETATM   12  H   UNL     1     -22.453  -3.994 -13.220  1.00  0.00     0.167 HD
ENDBRANCH   9  11
ENDBRANCH   8   9
ENDBRANCH   7   8
ENDBRANCH   6   7
ENDBRANCH   5   6
BRANCH   5  13
HETATM   13  O   UNL     1     -22.715  -4.302  -8.177  1.00  0.00    -0.234 OA
BRANCH  13  14
HETATM   14  O   UNL     1     -23.849  -4.133  -7.275  1.00  0.00    -0.250 OA
HETATM   15  H   UNL     1     -23.910  -5.068  -7.008  1.00  0.00     0.253 HD
ENDBRANCH  13  14
ENDBRANCH   5  13
ENDBRANCH   4   5
ENDBRANCH   2   3
BRANCH   1  16
HETATM   16  C   UNL     1     -20.382  -8.631  -3.345  1.00  0.00     0.054 C 
BRANCH  16  17
HETATM   17  C   UNL     1     -21.500  -8.331  -2.388  1.00  0.00    -0.027 C 
HETATM   18  C   UNL     1     -21.314  -7.922  -1.123  1.00  0.00    -0.027 C 
BRANCH  18  19
HETATM   19  C   UNL     1     -22.426  -7.587  -0.173  1.00  0.00     0.053 C 
BRANCH  19  20
HETATM   20  C   UNL     1     -23.115  -8.828   0.314  1.00  0.00    -0.027 C 
HETATM   21  C   UNL     1     -23.305  -9.926  -0.435  1.00  0.00    -0.030 C 
BRANCH  21  22
HETATM   22  C   UNL     1     -23.982 -11.169   0.066  1.00  0.00     0.027 C 
BRANCH  22  23
HETATM   23  C   UNL     1     -22.962 -12.250   0.426  1.00  0.00     0.004 C 
BRANCH  23  24
HETATM   24  C   UNL     1     -21.912 -12.400  -0.675  1.00  0.00    -0.000 C 
BRANCH  24  25
HETATM   25  C   UNL     1     -20.499 -12.422  -0.099  1.00  0.00    -0.005 C 
HETATM   26  C   UNL     1     -20.171 -11.116   0.608  1.00  0.00     0.005 C 
ENDBRANCH  24  25
ENDBRANCH  23  24
ENDBRANCH  22  23
ENDBRANCH  21  22
ENDBRANCH  19  20
ENDBRANCH  18  19
ENDBRANCH  16  17
ENDBRANCH   1  16
TORSDOF 17
ENDMDL
MODEL 5
REMARK VINA RESULT:      -6.7      1.891      3.638
REMARK  17 active torsions:
REMARK  status: ('A' for Active; 'I' for Inactive)
REMARK    1  A    between atoms: C_2  and  C_3 
REMARK    2  A    between atoms: C_3  and  C_4 
REMARK    3  A    between atoms: C_4  and  C_5 
REMARK    4  A    between atoms: C_5  and  C_6 
REMARK    5  A    between atoms: C_7  and  C_8 
REMARK    6  A    between atoms: C_8  and  C_9 
REMARK    7  A    between atoms: C_10  and  C_11 
REMARK    8  A    between atoms: C_11  and  C_12 
REMARK    9  A    between atoms: C_13  and  C_14 
REMARK   10  A    between atoms: C_15  and  C_16 
REMARK   11  A    between atoms: C_16  and  C_17 
REMARK   12  A    between atoms: C_16  and  O_23 
REMARK   13  A    between atoms: C_17  and  C_18 
REMARK   14  A    between atoms: C_18  and  C_19 
REMARK   15  A    between atoms: C_19  and  C_20 
REMARK   16  A    between atoms: C_20  and  O_22 
REMARK   17  A    between atoms: O_23  and  O_24 
ROOT
HETATM    1  C   UNL     1     -21.971  -6.016  -2.710  1.00  0.00    -0.023 C 
HETATM    2  C   UNL     1     -21.910  -6.904  -3.714  1.00  0.00    -0.004 C 
ENDROOT
BRANCH   2   3
HETATM    3  C   UNL     1     -21.896  -6.501  -5.098  1.00  0.00    -0.002 C 
HETATM    4  C   UNL     1     -20.903  -5.787  -5.646  1.00  0.00     0.008 C 
BRANCH   4   5
HETATM    5  C   UNL     1     -20.908  -5.339  -7.084  1.00  0.00     0.183 C 
BRANCH   5   6
HETATM    6  C   UNL     1     -21.744  -4.059  -7.228  1.00  0.00     0.040 C 
BRANCH   6   7
HETATM    7  C   UNL     1     -23.072  -4.243  -7.971  1.00  0.00     0.013 C 
BRANCH   7   8
HETATM    8  C   UNL     1     -23.071  -3.725  -9.411  1.00  0.00     0.110 C 
BRANCH   8   9
HETATM    9  C   UNL     1     -24.454  -3.804 -10.018  1.00  0.00     0.139 C 
HETATM   10  O   UNL     1     -24.887  -3.064 -10.891  1.00  0.00    -0.650 OA
BRANCH   9  11
HETATM   11  O   UNL     1     -25.196  -4.803  -9.491  1.00  0.00    -0.776 OA
HETATM   12  H   UNL     1     -25.711  -5.305 -10.148  1.00  0.00     0.167 HD
ENDBRANCH   9  11
ENDBRANCH   8   9
ENDBRANCH   7   8
ENDBRANCH   6   7
ENDBRANCH   5   6
BRANCH   5  13
HETATM   13  O   UNL     1     -19.566  -5.057  -7.499  1.00  0.00    -0.234 OA
BRANCH  13  14
HETATM   14  O   UNL     1     -19.599  -3.758  -8.162  1.00  0.00    -0.250 OA
HETATM   15  H   UNL     1     -19.211  -3.254  -7.424  1.00  0.00     0.253 HD
ENDBRANCH  13  14
ENDBRANCH   5  13
ENDBRANCH   4   5
ENDBRANCH   2   3
BRANCH   1  16
HETATM   16  C   UNL     1     -21.962  -6.395  -1.259  1.00  0.00     0.054 C 
BRANCH  16  17
HETATM   17  C   UNL     1     -22.102  -7.881  -1.088  1.00  0.00    -0.027 C 
HETATM   18  C   UNL     1     -22.852  -8.458  -0.136  1.00  0.00    -0.027 C 
BRANCH  18  19
HETATM   19  C   UNL     1     -23.024  -9.940   0.019  1.00  0.00     0.053 C 
BRANCH  19  20
HETATM   20  C   UNL     1     -22.411 -10.680  -1.133  1.00  0.00    -0.027 C 
HETATM   21  C   UNL     1     -23.091 -11.070  -2.224  1.00  0.00    -0.030 C 
BRANCH  21  22
HETATM   22  C   UNL     1     -22.467 -11.798  -3.379  1.00  0.00     0.027 C 
BRANCH  22  23
HETATM   23  C   UNL     1     -21.682 -10.841  -4.278  1.00  0.00     0.004 C 
BRANCH  23  24
HETATM   24  C   UNL     1     -20.192 -10.867  -3.937  1.00  0.00    -0.000 C 
BRANCH  24  25
HETATM   25  C   UNL     1     -19.605  -9.459  -3.892  1.00  0.00    -0.005 C 
HETATM   26  C   UNL     1     -18.516  -9.349  -2.837  1.00  0.00     0.005 C 
ENDBRANCH  24  25
ENDBRANCH  23  24
ENDBRANCH  22  23
ENDBRANCH  21  22
ENDBRANCH  19  20
ENDBRANCH  18  19
ENDBRANCH  16  17
ENDBRANCH   1  16
TORSDOF 17
ENDMDL
MODEL 6
REMARK VINA RESULT:      -6.6      2.054      3.911
REMARK  17 active torsions:
REMARK  status: ('A' for Active; 'I' for Inactive)
REMARK    1  A    between atoms: C_2  and  C_3 
REMARK    2  A    between atoms: C_3  and  C_4 
REMARK    3  A    between atoms: C_4  and  C_5 
REMARK    4  A    between atoms: C_5  and  C_6 
REMARK    5  A    between atoms: C_7  and  C_8 
REMARK    6  A    between atoms: C_8  and  C_9 
REMARK    7  A    between atoms: C_10  and  C_11 
REMARK    8  A    between atoms: C_11  and  C_12 
REMARK    9  A    between atoms: C_13  and  C_14 
REMARK   10  A    between atoms: C_15  and  C_16 
REMARK   11  A    between atoms: C_16  and  C_17 
REMARK   12  A    between atoms: C_16  and  O_23 
REMARK   13  A    between atoms: C_17  and  C_18 
REMARK   14  A    between atoms: C_18  and  C_19 
REMARK   15  A    between atoms: C_19  and  C_20 
REMARK   16  A    between atoms: C_20  and  O_22 
REMARK   17  A    between atoms: O_23  and  O_24 
ROOT
HETATM    1  C   UNL     1     -22.055  -6.172  -3.104  1.00  0.00    -0.023 C 
HETATM    2  C   UNL     1     -21.320  -7.008  -3.852  1.00  0.00    -0.004 C 
ENDROOT
BRANCH   2   3
HETATM    3  C   UNL     1     -21.185  -6.849  -5.278  1.00  0.00    -0.002 C 
HETATM    4  C   UNL     1     -21.200  -5.656  -5.889  1.00  0.00     0.008 C 
BRANCH   4   5
HETATM    5  C   UNL     1     -21.092  -5.494  -7.382  1.00  0.00     0.183 C 
BRANCH   5   6
HETATM    6  C   UNL     1     -21.896  -4.265  -7.833  1.00  0.00     0.040 C 
BRANCH   6   7
HETATM    7  C   UNL     1     -22.793  -4.500  -9.052  1.00  0.00     0.013 C 
BRANCH   7   8
HETATM    8  C   UNL     1     -22.547  -3.538 -10.217  1.00  0.00     0.110 C 
BRANCH   8   9
HETATM    9  C   UNL     1     -21.582  -4.133 -11.219  1.00  0.00     0.139 C 
HETATM   10  O   UNL     1     -20.411  -4.408 -10.995  1.00  0.00    -0.650 OA
BRANCH   9  11
HETATM   11  O   UNL     1     -22.150  -4.339 -12.427  1.00  0.00    -0.776 OA
HETATM   12  H   UNL     1     -22.546  -5.223 -12.534  1.00  0.00     0.167 HD
ENDBRANCH   9  11
ENDBRANCH   8   9
ENDBRANCH   7   8
ENDBRANCH   6   7
ENDBRANCH   5   6
BRANCH   5  13
HETATM   13  O   UNL     1     -19.719  -5.298  -7.741  1.00  0.00    -0.234 OA
BRANCH  13  14
HETATM   14  O   UNL     1     -19.578  -3.891  -8.099  1.00  0.00    -0.250 OA
HETATM   15  H   UNL     1     -18.648  -3.948  -8.384  1.00  0.00     0.253 HD
ENDBRANCH  13  14
ENDBRANCH   5  13
ENDBRANCH   4   5
ENDBRANCH   2   3
BRANCH   1  16
HETATM   16  C   UNL     1     -22.199  -6.292  -1.615  1.00  0.00     0.054 C 
BRANCH  16  17
HETATM   17  C   UNL     1     -21.578  -7.563  -1.113  1.00  0.00    -0.027 C 
HETATM   18  C   UNL     1     -21.760  -8.047   0.126  1.00  0.00    -0.027 C 
BRANCH  18  19
HETATM   19  C   UNL     1     -21.172  -9.334   0.623  1.00  0.00     0.053 C 
BRANCH  19  20
HETATM   20  C   UNL     1     -21.947 -10.516   0.120  1.00  0.00    -0.027 C 
HETATM   21  C   UNL     1     -23.278 -10.519  -0.063  1.00  0.00    -0.030 C 
BRANCH  21  22
HETATM   22  C   UNL     1     -24.044 -11.701  -0.581  1.00  0.00     0.027 C 
BRANCH  22  23
HETATM   23  C   UNL     1     -23.282 -13.005  -0.339  1.00  0.00     0.004 C 
BRANCH  23  24
HETATM   24  C   UNL     1     -23.563 -13.550   1.061  1.00  0.00    -0.000 C 
BRANCH  24  25
HETATM   25  C   UNL     1     -22.273 -13.738   1.855  1.00  0.00    -0.005 C 
HETATM   26  C   UNL     1     -21.133 -14.193   0.956  1.00  0.00     0.005 C 
ENDBRANCH  24  25
ENDBRANCH  23  24
ENDBRANCH  22  23
ENDBRANCH  21  22
ENDBRANCH  19  20
ENDBRANCH  18  19
ENDBRANCH  16  17
ENDBRANCH   1  16
TORSDOF 17
ENDMDL
MODEL 7
REMARK VINA RESULT:      -6.6      2.724      4.326
REMARK  17 active torsions:
REMARK  status: ('A' for Active; 'I' for Inactive)
REMARK    1  A    between atoms: C_2  and  C_3 
REMARK    2  A    between atoms: C_3  and  C_4 
REMARK    3  A    between atoms: C_4  and  C_5 
REMARK    4  A    between atoms: C_5  and  C_6 
REMARK    5  A    between atoms: C_7  and  C_8 
REMARK    6  A    between atoms: C_8  and  C_9 
REMARK    7  A    between atoms: C_10  and  C_11 
REMARK    8  A    between atoms: C_11  and  C_12 
REMARK    9  A    between atoms: C_13  and  C_14 
REMARK   10  A    between atoms: C_15  and  C_16 
REMARK   11  A    between atoms: C_16  and  C_17 
REMARK   12  A    between atoms: C_16  and  O_23 
REMARK   13  A    between atoms: C_17  and  C_18 
REMARK   14  A    between atoms: C_18  and  C_19 
REMARK   15  A    between atoms: C_19  and  C_20 
REMARK   16  A    between atoms: C_20  and  O_22 
REMARK   17  A    between atoms: O_23  and  O_24 
ROOT
HETATM    1  C   UNL     1     -21.406  -6.639  -3.016  1.00  0.00    -0.023 C 
HETATM    2  C   UNL     1     -20.892  -6.709  -4.253  1.00  0.00    -0.004 C 
ENDROOT
BRANCH   2   3
HETATM    3  C   UNL     1     -21.403  -5.918  -5.345  1.00  0.00    -0.002 C 
HETATM    4  C   UNL     1     -20.634  -5.111  -6.090  1.00  0.00     0.008 C 
BRANCH   4   5
HETATM    5  C   UNL     1     -21.177  -4.260  -7.208  1.00  0.00     0.183 C 
BRANCH   5   6
HETATM    6  C   UNL     1     -20.081  -4.020  -8.257  1.00  0.00     0.040 C 
BRANCH   6   7
HETATM    7  C   UNL     1     -20.419  -4.531  -9.661  1.00  0.00     0.013 C 
BRANCH   7   8
HETATM    8  C   UNL     1     -20.865  -3.445 -10.643  1.00  0.00     0.110 C 
BRANCH   8   9
HETATM    9  C   UNL     1     -22.247  -3.735 -11.184  1.00  0.00     0.139 C 
HETATM   10  O   UNL     1     -23.297  -3.354 -10.684  1.00  0.00    -0.650 OA
BRANCH   9  11
HETATM   11  O   UNL     1     -22.218  -4.481 -12.310  1.00  0.00    -0.776 OA
HETATM   12  H   UNL     1     -23.096  -4.645 -12.702  1.00  0.00     0.167 HD
ENDBRANCH   9  11
ENDBRANCH   8   9
ENDBRANCH   7   8
ENDBRANCH   6   7
ENDBRANCH   5   6
BRANCH   5  13
HETATM   13  O   UNL     1     -22.269  -4.942  -7.837  1.00  0.00    -0.234 OA
BRANCH  13  14
HETATM   14  O   UNL     1     -23.432  -4.071  -7.713  1.00  0.00    -0.250 OA
HETATM   15  H   UNL     1     -23.873  -4.585  -7.013  1.00  0.00     0.253 HD
ENDBRANCH  13  14
ENDBRANCH   5  13
ENDBRANCH   4   5
ENDBRANCH   2   3
BRANCH   1  16
HETATM   16  C   UNL     1     -20.885  -7.427  -1.850  1.00  0.00     0.054 C 
BRANCH  16  17
HETATM   17  C   UNL     1     -22.010  -7.920  -0.987  1.00  0.00    -0.027 C 
HETATM   18  C   UNL     1     -22.408  -9.202  -0.936  1.00  0.00    -0.027 C 
BRANCH  18  19
HETATM   19  C   UNL     1     -23.508  -9.709  -0.051  1.00  0.00     0.053 C 
BRANCH  19  20
HETATM   20  C   UNL     1     -23.524 -11.209  -0.010  1.00  0.00    -0.027 C 
HETATM   21  C   UNL     1     -22.547 -11.957   0.527  1.00  0.00    -0.030 C 
BRANCH  21  22
HETATM   22  C   UNL     1     -22.579 -13.457   0.576  1.00  0.00     0.027 C 
BRANCH  22  23
HETATM   23  C   UNL     1     -23.535 -13.956   1.660  1.00  0.00     0.004 C 
BRANCH  23  24
HETATM   24  C   UNL     1     -22.763 -14.510   2.858  1.00  0.00    -0.000 C 
BRANCH  24  25
HETATM   25  C   UNL     1     -23.700 -15.155   3.876  1.00  0.00    -0.005 C 
HETATM   26  C   UNL     1     -22.941 -15.614   5.111  1.00  0.00     0.005 C 
ENDBRANCH  24  25
ENDBRANCH  23  24
ENDBRANCH  22  23
ENDBRANCH  21  22
ENDBRANCH  19  20
ENDBRANCH  18  19
ENDBRANCH  16  17
ENDBRANCH   1  16
TORSDOF 17
ENDMDL
MODEL 8
REMARK VINA RESULT:      -6.5      1.756      2.239
REMARK  17 active torsions:
REMARK  status: ('A' for Active; 'I' for Inactive)
REMARK    1  A    between atoms: C_2  and  C_3 
REMARK    2  A    between atoms: C_3  and  C_4 
REMARK    3  A    between atoms: C_4  and  C_5 
REMARK    4  A    between atoms: C_5  and  C_6 
REMARK    5  A    between atoms: C_7  and  C_8 
REMARK    6  A    between atoms: C_8  and  C_9 
REMARK    7  A    between atoms: C_10  and  C_11 
REMARK    8  A    between atoms: C_11  and  C_12 
REMARK    9  A    between atoms: C_13  and  C_14 
REMARK   10  A    between atoms: C_15  and  C_16 
REMARK   11  A    between atoms: C_16  and  C_17 
REMARK   12  A    between atoms: C_16  and  O_23 
REMARK   13  A    between atoms: C_17  and  C_18 
REMARK   14  A    between atoms: C_18  and  C_19 
REMARK   15  A    between atoms: C_19  and  C_20 
REMARK   16  A    between atoms: C_20  and  O_22 
REMARK   17  A    between atoms: O_23  and  O_24 
ROOT
HETATM    1  C   UNL     1     -21.675  -9.016  -4.785  1.00  0.00    -0.023 C 
HETATM    2  C   UNL     1     -20.531  -8.333  -4.945  1.00  0.00    -0.004 C 
ENDROOT
BRANCH   2   3
HETATM    3  C   UNL     1     -20.500  -7.005  -5.504  1.00  0.00    -0.002 C 
HETATM    4  C   UNL     1     -21.568  -6.416  -6.059  1.00  0.00     0.008 C 
BRANCH   4   5
HETATM    5  C   UNL     1     -21.523  -5.041  -6.674  1.00  0.00     0.183 C 
BRANCH   5   6
HETATM    6  C   UNL     1     -21.250  -5.153  -8.181  1.00  0.00     0.040 C 
BRANCH   6   7
HETATM    7  C   UNL     1     -21.785  -3.985  -9.015  1.00  0.00     0.013 C 
BRANCH   7   8
HETATM    8  C   UNL     1     -22.807  -4.382 -10.083  1.00  0.00     0.110 C 
BRANCH   8   9
HETATM    9  C   UNL     1     -24.141  -3.714  -9.833  1.00  0.00     0.139 C 
HETATM   10  O   UNL     1     -24.876  -3.256 -10.698  1.00  0.00    -0.650 OA
BRANCH   9  11
HETATM   11  O   UNL     1     -24.460  -3.667  -8.521  1.00  0.00    -0.776 OA
HETATM   12  H   UNL     1     -23.717  -3.869  -7.924  1.00  0.00     0.167 HD
ENDBRANCH   9  11
ENDBRANCH   8   9
ENDBRANCH   7   8
ENDBRANCH   6   7
ENDBRANCH   5   6
BRANCH   5  13
HETATM   13  O   UNL     1     -22.789  -4.395  -6.486  1.00  0.00    -0.234 OA
BRANCH  13  14
HETATM   14  O   UNL     1     -23.722  -5.427  -6.049  1.00  0.00    -0.250 OA
HETATM   15  H   UNL     1     -23.249  -6.175  -6.456  1.00  0.00     0.253 HD
ENDBRANCH  13  14
ENDBRANCH   5  13
ENDBRANCH   4   5
ENDBRANCH   2   3
BRANCH   1  16
HETATM   16  C   UNL     1     -21.750 -10.389  -4.184  1.00  0.00     0.054 C 
BRANCH  16  17
HETATM   17  C   UNL     1     -20.816 -10.518  -3.015  1.00  0.00    -0.027 C 
HETATM   18  C   UNL     1     -20.844 -11.539  -2.143  1.00  0.00    -0.027 C 
BRANCH  18  19
HETATM   19  C   UNL     1     -19.892 -11.693  -0.994  1.00  0.00     0.053 C 
BRANCH  19  20
HETATM   20  C   UNL     1     -20.369 -10.937   0.211  1.00  0.00    -0.027 C 
HETATM   21  C   UNL     1     -20.640  -9.622   0.216  1.00  0.00    -0.030 C 
BRANCH  21  22
HETATM   22  C   UNL     1     -21.131  -8.877   1.423  1.00  0.00     0.027 C 
BRANCH  22  23
HETATM   23  C   UNL     1     -22.172  -7.825   1.040  1.00  0.00     0.004 C 
BRANCH  23  24
HETATM   24  C   UNL     1     -22.544  -7.936  -0.439  1.00  0.00    -0.000 C 
BRANCH  24  25
HETATM   25  C   UNL     1     -21.545  -7.193  -1.322  1.00  0.00    -0.005 C 
HETATM   26  C   UNL     1     -22.240  -6.149  -2.183  1.00  0.00     0.005 C 
ENDBRANCH  24  25
ENDBRANCH  23  24
ENDBRANCH  22  23
ENDBRANCH  21  22
ENDBRANCH  19  20
ENDBRANCH  18  19
ENDBRANCH  16  17
ENDBRANCH   1  16
TORSDOF 17
ENDMDL
MODEL 9
REMARK VINA RESULT:      -6.5      1.813      4.040
REMARK  17 active torsions:
REMARK  status: ('A' for Active; 'I' for Inactive)
REMARK    1  A    between atoms: C_2  and  C_3 
REMARK    2  A    between atoms: C_3  and  C_4 
REMARK    3  A    between atoms: C_4  and  C_5 
REMARK    4  A    between atoms: C_5  and  C_6 
REMARK    5  A    between atoms: C_7  and  C_8 
REMARK    6  A    between atoms: C_8  and  C_9 
REMARK    7  A    between atoms: C_10  and  C_11 
REMARK    8  A    between atoms: C_11  and  C_12 
REMARK    9  A    between atoms: C_13  and  C_14 
REMARK   10  A    between atoms: C_15  and  C_16 
REMARK   11  A    between atoms: C_16  and  C_17 
REMARK   12  A    between atoms: C_16  and  O_23 
REMARK   13  A    between atoms: C_17  and  C_18 
REMARK   14  A    between atoms: C_18  and  C_19 
REMARK   15  A    between atoms: C_19  and  C_20 
REMARK   16  A    between atoms: C_20  and  O_22 
REMARK   17  A    between atoms: O_23  and  O_24 
ROOT
HETATM    1  C   UNL     1     -21.926  -7.537  -1.244  1.00  0.00    -0.023 C 
HETATM    2  C   UNL     1     -21.997  -6.279  -1.705  1.00  0.00    -0.004 C 
ENDROOT
BRANCH   2   3
HETATM    3  C   UNL     1     -21.690  -5.941  -3.072  1.00  0.00    -0.002 C 
HETATM    4  C   UNL     1     -21.964  -6.747  -4.108  1.00  0.00     0.008 C 
BRANCH   4   5
HETATM    5  C   UNL     1     -21.611  -6.405  -5.532  1.00  0.00     0.183 C 
BRANCH   5   6
HETATM    6  C   UNL     1     -20.475  -5.371  -5.553  1.00  0.00     0.040 C 
BRANCH   6   7
HETATM    7  C   UNL     1     -20.529  -4.388  -6.727  1.00  0.00     0.013 C 
BRANCH   7   8
HETATM    8  C   UNL     1     -21.931  -4.145  -7.289  1.00  0.00     0.110 C 
BRANCH   8   9
HETATM    9  C   UNL     1     -21.893  -3.970  -8.791  1.00  0.00     0.139 C 
HETATM   10  O   UNL     1     -22.810  -3.535  -9.476  1.00  0.00    -0.650 OA
BRANCH   9  11
HETATM   11  O   UNL     1     -20.714  -4.351  -9.328  1.00  0.00    -0.776 OA
HETATM   12  H   UNL     1     -20.004  -4.486  -8.674  1.00  0.00     0.167 HD
ENDBRANCH   9  11
ENDBRANCH   8   9
ENDBRANCH   7   8
ENDBRANCH   6   7
ENDBRANCH   5   6
BRANCH   5  13
HETATM   13  O   UNL     1     -21.164  -7.588  -6.207  1.00  0.00    -0.234 OA
BRANCH  13  14
HETATM   14  O   UNL     1     -19.753  -7.749  -5.875  1.00  0.00    -0.250 OA
HETATM   15  H   UNL     1     -19.505  -8.213  -6.696  1.00  0.00     0.253 HD
ENDBRANCH  13  14
ENDBRANCH   5  13
ENDBRANCH   4   5
ENDBRANCH   2   3
BRANCH   1  16
HETATM   16  C   UNL     1     -22.261  -7.930   0.164  1.00  0.00     0.054 C 
BRANCH  16  17
HETATM   17  C   UNL     1     -22.486  -9.411   0.271  1.00  0.00    -0.027 C 
HETATM   18  C   UNL     1     -23.586 -10.036  -0.180  1.00  0.00    -0.027 C 
BRANCH  18  19
HETATM   19  C   UNL     1     -23.802 -11.519  -0.108  1.00  0.00     0.053 C 
BRANCH  19  20
HETATM   20  C   UNL     1     -23.141 -12.220  -1.257  1.00  0.00    -0.027 C 
HETATM   21  C   UNL     1     -23.066 -11.720  -2.502  1.00  0.00    -0.030 C 
BRANCH  21  22
HETATM   22  C   UNL     1     -22.389 -12.423  -3.642  1.00  0.00     0.027 C 
BRANCH  22  23
HETATM   23  C   UNL     1     -21.037 -11.785  -3.962  1.00  0.00     0.004 C 
BRANCH  23  24
HETATM   24  C   UNL     1     -21.077 -10.274  -3.733  1.00  0.00    -0.000 C 
BRANCH  24  25
HETATM   25  C   UNL     1     -19.850  -9.795  -2.961  1.00  0.00    -0.005 C 
HETATM   26  C   UNL     1     -19.585 -10.671  -1.746  1.00  0.00     0.005 C 
ENDBRANCH  24  25
ENDBRANCH  23  24
ENDBRANCH  22  23
ENDBRANCH  21  22
ENDBRANCH  19  20
ENDBRANCH  18  19
ENDBRANCH  16  17
ENDBRANCH   1  16
TORSDOF 17
ENDMDL
