REMARK  0 active torsions:
REMARK  status: ('A' for Active; 'I' for Inactive)
ROOT
HETATM    1  C   UNL     1       1.049   0.008  -0.009  1.00  0.00     0.024 C 
HETATM    2  C   UNL     1       2.557   0.043   0.050  1.00  0.00     0.024 C 
HETATM    3  C   UNL     1       3.216   1.244  -0.669  1.00  0.00     0.018 C 
HETATM    4  C   UNL     1       4.654   1.239  -0.103  1.00  0.00     0.007 C 
HETATM    5  C   UNL     1       4.656   0.013   0.844  1.00  0.00     0.001 C 
HETATM    6  C   UNL     1       4.671  -1.253  -0.050  1.00  0.00     0.084 C 
HETATM    7  C   UNL     1       3.252  -1.168  -0.581  1.00  0.00     0.136 C 
HETATM    8  O   UNL     1       2.766  -1.930  -1.400  1.00  0.00    -0.297 OA
HETATM    9  C   UNL     1       3.226   0.039   1.452  1.00  0.00    -0.029 C 
HETATM   10  C   UNL     1       2.883  -1.183   2.327  1.00  0.00     0.016 C 
HETATM   11  C   UNL     1       2.928   1.286   2.307  1.00  0.00     0.016 C 
ENDROOT
TORSDOF 0
