MODEL 1
REMARK VINA RESULT:      -6.3      0.000      0.000
REMARK  0 active torsions:
REMARK  status: ('A' for Active; 'I' for Inactive)
ROOT
HETATM    1  C   UNL     1     -27.665  -6.297 -19.008  1.00  0.00     0.024 C 
HETATM    2  C   UNL     1     -28.569  -5.759 -17.925  1.00  0.00     0.024 C 
HETATM    3  C   UNL     1     -29.406  -4.520 -18.322  1.00  0.00     0.018 C 
HETATM    4  C   UNL     1     -30.486  -4.463 -17.218  1.00  0.00     0.007 C 
HETATM    5  C   UNL     1     -30.114  -5.655 -16.300  1.00  0.00     0.001 C 
HETATM    6  C   UNL     1     -28.844  -5.244 -15.513  1.00  0.00     0.084 C 
HETATM    7  C   UNL     1     -27.846  -5.300 -16.654  1.00  0.00     0.136 C 
HETATM    8  O   UNL     1     -26.667  -4.998 -16.567  1.00  0.00    -0.297 OA
HETATM    9  C   UNL     1     -29.614  -6.728 -17.307  1.00  0.00    -0.029 C 
HETATM   10  C   UNL     1     -29.015  -7.988 -16.650  1.00  0.00     0.016 C 
HETATM   11  C   UNL     1     -30.693  -7.219 -18.292  1.00  0.00     0.016 C 
ENDROOT
TORSDOF 0
ENDMDL
MODEL 2
REMARK VINA RESULT:      -6.2      1.432      2.243
REMARK  0 active torsions:
REMARK  status: ('A' for Active; 'I' for Inactive)
ROOT
HETATM    1  C   UNL     1     -27.191  -6.463 -16.004  1.00  0.00     0.024 C 
HETATM    2  C   UNL     1     -28.340  -5.622 -16.505  1.00  0.00     0.024 C 
HETATM    3  C   UNL     1     -28.012  -4.127 -16.731  1.00  0.00     0.018 C 
HETATM    4  C   UNL     1     -29.194  -3.642 -17.601  1.00  0.00     0.007 C 
HETATM    5  C   UNL     1     -30.075  -4.908 -17.738  1.00  0.00     0.001 C 
HETATM    6  C   UNL     1     -30.769  -5.130 -16.369  1.00  0.00     0.084 C 
HETATM    7  C   UNL     1     -29.556  -5.577 -15.574  1.00  0.00     0.136 C 
HETATM    8  O   UNL     1     -29.558  -5.829 -14.381  1.00  0.00    -0.297 OA
HETATM    9  C   UNL     1     -29.029  -6.054 -17.829  1.00  0.00    -0.029 C 
HETATM   10  C   UNL     1     -29.633  -7.472 -17.810  1.00  0.00     0.016 C 
HETATM   11  C   UNL     1     -28.124  -5.982 -19.074  1.00  0.00     0.016 C 
ENDROOT
TORSDOF 0
ENDMDL
MODEL 3
REMARK VINA RESULT:      -6.0      1.158      2.944
REMARK  0 active torsions:
REMARK  status: ('A' for Active; 'I' for Inactive)
ROOT
HETATM    1  C   UNL     1     -29.412  -5.653 -14.830  1.00  0.00     0.024 C 
HETATM    2  C   UNL     1     -29.110  -5.897 -16.289  1.00  0.00     0.024 C 
HETATM    3  C   UNL     1     -29.923  -7.036 -16.948  1.00  0.00     0.018 C 
HETATM    4  C   UNL     1     -29.719  -6.778 -18.458  1.00  0.00     0.007 C 
HETATM    5  C   UNL     1     -28.782  -5.544 -18.481  1.00  0.00     0.001 C 
HETATM    6  C   UNL     1     -27.374  -6.033 -18.057  1.00  0.00     0.084 C 
HETATM    7  C   UNL     1     -27.658  -6.284 -16.587  1.00  0.00     0.136 C 
HETATM    8  O   UNL     1     -26.859  -6.748 -15.791  1.00  0.00    -0.297 OA
HETATM    9  C   UNL     1     -29.280  -4.705 -17.271  1.00  0.00    -0.029 C 
HETATM   10  C   UNL     1     -28.410  -3.474 -16.948  1.00  0.00     0.016 C 
HETATM   11  C   UNL     1     -30.726  -4.193 -17.412  1.00  0.00     0.016 C 
ENDROOT
TORSDOF 0
ENDMDL
MODEL 4
REMARK VINA RESULT:      -5.7     17.367     18.757
REMARK  0 active torsions:
REMARK  status: ('A' for Active; 'I' for Inactive)
ROOT
HETATM    1  C   UNL     1     -20.120  -8.187  -1.490  1.00  0.00     0.024 C 
HETATM    2  C   UNL     1     -21.411  -8.732  -0.931  1.00  0.00     0.024 C 
HETATM    3  C   UNL     1     -22.185  -9.686  -1.871  1.00  0.00     0.018 C 
HETATM    4  C   UNL     1     -23.185 -10.377  -0.916  1.00  0.00     0.007 C 
HETATM    5  C   UNL     1     -22.888  -9.708   0.449  1.00  0.00     0.001 C 
HETATM    6  C   UNL     1     -23.463  -8.271   0.387  1.00  0.00     0.084 C 
HETATM    7  C   UNL     1     -22.455  -7.668  -0.574  1.00  0.00     0.136 C 
HETATM    8  O   UNL     1     -22.498  -6.529  -1.007  1.00  0.00    -0.297 OA
HETATM    9  C   UNL     1     -21.347  -9.509   0.413  1.00  0.00    -0.029 C 
HETATM   10  C   UNL     1     -20.780  -8.703   1.598  1.00  0.00     0.016 C 
HETATM   11  C   UNL     1     -20.543 -10.823   0.354  1.00  0.00     0.016 C 
ENDROOT
TORSDOF 0
ENDMDL
MODEL 5
REMARK VINA RESULT:      -5.3     17.560     19.085
REMARK  0 active torsions:
REMARK  status: ('A' for Active; 'I' for Inactive)
ROOT
HETATM    1  C   UNL     1     -19.873 -11.081  -0.303  1.00  0.00     0.024 C 
HETATM    2  C   UNL     1     -21.044 -10.161  -0.050  1.00  0.00     0.024 C 
HETATM    3  C   UNL     1     -20.905  -9.244   1.188  1.00  0.00     0.018 C 
HETATM    4  C   UNL     1     -21.999  -8.179   0.955  1.00  0.00     0.007 C 
HETATM    5  C   UNL     1     -22.658  -8.635  -0.371  1.00  0.00     0.001 C 
HETATM    6  C   UNL     1     -23.510  -9.889  -0.048  1.00  0.00     0.084 C 
HETATM    7  C   UNL     1     -22.379 -10.873   0.188  1.00  0.00     0.136 C 
HETATM    8  O   UNL     1     -22.524 -12.032   0.540  1.00  0.00    -0.297 OA
HETATM    9  C   UNL     1     -21.455  -9.186  -1.187  1.00  0.00    -0.029 C 
HETATM   10  C   UNL     1     -21.844  -9.869  -2.513  1.00  0.00     0.016 C 
HETATM   11  C   UNL     1     -20.394  -8.125  -1.537  1.00  0.00     0.016 C 
ENDROOT
TORSDOF 0
ENDMDL
MODEL 6
REMARK VINA RESULT:      -5.2     17.411     18.850
REMARK  0 active torsions:
REMARK  status: ('A' for Active; 'I' for Inactive)
ROOT
HETATM    1  C   UNL     1     -20.411 -11.178  -0.084  1.00  0.00     0.024 C 
HETATM    2  C   UNL     1     -21.019  -9.815  -0.315  1.00  0.00     0.024 C 
HETATM    3  C   UNL     1     -20.207  -8.881  -1.243  1.00  0.00     0.018 C 
HETATM    4  C   UNL     1     -21.231  -7.784  -1.612  1.00  0.00     0.007 C 
HETATM    5  C   UNL     1     -22.496  -8.203  -0.821  1.00  0.00     0.001 C 
HETATM    6  C   UNL     1     -22.225  -7.884   0.672  1.00  0.00     0.084 C 
HETATM    7  C   UNL     1     -21.208  -8.974   0.952  1.00  0.00     0.136 C 
HETATM    8  O   UNL     1     -20.620  -9.125   2.010  1.00  0.00    -0.297 OA
HETATM    9  C   UNL     1     -22.458  -9.754  -0.897  1.00  0.00    -0.029 C 
HETATM   10  C   UNL     1     -23.530 -10.461  -0.043  1.00  0.00     0.016 C 
HETATM   11  C   UNL     1     -22.595 -10.318  -2.324  1.00  0.00     0.016 C 
ENDROOT
TORSDOF 0
ENDMDL
MODEL 7
REMARK VINA RESULT:      -5.2     17.424     18.905
REMARK  0 active torsions:
REMARK  status: ('A' for Active; 'I' for Inactive)
ROOT
HETATM    1  C   UNL     1     -22.216  -7.585  -0.759  1.00  0.00     0.024 C 
HETATM    2  C   UNL     1     -22.095  -9.046  -0.398  1.00  0.00     0.024 C 
HETATM    3  C   UNL     1     -23.429  -9.753  -0.061  1.00  0.00     0.018 C 
HETATM    4  C   UNL     1     -23.057 -11.251  -0.147  1.00  0.00     0.007 C 
HETATM    5  C   UNL     1     -21.546 -11.221  -0.486  1.00  0.00     0.001 C 
HETATM    6  C   UNL     1     -20.799 -10.790   0.802  1.00  0.00     0.084 C 
HETATM    7  C   UNL     1     -21.225  -9.334   0.830  1.00  0.00     0.136 C 
HETATM    8  O   UNL     1     -20.939  -8.539   1.711  1.00  0.00    -0.297 OA
HETATM    9  C   UNL     1     -21.425  -9.993  -1.431  1.00  0.00    -0.029 C 
HETATM   10  C   UNL     1     -19.977  -9.618  -1.807  1.00  0.00     0.016 C 
HETATM   11  C   UNL     1     -22.195 -10.141  -2.758  1.00  0.00     0.016 C 
ENDROOT
TORSDOF 0
ENDMDL
MODEL 8
REMARK VINA RESULT:      -5.1     17.336     18.829
REMARK  0 active torsions:
REMARK  status: ('A' for Active; 'I' for Inactive)
ROOT
HETATM    1  C   UNL     1     -20.339  -8.358  -1.689  1.00  0.00     0.024 C 
HETATM    2  C   UNL     1     -21.113  -9.468  -1.021  1.00  0.00     0.024 C 
HETATM    3  C   UNL     1     -20.269 -10.691  -0.590  1.00  0.00     0.018 C 
HETATM    4  C   UNL     1     -21.207 -11.429   0.392  1.00  0.00     0.007 C 
HETATM    5  C   UNL     1     -22.488 -10.559   0.377  1.00  0.00     0.001 C 
HETATM    6  C   UNL     1     -23.196 -10.815  -0.978  1.00  0.00     0.084 C 
HETATM    7  C   UNL     1     -22.217 -10.089  -1.882  1.00  0.00     0.136 C 
HETATM    8  O   UNL     1     -22.294 -10.041  -3.098  1.00  0.00    -0.297 OA
HETATM    9  C   UNL     1     -21.929  -9.115   0.253  1.00  0.00    -0.029 C 
HETATM   10  C   UNL     1     -23.004  -8.030   0.050  1.00  0.00     0.016 C 
HETATM   11  C   UNL     1     -21.076  -8.665   1.455  1.00  0.00     0.016 C 
ENDROOT
TORSDOF 0
ENDMDL
MODEL 9
REMARK VINA RESULT:      -5.1     27.156     28.870
REMARK  0 active torsions:
REMARK  status: ('A' for Active; 'I' for Inactive)
ROOT
HETATM    1  C   UNL     1     -15.913  10.932   3.943  1.00  0.00     0.024 C 
HETATM    2  C   UNL     1     -15.261   9.997   2.953  1.00  0.00     0.024 C 
HETATM    3  C   UNL     1     -14.346  10.679   1.908  1.00  0.00     0.018 C 
HETATM    4  C   UNL     1     -13.533   9.496   1.337  1.00  0.00     0.007 C 
HETATM    5  C   UNL     1     -14.107   8.274   2.096  1.00  0.00     0.001 C 
HETATM    6  C   UNL     1     -15.514   7.993   1.511  1.00  0.00     0.084 C 
HETATM    7  C   UNL     1     -16.240   9.194   2.090  1.00  0.00     0.136 C 
HETATM    8  O   UNL     1     -17.406   9.477   1.872  1.00  0.00    -0.297 OA
HETATM    9  C   UNL     1     -14.386   8.844   3.515  1.00  0.00    -0.029 C 
HETATM   10  C   UNL     1     -15.125   7.874   4.458  1.00  0.00     0.016 C 
HETATM   11  C   UNL     1     -13.123   9.307   4.267  1.00  0.00     0.016 C 
ENDROOT
TORSDOF 0
ENDMDL
