REMARK  22 active torsions:
REMARK  status: ('A' for Active; 'I' for Inactive)
REMARK    1  A    between atoms: C_2  and  C_3 
REMARK    2  A    between atoms: C_3  and  C_4 
REMARK    3  A    between atoms: C_4  and  C_5 
REMARK    4  A    between atoms: C_5  and  C_6 
REMARK    5  A    between atoms: C_6  and  C_7 
REMARK    6  A    between atoms: C_7  and  C_8 
REMARK    7  A    between atoms: C_7  and  C_31 
REMARK    8  A    between atoms: C_8  and  C_9 
REMARK    9  A    between atoms: C_10  and  C_11 
REMARK   10  A    between atoms: C_11  and  C_12 
REMARK   11  A    between atoms: C_12  and  C_13 
REMARK   12  A    between atoms: C_13  and  C_14 
REMARK   13  A    between atoms: C_14  and  C_15 
REMARK   14  A    between atoms: C_15  and  C_16 
REMARK   15  A    between atoms: C_16  and  C_17 
REMARK   16  A    between atoms: C_17  and  C_18 
REMARK       I    between atoms: C_18  and  N_20 
REMARK   17  A    between atoms: N_20  and  C_21 
REMARK   18  A    between atoms: C_21  and  C_22 
REMARK   19  A    between atoms: C_25  and  O_26 
REMARK   20  A    between atoms: C_27  and  O_28 
REMARK   21  A    between atoms: C_31  and  C_33 
REMARK   22  A    between atoms: C_33  and  C_34 
ROOT
HETATM    1  C   UNL     1       2.288   5.160   0.029  1.00  0.00     0.004 C 
ENDROOT
BRANCH   1   2
HETATM    2  C   UNL     1       2.891   6.142  -0.980  1.00  0.00     0.027 C 
BRANCH   2   3
HETATM    3  C   UNL     1       4.399   6.117  -0.910  1.00  0.00    -0.031 C 
HETATM    4  C   UNL     1       5.135   5.261  -1.637  1.00  0.00    -0.030 C 
BRANCH   4   5
HETATM    5  C   UNL     1       6.630   5.093  -1.607  1.00  0.00     0.039 C 
BRANCH   5   6
HETATM    6  C   UNL     1       7.454   5.485  -2.874  1.00  0.00     0.059 C 
BRANCH   6   7
HETATM    7  C   UNL     1       7.349   6.969  -3.188  1.00  0.00     0.012 C 
BRANCH   7   8
HETATM    8  C   UNL     1       7.753   7.817  -2.015  1.00  0.00     0.001 C 
BRANCH   8   9
HETATM    9  C   UNL     1       7.652   9.275  -2.395  1.00  0.00     0.000 C 
BRANCH   9  10
HETATM   10  C   UNL     1       8.072  10.085  -1.189  1.00  0.00    -0.000 C 
BRANCH  10  11
HETATM   11  C   UNL     1       7.993  11.567  -1.485  1.00  0.00    -0.005 C 
HETATM   12  C   UNL     1       8.432  12.347  -0.264  1.00  0.00     0.005 C 
ENDBRANCH  10  11
ENDBRANCH   9  10
ENDBRANCH   8   9
ENDBRANCH   7   8
ENDBRANCH   6   7
BRANCH   6  13
HETATM   13  C   UNL     1       6.994   4.866  -4.173  1.00  0.00     0.135 C 
HETATM   14  O   UNL     1       5.801   4.630  -4.320  1.00  0.00    -0.297 OA
BRANCH  13  15
HETATM   15  C   UNL     1       7.959   4.707  -5.347  1.00  0.00     0.117 C 
BRANCH  15  16
HETATM   16  C   UNL     1       7.284   5.132  -6.644  1.00  0.00    -0.051 A 
HETATM   17  C   UNL     1       7.446   6.411  -7.177  1.00  0.00     0.007 A 
HETATM   18  C   UNL     1       6.641   6.847  -8.237  1.00  0.00     0.001 A 
HETATM   19  C   UNL     1       5.640   6.022  -8.750  1.00  0.00     0.000 A 
HETATM   20  C   UNL     1       5.492   4.735  -8.251  1.00  0.00     0.001 A 
HETATM   21  C   UNL     1       6.341   4.282  -7.239  1.00  0.00     0.007 A 
ENDBRANCH  15  16
ENDBRANCH  13  15
ENDBRANCH   6  13
ENDBRANCH   5   6
ENDBRANCH   4   5
ENDBRANCH   2   3
ENDBRANCH   1   2
BRANCH   1  22
HETATM   22  C   UNL     1       0.760   5.051  -0.026  1.00  0.00     0.000 C 
BRANCH  22  23
HETATM   23  C   UNL     1       0.184   4.541  -1.350  1.00  0.00     0.000 C 
BRANCH  23  24
HETATM   24  C   UNL     1       0.630   3.119  -1.706  1.00  0.00     0.000 C 
BRANCH  24  25
HETATM   25  C   UNL     1       0.113   2.643  -3.072  1.00  0.00     0.009 C 
BRANCH  25  26
HETATM   26  C   UNL     1       0.487   3.548  -4.245  1.00  0.00     0.103 C 
BRANCH  26  27
HETATM   27  C   UNL     1       1.980   3.621  -4.400  1.00  0.00     0.217 C 
HETATM   28  O   UNL     1       2.667   4.328  -3.684  1.00  0.00    -0.274 OA
HETATM   29  N   UNL     1       2.471   2.784  -5.368  1.00  0.00    -0.357 N 
HETATM   30  H   UNL     1       1.852   2.552  -6.130  1.00  0.00     0.162 HD
BRANCH  29  31
HETATM   31  C   UNL     1       3.864   2.828  -5.664  1.00  0.00     0.161 C 
BRANCH  31  32
HETATM   32  C   UNL     1       4.638   1.633  -5.155  1.00  0.00    -0.038 A 
HETATM   33  C   UNL     1       4.488   0.431  -5.842  1.00  0.00     0.012 A 
HETATM   34  C   UNL     1       5.247  -0.687  -5.503  1.00  0.00     0.040 A 
HETATM   35  C   UNL     1       6.200  -0.596  -4.504  1.00  0.00     0.099 A 
HETATM   36  C   UNL     1       6.392   0.598  -3.796  1.00  0.00     0.101 A 
HETATM   37  C   UNL     1       5.561   1.689  -4.089  1.00  0.00     0.048 A 
BRANCH  35  38
HETATM   38  O   UNL     1       6.970  -1.676  -4.186  1.00  0.00    -0.358 OA
HETATM   39  H   UNL     1       6.566  -2.459  -4.589  1.00  0.00     0.217 HD
ENDBRANCH  35  38
BRANCH  36  40
HETATM   40  O   UNL     1       7.410   0.577  -2.874  1.00  0.00    -0.353 OA
HETATM   41  C   UNL     1       7.710   1.778  -2.194  1.00  0.00     0.210 C 
ENDBRANCH  36  40
ENDBRANCH  31  32
ENDBRANCH  29  31
ENDBRANCH  26  27
ENDBRANCH  25  26
ENDBRANCH  24  25
ENDBRANCH  23  24
ENDBRANCH  22  23
ENDBRANCH   1  22
TORSDOF 22
