MODEL 1
REMARK VINA RESULT:      -7.7      0.000      0.000
REMARK  22 active torsions:
REMARK  status: ('A' for Active; 'I' for Inactive)
REMARK    1  A    between atoms: C_2  and  C_3 
REMARK    2  A    between atoms: C_3  and  C_4 
REMARK    3  A    between atoms: C_4  and  C_5 
REMARK    4  A    between atoms: C_5  and  C_6 
REMARK    5  A    between atoms: C_6  and  C_7 
REMARK    6  A    between atoms: C_7  and  C_8 
REMARK    7  A    between atoms: C_7  and  C_31 
REMARK    8  A    between atoms: C_8  and  C_9 
REMARK    9  A    between atoms: C_10  and  C_11 
REMARK   10  A    between atoms: C_11  and  C_12 
REMARK   11  A    between atoms: C_12  and  C_13 
REMARK   12  A    between atoms: C_13  and  C_14 
REMARK   13  A    between atoms: C_14  and  C_15 
REMARK   14  A    between atoms: C_15  and  C_16 
REMARK   15  A    between atoms: C_16  and  C_17 
REMARK   16  A    between atoms: C_17  and  C_18 
REMARK       I    between atoms: C_18  and  N_20 
REMARK   17  A    between atoms: N_20  and  C_21 
REMARK   18  A    between atoms: C_21  and  C_22 
REMARK   19  A    between atoms: C_25  and  O_26 
REMARK   20  A    between atoms: C_27  and  O_28 
REMARK   21  A    between atoms: C_31  and  C_33 
REMARK   22  A    between atoms: C_33  and  C_34 
ROOT
HETATM    1  C   UNL     1     -20.819  -8.508   0.187  1.00  0.00     0.004 C 
ENDROOT
BRANCH   1   2
HETATM    2  C   UNL     1     -20.740  -9.689   1.159  1.00  0.00     0.027 C 
BRANCH   2   3
HETATM    3  C   UNL     1     -20.491 -10.977   0.413  1.00  0.00    -0.031 C 
HETATM    4  C   UNL     1     -19.894 -11.003  -0.790  1.00  0.00    -0.030 C 
BRANCH   4   5
HETATM    5  C   UNL     1     -19.650 -12.207  -1.659  1.00  0.00     0.039 C 
BRANCH   5   6
HETATM    6  C   UNL     1     -19.969 -12.107  -3.184  1.00  0.00     0.059 C 
BRANCH   6   7
HETATM    7  C   UNL     1     -20.269 -10.680  -3.614  1.00  0.00     0.012 C 
BRANCH   7   8
HETATM    8  C   UNL     1     -19.732 -10.385  -4.986  1.00  0.00     0.001 C 
BRANCH   8   9
HETATM    9  C   UNL     1     -18.413  -9.660  -4.860  1.00  0.00     0.000 C 
BRANCH   9  10
HETATM   10  C   UNL     1     -18.348  -9.082  -3.464  1.00  0.00    -0.000 C 
BRANCH  10  11
HETATM   11  C   UNL     1     -17.091  -9.535  -2.754  1.00  0.00    -0.005 C 
HETATM   12  C   UNL     1     -16.002  -9.790  -3.774  1.00  0.00     0.005 C 
ENDBRANCH  10  11
ENDBRANCH   9  10
ENDBRANCH   8   9
ENDBRANCH   7   8
ENDBRANCH   6   7
BRANCH   6  13
HETATM   13  C   UNL     1     -21.214 -12.830  -3.643  1.00  0.00     0.135 C 
HETATM   14  O   UNL     1     -21.140 -14.028  -3.888  1.00  0.00    -0.297 OA
BRANCH  13  15
HETATM   15  C   UNL     1     -22.574 -12.132  -3.625  1.00  0.00     0.117 C 
BRANCH  15  16
HETATM   16  C   UNL     1     -23.170 -12.177  -2.225  1.00  0.00    -0.051 A 
HETATM   17  C   UNL     1     -23.632 -11.029  -1.581  1.00  0.00     0.007 A 
HETATM   18  C   UNL     1     -23.960 -11.060  -0.220  1.00  0.00     0.001 A 
HETATM   19  C   UNL     1     -23.794 -12.230   0.521  1.00  0.00     0.000 A 
HETATM   20  C   UNL     1     -23.368 -13.388  -0.116  1.00  0.00     0.001 A 
HETATM   21  C   UNL     1     -23.105 -13.368  -1.488  1.00  0.00     0.007 A 
ENDBRANCH  15  16
ENDBRANCH  13  15
ENDBRANCH   6  13
ENDBRANCH   5   6
ENDBRANCH   4   5
ENDBRANCH   2   3
ENDBRANCH   1   2
BRANCH   1  22
HETATM   22  C   UNL     1     -22.200  -7.847   0.102  1.00  0.00     0.000 C 
BRANCH  22  23
HETATM   23  C   UNL     1     -22.417  -6.930  -1.105  1.00  0.00     0.000 C 
BRANCH  23  24
HETATM   24  C   UNL     1     -21.583  -7.319  -2.329  1.00  0.00     0.000 C 
BRANCH  24  25
HETATM   25  C   UNL     1     -21.868  -6.449  -3.562  1.00  0.00     0.009 C 
BRANCH  25  26
HETATM   26  C   UNL     1     -21.750  -7.180  -4.899  1.00  0.00     0.103 C 
BRANCH  26  27
HETATM   27  C   UNL     1     -20.843  -6.429  -5.833  1.00  0.00     0.217 C 
HETATM   28  O   UNL     1     -19.886  -6.962  -6.366  1.00  0.00    -0.274 OA
HETATM   29  N   UNL     1     -21.236  -5.135  -6.055  1.00  0.00    -0.357 N 
HETATM   30  H   UNL     1     -21.762  -4.684  -5.322  1.00  0.00     0.162 HD
BRANCH  29  31
HETATM   31  C   UNL     1     -20.406  -4.299  -6.857  1.00  0.00     0.161 C 
BRANCH  31  32
HETATM   32  C   UNL     1     -20.854  -4.189  -8.297  1.00  0.00    -0.038 A 
HETATM   33  C   UNL     1     -19.966  -4.617  -9.280  1.00  0.00     0.012 A 
HETATM   34  C   UNL     1     -20.343  -4.649 -10.621  1.00  0.00     0.040 A 
HETATM   35  C   UNL     1     -21.632  -4.299 -10.983  1.00  0.00     0.099 A 
HETATM   36  C   UNL     1     -22.561  -3.873 -10.024  1.00  0.00     0.101 A 
HETATM   37  C   UNL     1     -22.141  -3.763  -8.690  1.00  0.00     0.048 A 
BRANCH  35  38
HETATM   38  O   UNL     1     -22.020  -4.356 -12.289  1.00  0.00    -0.358 OA
HETATM   39  H   UNL     1     -21.930  -3.468 -12.666  1.00  0.00     0.217 HD
ENDBRANCH  35  38
BRANCH  36  40
HETATM   40  O   UNL     1     -23.822  -3.615 -10.502  1.00  0.00    -0.353 OA
HETATM   41  C   UNL     1     -24.837  -3.323  -9.564  1.00  0.00     0.210 C 
ENDBRANCH  36  40
ENDBRANCH  31  32
ENDBRANCH  29  31
ENDBRANCH  26  27
ENDBRANCH  25  26
ENDBRANCH  24  25
ENDBRANCH  23  24
ENDBRANCH  22  23
ENDBRANCH   1  22
TORSDOF 22
ENDMDL
MODEL 2
REMARK VINA RESULT:      -7.5      1.851      4.113
REMARK  22 active torsions:
REMARK  status: ('A' for Active; 'I' for Inactive)
REMARK    1  A    between atoms: C_2  and  C_3 
REMARK    2  A    between atoms: C_3  and  C_4 
REMARK    3  A    between atoms: C_4  and  C_5 
REMARK    4  A    between atoms: C_5  and  C_6 
REMARK    5  A    between atoms: C_6  and  C_7 
REMARK    6  A    between atoms: C_7  and  C_8 
REMARK    7  A    between atoms: C_7  and  C_31 
REMARK    8  A    between atoms: C_8  and  C_9 
REMARK    9  A    between atoms: C_10  and  C_11 
REMARK   10  A    between atoms: C_11  and  C_12 
REMARK   11  A    between atoms: C_12  and  C_13 
REMARK   12  A    between atoms: C_13  and  C_14 
REMARK   13  A    between atoms: C_14  and  C_15 
REMARK   14  A    between atoms: C_15  and  C_16 
REMARK   15  A    between atoms: C_16  and  C_17 
REMARK   16  A    between atoms: C_17  and  C_18 
REMARK       I    between atoms: C_18  and  N_20 
REMARK   17  A    between atoms: N_20  and  C_21 
REMARK   18  A    between atoms: C_21  and  C_22 
REMARK   19  A    between atoms: C_25  and  O_26 
REMARK   20  A    between atoms: C_27  and  O_28 
REMARK   21  A    between atoms: C_31  and  C_33 
REMARK   22  A    between atoms: C_33  and  C_34 
ROOT
HETATM    1  C   UNL     1     -22.648  -8.010  -0.512  1.00  0.00     0.004 C 
ENDROOT
BRANCH   1   2
HETATM    2  C   UNL     1     -22.190  -8.243   0.930  1.00  0.00     0.027 C 
BRANCH   2   3
HETATM    3  C   UNL     1     -21.039  -9.218   0.972  1.00  0.00    -0.031 C 
HETATM    4  C   UNL     1     -20.942 -10.248   0.115  1.00  0.00    -0.030 C 
BRANCH   4   5
HETATM    5  C   UNL     1     -19.887 -11.321   0.096  1.00  0.00     0.039 C 
BRANCH   5   6
HETATM    6  C   UNL     1     -18.948 -11.426  -1.146  1.00  0.00     0.059 C 
BRANCH   6   7
HETATM    7  C   UNL     1     -19.638 -12.083  -2.331  1.00  0.00     0.012 C 
BRANCH   7   8
HETATM    8  C   UNL     1     -19.400 -11.323  -3.606  1.00  0.00     0.001 C 
BRANCH   8   9
HETATM    9  C   UNL     1     -18.807 -12.253  -4.638  1.00  0.00     0.000 C 
BRANCH   9  10
HETATM   10  C   UNL     1     -19.094 -11.658  -5.998  1.00  0.00    -0.000 C 
BRANCH  10  11
HETATM   11  C   UNL     1     -18.081 -12.136  -7.016  1.00  0.00    -0.005 C 
HETATM   12  C   UNL     1     -18.800 -12.846  -8.144  1.00  0.00     0.005 C 
ENDBRANCH  10  11
ENDBRANCH   9  10
ENDBRANCH   8   9
ENDBRANCH   7   8
ENDBRANCH   6   7
BRANCH   6  13
HETATM   13  C   UNL     1     -17.732 -12.306  -0.976  1.00  0.00     0.135 C 
HETATM   14  O   UNL     1     -17.870 -13.520  -1.061  1.00  0.00    -0.297 OA
BRANCH  13  15
HETATM   15  C   UNL     1     -16.333 -11.697  -0.885  1.00  0.00     0.117 C 
BRANCH  15  16
HETATM   16  C   UNL     1     -15.890 -11.189  -2.250  1.00  0.00    -0.051 A 
HETATM   17  C   UNL     1     -16.184  -9.898  -2.690  1.00  0.00     0.007 A 
HETATM   18  C   UNL     1     -15.968  -9.535  -4.025  1.00  0.00     0.001 A 
HETATM   19  C   UNL     1     -15.491 -10.471  -4.944  1.00  0.00     0.000 A 
HETATM   20  C   UNL     1     -15.162 -11.748  -4.511  1.00  0.00     0.001 A 
HETATM   21  C   UNL     1     -15.318 -12.085  -3.164  1.00  0.00     0.007 A 
ENDBRANCH  15  16
ENDBRANCH  13  15
ENDBRANCH   6  13
ENDBRANCH   5   6
ENDBRANCH   4   5
ENDBRANCH   2   3
ENDBRANCH   1   2
BRANCH   1  22
HETATM   22  C   UNL     1     -22.312  -6.623  -1.070  1.00  0.00     0.000 C 
BRANCH  22  23
HETATM   23  C   UNL     1     -21.564  -6.614  -2.406  1.00  0.00     0.000 C 
BRANCH  23  24
HETATM   24  C   UNL     1     -20.911  -7.956  -2.752  1.00  0.00     0.000 C 
BRANCH  24  25
HETATM   25  C   UNL     1     -20.642  -8.133  -4.254  1.00  0.00     0.009 C 
BRANCH  25  26
HETATM   26  C   UNL     1     -21.571  -7.334  -5.166  1.00  0.00     0.103 C 
BRANCH  26  27
HETATM   27  C   UNL     1     -20.778  -6.418  -6.056  1.00  0.00     0.217 C 
HETATM   28  O   UNL     1     -19.788  -6.801  -6.654  1.00  0.00    -0.274 OA
HETATM   29  N   UNL     1     -21.312  -5.160  -6.162  1.00  0.00    -0.357 N 
HETATM   30  H   UNL     1     -21.859  -4.828  -5.382  1.00  0.00     0.162 HD
BRANCH  29  31
HETATM   31  C   UNL     1     -20.601  -4.179  -6.911  1.00  0.00     0.161 C 
BRANCH  31  32
HETATM   32  C   UNL     1     -21.017  -4.094  -8.362  1.00  0.00    -0.038 A 
HETATM   33  C   UNL     1     -20.068  -4.433  -9.323  1.00  0.00     0.012 A 
HETATM   34  C   UNL     1     -20.404  -4.484 -10.674  1.00  0.00     0.040 A 
HETATM   35  C   UNL     1     -21.708  -4.245 -11.070  1.00  0.00     0.099 A 
HETATM   36  C   UNL     1     -22.697  -3.913 -10.134  1.00  0.00     0.101 A 
HETATM   37  C   UNL     1     -22.325  -3.780  -8.789  1.00  0.00     0.048 A 
BRANCH  35  38
HETATM   38  O   UNL     1     -22.054  -4.324 -12.387  1.00  0.00    -0.358 OA
HETATM   39  H   UNL     1     -23.012  -4.192 -12.452  1.00  0.00     0.217 HD
ENDBRANCH  35  38
BRANCH  36  40
HETATM   40  O   UNL     1     -23.963  -3.762 -10.646  1.00  0.00    -0.353 OA
HETATM   41  C   UNL     1     -24.984  -3.336  -9.768  1.00  0.00     0.210 C 
ENDBRANCH  36  40
ENDBRANCH  31  32
ENDBRANCH  29  31
ENDBRANCH  26  27
ENDBRANCH  25  26
ENDBRANCH  24  25
ENDBRANCH  23  24
ENDBRANCH  22  23
ENDBRANCH   1  22
TORSDOF 22
ENDMDL
MODEL 3
REMARK VINA RESULT:      -7.5      1.489      3.350
REMARK  22 active torsions:
REMARK  status: ('A' for Active; 'I' for Inactive)
REMARK    1  A    between atoms: C_2  and  C_3 
REMARK    2  A    between atoms: C_3  and  C_4 
REMARK    3  A    between atoms: C_4  and  C_5 
REMARK    4  A    between atoms: C_5  and  C_6 
REMARK    5  A    between atoms: C_6  and  C_7 
REMARK    6  A    between atoms: C_7  and  C_8 
REMARK    7  A    between atoms: C_7  and  C_31 
REMARK    8  A    between atoms: C_8  and  C_9 
REMARK    9  A    between atoms: C_10  and  C_11 
REMARK   10  A    between atoms: C_11  and  C_12 
REMARK   11  A    between atoms: C_12  and  C_13 
REMARK   12  A    between atoms: C_13  and  C_14 
REMARK   13  A    between atoms: C_14  and  C_15 
REMARK   14  A    between atoms: C_15  and  C_16 
REMARK   15  A    between atoms: C_16  and  C_17 
REMARK   16  A    between atoms: C_17  and  C_18 
REMARK       I    between atoms: C_18  and  N_20 
REMARK   17  A    between atoms: N_20  and  C_21 
REMARK   18  A    between atoms: C_21  and  C_22 
REMARK   19  A    between atoms: C_25  and  O_26 
REMARK   20  A    between atoms: C_27  and  O_28 
REMARK   21  A    between atoms: C_31  and  C_33 
REMARK   22  A    between atoms: C_33  and  C_34 
ROOT
HETATM    1  C   UNL     1     -22.531  -9.306  -0.098  1.00  0.00     0.004 C 
ENDROOT
BRANCH   1   2
HETATM    2  C   UNL     1     -23.810 -10.140   0.016  1.00  0.00     0.027 C 
BRANCH   2   3
HETATM    3  C   UNL     1     -23.831 -11.226  -1.033  1.00  0.00    -0.031 C 
HETATM    4  C   UNL     1     -22.712 -11.667  -1.629  1.00  0.00    -0.030 C 
BRANCH   4   5
HETATM    5  C   UNL     1     -22.608 -12.689  -2.728  1.00  0.00     0.039 C 
BRANCH   5   6
HETATM    6  C   UNL     1     -21.771 -12.341  -4.000  1.00  0.00     0.059 C 
BRANCH   6   7
HETATM    7  C   UNL     1     -21.999 -10.910  -4.460  1.00  0.00     0.012 C 
BRANCH   7   8
HETATM    8  C   UNL     1     -20.704 -10.172  -4.650  1.00  0.00     0.001 C 
BRANCH   8   9
HETATM    9  C   UNL     1     -19.791 -10.456  -3.481  1.00  0.00     0.000 C 
BRANCH   9  10
HETATM   10  C   UNL     1     -18.678  -9.434  -3.520  1.00  0.00    -0.000 C 
BRANCH  10  11
HETATM   11  C   UNL     1     -17.453  -9.947  -2.795  1.00  0.00    -0.005 C 
HETATM   12  C   UNL     1     -16.218  -9.639  -3.614  1.00  0.00     0.005 C 
ENDBRANCH  10  11
ENDBRANCH   9  10
ENDBRANCH   8   9
ENDBRANCH   7   8
ENDBRANCH   6   7
BRANCH   6  13
HETATM   13  C   UNL     1     -22.118 -13.120  -5.247  1.00  0.00     0.135 C 
HETATM   14  O   UNL     1     -23.123 -12.808  -5.873  1.00  0.00    -0.297 OA
BRANCH  13  15
HETATM   15  C   UNL     1     -21.144 -14.149  -5.820  1.00  0.00     0.117 C 
BRANCH  15  16
HETATM   16  C   UNL     1     -19.784 -13.510  -6.062  1.00  0.00    -0.051 A 
HETATM   17  C   UNL     1     -18.725 -13.663  -5.167  1.00  0.00     0.007 A 
HETATM   18  C   UNL     1     -17.567 -12.885  -5.294  1.00  0.00     0.001 A 
HETATM   19  C   UNL     1     -17.472 -11.919  -6.296  1.00  0.00     0.000 A 
HETATM   20  C   UNL     1     -18.505 -11.781  -7.213  1.00  0.00     0.001 A 
HETATM   21  C   UNL     1     -19.629 -12.605  -7.121  1.00  0.00     0.007 A 
ENDBRANCH  15  16
ENDBRANCH  13  15
ENDBRANCH   6  13
ENDBRANCH   5   6
ENDBRANCH   4   5
ENDBRANCH   2   3
ENDBRANCH   1   2
BRANCH   1  22
HETATM   22  C   UNL     1     -22.713  -7.818   0.223  1.00  0.00     0.000 C 
BRANCH  22  23
HETATM   23  C   UNL     1     -22.324  -6.850  -0.898  1.00  0.00     0.000 C 
BRANCH  23  24
HETATM   24  C   UNL     1     -21.690  -7.540  -2.111  1.00  0.00     0.000 C 
BRANCH  24  25
HETATM   25  C   UNL     1     -21.236  -6.557  -3.201  1.00  0.00     0.009 C 
BRANCH  25  26
HETATM   26  C   UNL     1     -21.908  -6.758  -4.559  1.00  0.00     0.103 C 
BRANCH  26  27
HETATM   27  C   UNL     1     -20.976  -6.370  -5.672  1.00  0.00     0.217 C 
HETATM   28  O   UNL     1     -20.243  -7.182  -6.209  1.00  0.00    -0.274 OA
HETATM   29  N   UNL     1     -21.082  -5.054  -6.041  1.00  0.00    -0.357 N 
HETATM   30  H   UNL     1     -21.392  -4.404  -5.335  1.00  0.00     0.162 HD
BRANCH  29  31
HETATM   31  C   UNL     1     -20.188  -4.549  -7.029  1.00  0.00     0.161 C 
BRANCH  31  32
HETATM   32  C   UNL     1     -20.810  -4.396  -8.398  1.00  0.00    -0.038 A 
HETATM   33  C   UNL     1     -19.954  -4.415  -9.497  1.00  0.00     0.012 A 
HETATM   34  C   UNL     1     -20.457  -4.387 -10.796  1.00  0.00     0.040 A 
HETATM   35  C   UNL     1     -21.825  -4.391 -11.006  1.00  0.00     0.099 A 
HETATM   36  C   UNL     1     -22.721  -4.384  -9.929  1.00  0.00     0.101 A 
HETATM   37  C   UNL     1     -22.200  -4.324  -8.628  1.00  0.00     0.048 A 
BRANCH  35  38
HETATM   38  O   UNL     1     -22.327  -4.396 -12.274  1.00  0.00    -0.358 OA
HETATM   39  H   UNL     1     -21.687  -4.845 -12.847  1.00  0.00     0.217 HD
ENDBRANCH  35  38
BRANCH  36  40
HETATM   40  O   UNL     1     -24.050  -4.452 -10.269  1.00  0.00    -0.353 OA
HETATM   41  C   UNL     1     -24.894  -3.400  -9.851  1.00  0.00     0.210 C 
ENDBRANCH  36  40
ENDBRANCH  31  32
ENDBRANCH  29  31
ENDBRANCH  26  27
ENDBRANCH  25  26
ENDBRANCH  24  25
ENDBRANCH  23  24
ENDBRANCH  22  23
ENDBRANCH   1  22
TORSDOF 22
ENDMDL
MODEL 4
REMARK VINA RESULT:      -7.1      1.865      3.146
REMARK  22 active torsions:
REMARK  status: ('A' for Active; 'I' for Inactive)
REMARK    1  A    between atoms: C_2  and  C_3 
REMARK    2  A    between atoms: C_3  and  C_4 
REMARK    3  A    between atoms: C_4  and  C_5 
REMARK    4  A    between atoms: C_5  and  C_6 
REMARK    5  A    between atoms: C_6  and  C_7 
REMARK    6  A    between atoms: C_7  and  C_8 
REMARK    7  A    between atoms: C_7  and  C_31 
REMARK    8  A    between atoms: C_8  and  C_9 
REMARK    9  A    between atoms: C_10  and  C_11 
REMARK   10  A    between atoms: C_11  and  C_12 
REMARK   11  A    between atoms: C_12  and  C_13 
REMARK   12  A    between atoms: C_13  and  C_14 
REMARK   13  A    between atoms: C_14  and  C_15 
REMARK   14  A    between atoms: C_15  and  C_16 
REMARK   15  A    between atoms: C_16  and  C_17 
REMARK   16  A    between atoms: C_17  and  C_18 
REMARK       I    between atoms: C_18  and  N_20 
REMARK   17  A    between atoms: N_20  and  C_21 
REMARK   18  A    between atoms: C_21  and  C_22 
REMARK   19  A    between atoms: C_25  and  O_26 
REMARK   20  A    between atoms: C_27  and  O_28 
REMARK   21  A    between atoms: C_31  and  C_33 
REMARK   22  A    between atoms: C_33  and  C_34 
ROOT
HETATM    1  C   UNL     1     -22.068  -7.307  -0.297  1.00  0.00     0.004 C 
ENDROOT
BRANCH   1   2
HETATM    2  C   UNL     1     -21.683  -8.449   0.648  1.00  0.00     0.027 C 
BRANCH   2   3
HETATM    3  C   UNL     1     -22.095  -9.781   0.069  1.00  0.00    -0.031 C 
HETATM    4  C   UNL     1     -23.378 -10.083  -0.190  1.00  0.00    -0.030 C 
BRANCH   4   5
HETATM    5  C   UNL     1     -23.920 -11.390  -0.701  1.00  0.00     0.039 C 
BRANCH   5   6
HETATM    6  C   UNL     1     -22.937 -12.397  -1.377  1.00  0.00     0.059 C 
BRANCH   6   7
HETATM    7  C   UNL     1     -23.088 -12.417  -2.890  1.00  0.00     0.012 C 
BRANCH   7   8
HETATM    8  C   UNL     1     -22.256 -11.352  -3.547  1.00  0.00     0.001 C 
BRANCH   8   9
HETATM    9  C   UNL     1     -20.836 -11.444  -3.040  1.00  0.00     0.000 C 
BRANCH   9  10
HETATM   10  C   UNL     1     -20.112 -10.199  -3.501  1.00  0.00    -0.000 C 
BRANCH  10  11
HETATM   11  C   UNL     1     -19.058  -9.789  -2.496  1.00  0.00    -0.005 C 
HETATM   12  C   UNL     1     -17.809  -9.348  -3.228  1.00  0.00     0.005 C 
ENDBRANCH  10  11
ENDBRANCH   9  10
ENDBRANCH   8   9
ENDBRANCH   7   8
ENDBRANCH   6   7
BRANCH   6  13
HETATM   13  C   UNL     1     -23.148 -13.852  -1.031  1.00  0.00     0.135 C 
HETATM   14  O   UNL     1     -24.151 -14.415  -1.451  1.00  0.00    -0.297 OA
BRANCH  13  15
HETATM   15  C   UNL     1     -22.052 -14.655  -0.332  1.00  0.00     0.117 C 
BRANCH  15  16
HETATM   16  C   UNL     1     -22.296 -14.682   1.171  1.00  0.00    -0.051 A 
HETATM   17  C   UNL     1     -21.430 -15.335   2.049  1.00  0.00     0.007 A 
HETATM   18  C   UNL     1     -21.794 -15.538   3.386  1.00  0.00     0.001 A 
HETATM   19  C   UNL     1     -23.043 -15.124   3.849  1.00  0.00     0.000 A 
HETATM   20  C   UNL     1     -23.899 -14.443   2.994  1.00  0.00     0.001 A 
HETATM   21  C   UNL     1     -23.504 -14.185   1.680  1.00  0.00     0.007 A 
ENDBRANCH  15  16
ENDBRANCH  13  15
ENDBRANCH   6  13
ENDBRANCH   5   6
ENDBRANCH   4   5
ENDBRANCH   2   3
ENDBRANCH   1   2
BRANCH   1  22
HETATM   22  C   UNL     1     -21.992  -7.662  -1.786  1.00  0.00     0.000 C 
BRANCH  22  23
HETATM   23  C   UNL     1     -21.237  -6.660  -2.663  1.00  0.00     0.000 C 
BRANCH  23  24
HETATM   24  C   UNL     1     -21.966  -6.313  -3.966  1.00  0.00     0.000 C 
BRANCH  24  25
HETATM   25  C   UNL     1     -21.604  -7.244  -5.133  1.00  0.00     0.009 C 
BRANCH  25  26
HETATM   26  C   UNL     1     -20.183  -7.071  -5.668  1.00  0.00     0.103 C 
BRANCH  26  27
HETATM   27  C   UNL     1     -20.046  -5.758  -6.386  1.00  0.00     0.217 C 
HETATM   28  O   UNL     1     -19.738  -4.735  -5.801  1.00  0.00    -0.274 OA
HETATM   29  N   UNL     1     -20.242  -5.852  -7.739  1.00  0.00    -0.357 N 
HETATM   30  H   UNL     1     -20.842  -6.594  -8.065  1.00  0.00     0.162 HD
BRANCH  29  31
HETATM   31  C   UNL     1     -20.220  -4.656  -8.514  1.00  0.00     0.161 C 
BRANCH  31  32
HETATM   32  C   UNL     1     -21.544  -4.321  -9.163  1.00  0.00    -0.038 A 
HETATM   33  C   UNL     1     -22.699  -4.550  -8.419  1.00  0.00     0.012 A 
HETATM   34  C   UNL     1     -23.949  -4.168  -8.902  1.00  0.00     0.040 A 
HETATM   35  C   UNL     1     -24.048  -3.509 -10.114  1.00  0.00     0.099 A 
HETATM   36  C   UNL     1     -22.909  -3.248 -10.889  1.00  0.00     0.101 A 
HETATM   37  C   UNL     1     -21.669  -3.715 -10.431  1.00  0.00     0.048 A 
BRANCH  35  38
HETATM   38  O   UNL     1     -25.263  -3.103 -10.581  1.00  0.00    -0.358 OA
HETATM   39  H   UNL     1     -25.291  -2.135 -10.540  1.00  0.00     0.217 HD
ENDBRANCH  35  38
BRANCH  36  40
HETATM   40  O   UNL     1     -23.133  -2.531 -12.040  1.00  0.00    -0.353 OA
HETATM   41  C   UNL     1     -22.710  -3.097 -13.262  1.00  0.00     0.210 C 
ENDBRANCH  36  40
ENDBRANCH  31  32
ENDBRANCH  29  31
ENDBRANCH  26  27
ENDBRANCH  25  26
ENDBRANCH  24  25
ENDBRANCH  23  24
ENDBRANCH  22  23
ENDBRANCH   1  22
TORSDOF 22
ENDMDL
MODEL 5
REMARK VINA RESULT:      -7.1      2.663      8.879
REMARK  22 active torsions:
REMARK  status: ('A' for Active; 'I' for Inactive)
REMARK    1  A    between atoms: C_2  and  C_3 
REMARK    2  A    between atoms: C_3  and  C_4 
REMARK    3  A    between atoms: C_4  and  C_5 
REMARK    4  A    between atoms: C_5  and  C_6 
REMARK    5  A    between atoms: C_6  and  C_7 
REMARK    6  A    between atoms: C_7  and  C_8 
REMARK    7  A    between atoms: C_7  and  C_31 
REMARK    8  A    between atoms: C_8  and  C_9 
REMARK    9  A    between atoms: C_10  and  C_11 
REMARK   10  A    between atoms: C_11  and  C_12 
REMARK   11  A    between atoms: C_12  and  C_13 
REMARK   12  A    between atoms: C_13  and  C_14 
REMARK   13  A    between atoms: C_14  and  C_15 
REMARK   14  A    between atoms: C_15  and  C_16 
REMARK   15  A    between atoms: C_16  and  C_17 
REMARK   16  A    between atoms: C_17  and  C_18 
REMARK       I    between atoms: C_18  and  N_20 
REMARK   17  A    between atoms: N_20  and  C_21 
REMARK   18  A    between atoms: C_21  and  C_22 
REMARK   19  A    between atoms: C_25  and  O_26 
REMARK   20  A    between atoms: C_27  and  O_28 
REMARK   21  A    between atoms: C_31  and  C_33 
REMARK   22  A    between atoms: C_33  and  C_34 
ROOT
HETATM    1  C   UNL     1     -23.148  -8.408   0.328  1.00  0.00     0.004 C 
ENDROOT
BRANCH   1   2
HETATM    2  C   UNL     1     -22.172  -7.307  -0.099  1.00  0.00     0.027 C 
BRANCH   2   3
HETATM    3  C   UNL     1     -22.355  -6.972  -1.560  1.00  0.00    -0.031 C 
HETATM    4  C   UNL     1     -21.329  -6.605  -2.343  1.00  0.00    -0.030 C 
BRANCH   4   5
HETATM    5  C   UNL     1     -21.391  -6.184  -3.787  1.00  0.00     0.039 C 
BRANCH   5   6
HETATM    6  C   UNL     1     -20.501  -6.937  -4.826  1.00  0.00     0.059 C 
BRANCH   6   7
HETATM    7  C   UNL     1     -20.858  -6.569  -6.257  1.00  0.00     0.012 C 
BRANCH   7   8
HETATM    8  C   UNL     1     -21.716  -5.337  -6.319  1.00  0.00     0.001 C 
BRANCH   8   9
HETATM    9  C   UNL     1     -21.777  -4.842  -7.745  1.00  0.00     0.000 C 
BRANCH   9  10
HETATM   10  C   UNL     1     -20.392  -4.362  -8.115  1.00  0.00    -0.000 C 
BRANCH  10  11
HETATM   11  C   UNL     1     -20.044  -4.769  -9.530  1.00  0.00    -0.005 C 
HETATM   12  C   UNL     1     -20.710  -3.820 -10.503  1.00  0.00     0.005 C 
ENDBRANCH  10  11
ENDBRANCH   9  10
ENDBRANCH   8   9
ENDBRANCH   7   8
ENDBRANCH   6   7
BRANCH   6  13
HETATM   13  C   UNL     1     -20.651  -8.440  -4.851  1.00  0.00     0.135 C 
HETATM   14  O   UNL     1     -21.167  -8.961  -5.833  1.00  0.00    -0.297 OA
BRANCH  13  15
HETATM   15  C   UNL     1     -20.013  -9.307  -3.767  1.00  0.00     0.117 C 
BRANCH  15  16
HETATM   16  C   UNL     1     -18.506  -9.386  -3.977  1.00  0.00    -0.051 A 
HETATM   17  C   UNL     1     -17.948  -9.727  -5.209  1.00  0.00     0.007 A 
HETATM   18  C   UNL     1     -16.582 -10.014  -5.316  1.00  0.00     0.001 A 
HETATM   19  C   UNL     1     -15.766  -9.999  -4.184  1.00  0.00     0.000 A 
HETATM   20  C   UNL     1     -16.303  -9.628  -2.959  1.00  0.00     0.001 A 
HETATM   21  C   UNL     1     -17.652  -9.279  -2.870  1.00  0.00     0.007 A 
ENDBRANCH  15  16
ENDBRANCH  13  15
ENDBRANCH   6  13
ENDBRANCH   5   6
ENDBRANCH   4   5
ENDBRANCH   2   3
ENDBRANCH   1   2
BRANCH   1  22
HETATM   22  C   UNL     1     -22.743  -9.820  -0.108  1.00  0.00     0.000 C 
BRANCH  22  23
HETATM   23  C   UNL     1     -23.887 -10.835  -0.197  1.00  0.00     0.000 C 
BRANCH  23  24
HETATM   24  C   UNL     1     -23.884 -11.651  -1.494  1.00  0.00     0.000 C 
BRANCH  24  25
HETATM   25  C   UNL     1     -22.841 -11.170  -2.513  1.00  0.00     0.009 C 
BRANCH  25  26
HETATM   26  C   UNL     1     -22.829 -11.949  -3.828  1.00  0.00     0.103 C 
BRANCH  26  27
HETATM   27  C   UNL     1     -21.493 -12.602  -4.042  1.00  0.00     0.217 C 
HETATM   28  O   UNL     1     -21.193 -13.119  -5.104  1.00  0.00    -0.274 OA
HETATM   29  N   UNL     1     -20.655 -12.502  -2.962  1.00  0.00    -0.357 N 
HETATM   30  H   UNL     1     -21.087 -12.423  -2.054  1.00  0.00     0.162 HD
BRANCH  29  31
HETATM   31  C   UNL     1     -19.392 -13.158  -3.017  1.00  0.00     0.161 C 
BRANCH  31  32
HETATM   32  C   UNL     1     -18.427 -12.723  -1.936  1.00  0.00    -0.038 A 
HETATM   33  C   UNL     1     -18.958 -12.068  -0.828  1.00  0.00     0.012 A 
HETATM   34  C   UNL     1     -18.153 -11.732   0.258  1.00  0.00     0.040 A 
HETATM   35  C   UNL     1     -16.817 -12.095   0.265  1.00  0.00     0.099 A 
HETATM   36  C   UNL     1     -16.246 -12.766  -0.825  1.00  0.00     0.101 A 
HETATM   37  C   UNL     1     -17.048 -13.020  -1.947  1.00  0.00     0.048 A 
BRANCH  35  38
HETATM   38  O   UNL     1     -16.028 -11.798   1.337  1.00  0.00    -0.358 OA
HETATM   39  H   UNL     1     -16.380 -12.271   2.106  1.00  0.00     0.217 HD
ENDBRANCH  35  38
BRANCH  36  40
HETATM   40  O   UNL     1     -14.930 -13.126  -0.668  1.00  0.00    -0.353 OA
HETATM   41  C   UNL     1     -14.548 -14.425  -1.069  1.00  0.00     0.210 C 
ENDBRANCH  36  40
ENDBRANCH  31  32
ENDBRANCH  29  31
ENDBRANCH  26  27
ENDBRANCH  25  26
ENDBRANCH  24  25
ENDBRANCH  23  24
ENDBRANCH  22  23
ENDBRANCH   1  22
TORSDOF 22
ENDMDL
MODEL 6
REMARK VINA RESULT:      -7.0      1.482      3.226
REMARK  22 active torsions:
REMARK  status: ('A' for Active; 'I' for Inactive)
REMARK    1  A    between atoms: C_2  and  C_3 
REMARK    2  A    between atoms: C_3  and  C_4 
REMARK    3  A    between atoms: C_4  and  C_5 
REMARK    4  A    between atoms: C_5  and  C_6 
REMARK    5  A    between atoms: C_6  and  C_7 
REMARK    6  A    between atoms: C_7  and  C_8 
REMARK    7  A    between atoms: C_7  and  C_31 
REMARK    8  A    between atoms: C_8  and  C_9 
REMARK    9  A    between atoms: C_10  and  C_11 
REMARK   10  A    between atoms: C_11  and  C_12 
REMARK   11  A    between atoms: C_12  and  C_13 
REMARK   12  A    between atoms: C_13  and  C_14 
REMARK   13  A    between atoms: C_14  and  C_15 
REMARK   14  A    between atoms: C_15  and  C_16 
REMARK   15  A    between atoms: C_16  and  C_17 
REMARK   16  A    between atoms: C_17  and  C_18 
REMARK       I    between atoms: C_18  and  N_20 
REMARK   17  A    between atoms: N_20  and  C_21 
REMARK   18  A    between atoms: C_21  and  C_22 
REMARK   19  A    between atoms: C_25  and  O_26 
REMARK   20  A    between atoms: C_27  and  O_28 
REMARK   21  A    between atoms: C_31  and  C_33 
REMARK   22  A    between atoms: C_33  and  C_34 
ROOT
HETATM    1  C   UNL     1     -17.409 -10.868  -2.731  1.00  0.00     0.004 C 
ENDROOT
BRANCH   1   2
HETATM    2  C   UNL     1     -17.402 -11.452  -1.315  1.00  0.00     0.027 C 
BRANCH   2   3
HETATM    3  C   UNL     1     -18.501 -12.474  -1.156  1.00  0.00    -0.031 C 
HETATM    4  C   UNL     1     -19.562 -12.518  -1.978  1.00  0.00    -0.030 C 
BRANCH   4   5
HETATM    5  C   UNL     1     -20.749 -13.438  -1.884  1.00  0.00     0.039 C 
BRANCH   5   6
HETATM    6  C   UNL     1     -22.159 -12.884  -2.261  1.00  0.00     0.059 C 
BRANCH   6   7
HETATM    7  C   UNL     1     -22.079 -11.511  -2.910  1.00  0.00     0.012 C 
BRANCH   7   8
HETATM    8  C   UNL     1     -22.606 -11.529  -4.318  1.00  0.00     0.001 C 
BRANCH   8   9
HETATM    9  C   UNL     1     -22.561 -12.941  -4.850  1.00  0.00     0.000 C 
BRANCH   9  10
HETATM   10  C   UNL     1     -21.626 -12.945  -6.039  1.00  0.00    -0.000 C 
BRANCH  10  11
HETATM   11  C   UNL     1     -20.185 -13.049  -5.587  1.00  0.00    -0.005 C 
HETATM   12  C   UNL     1     -19.473 -11.745  -5.878  1.00  0.00     0.005 C 
ENDBRANCH  10  11
ENDBRANCH   9  10
ENDBRANCH   8   9
ENDBRANCH   7   8
ENDBRANCH   6   7
BRANCH   6  13
HETATM   13  C   UNL     1     -23.091 -12.619  -1.102  1.00  0.00     0.135 C 
HETATM   14  O   UNL     1     -24.283 -12.866  -1.240  1.00  0.00    -0.297 OA
BRANCH  13  15
HETATM   15  C   UNL     1     -22.540 -12.228   0.269  1.00  0.00     0.117 C 
BRANCH  15  16
HETATM   16  C   UNL     1     -22.248 -10.734   0.311  1.00  0.00    -0.051 A 
HETATM   17  C   UNL     1     -21.061 -10.228   0.840  1.00  0.00     0.007 A 
HETATM   18  C   UNL     1     -20.915  -8.855   1.076  1.00  0.00     0.001 A 
HETATM   19  C   UNL     1     -21.970  -7.978   0.820  1.00  0.00     0.000 A 
HETATM   20  C   UNL     1     -23.144  -8.465   0.262  1.00  0.00     0.001 A 
HETATM   21  C   UNL     1     -23.259  -9.825  -0.032  1.00  0.00     0.007 A 
ENDBRANCH  15  16
ENDBRANCH  13  15
ENDBRANCH   6  13
ENDBRANCH   5   6
ENDBRANCH   4   5
ENDBRANCH   2   3
ENDBRANCH   1   2
BRANCH   1  22
HETATM   22  C   UNL     1     -17.938  -9.432  -2.822  1.00  0.00     0.000 C 
BRANCH  22  23
HETATM   23  C   UNL     1     -19.363  -9.221  -2.304  1.00  0.00     0.000 C 
BRANCH  23  24
HETATM   24  C   UNL     1     -20.148  -8.159  -3.082  1.00  0.00     0.000 C 
BRANCH  24  25
HETATM   25  C   UNL     1     -20.070  -8.339  -4.605  1.00  0.00     0.009 C 
BRANCH  25  26
HETATM   26  C   UNL     1     -21.379  -8.068  -5.346  1.00  0.00     0.103 C 
BRANCH  26  27
HETATM   27  C   UNL     1     -21.534  -6.599  -5.623  1.00  0.00     0.217 C 
HETATM   28  O   UNL     1     -22.500  -5.969  -5.230  1.00  0.00    -0.274 OA
HETATM   29  N   UNL     1     -20.471  -6.054  -6.295  1.00  0.00    -0.357 N 
HETATM   30  H   UNL     1     -19.942  -6.671  -6.892  1.00  0.00     0.162 HD
BRANCH  29  31
HETATM   31  C   UNL     1     -20.543  -4.687  -6.688  1.00  0.00     0.161 C 
BRANCH  31  32
HETATM   32  C   UNL     1     -21.007  -4.481  -8.112  1.00  0.00    -0.038 A 
HETATM   33  C   UNL     1     -20.035  -4.468  -9.109  1.00  0.00     0.012 A 
HETATM   34  C   UNL     1     -20.390  -4.391 -10.454  1.00  0.00     0.040 A 
HETATM   35  C   UNL     1     -21.725  -4.377 -10.815  1.00  0.00     0.099 A 
HETATM   36  C   UNL     1     -22.736  -4.401  -9.845  1.00  0.00     0.101 A 
HETATM   37  C   UNL     1     -22.363  -4.390  -8.493  1.00  0.00     0.048 A 
BRANCH  35  38
HETATM   38  O   UNL     1     -22.083  -4.334 -12.131  1.00  0.00    -0.358 OA
HETATM   39  H   UNL     1     -22.745  -5.025 -12.282  1.00  0.00     0.217 HD
ENDBRANCH  35  38
BRANCH  36  40
HETATM   40  O   UNL     1     -24.019  -4.448 -10.333  1.00  0.00    -0.353 OA
HETATM   41  C   UNL     1     -24.902  -3.407  -9.970  1.00  0.00     0.210 C 
ENDBRANCH  36  40
ENDBRANCH  31  32
ENDBRANCH  29  31
ENDBRANCH  26  27
ENDBRANCH  25  26
ENDBRANCH  24  25
ENDBRANCH  23  24
ENDBRANCH  22  23
ENDBRANCH   1  22
TORSDOF 22
ENDMDL
MODEL 7
REMARK VINA RESULT:      -6.9      1.525      4.082
REMARK  22 active torsions:
REMARK  status: ('A' for Active; 'I' for Inactive)
REMARK    1  A    between atoms: C_2  and  C_3 
REMARK    2  A    between atoms: C_3  and  C_4 
REMARK    3  A    between atoms: C_4  and  C_5 
REMARK    4  A    between atoms: C_5  and  C_6 
REMARK    5  A    between atoms: C_6  and  C_7 
REMARK    6  A    between atoms: C_7  and  C_8 
REMARK    7  A    between atoms: C_7  and  C_31 
REMARK    8  A    between atoms: C_8  and  C_9 
REMARK    9  A    between atoms: C_10  and  C_11 
REMARK   10  A    between atoms: C_11  and  C_12 
REMARK   11  A    between atoms: C_12  and  C_13 
REMARK   12  A    between atoms: C_13  and  C_14 
REMARK   13  A    between atoms: C_14  and  C_15 
REMARK   14  A    between atoms: C_15  and  C_16 
REMARK   15  A    between atoms: C_16  and  C_17 
REMARK   16  A    between atoms: C_17  and  C_18 
REMARK       I    between atoms: C_18  and  N_20 
REMARK   17  A    between atoms: N_20  and  C_21 
REMARK   18  A    between atoms: C_21  and  C_22 
REMARK   19  A    between atoms: C_25  and  O_26 
REMARK   20  A    between atoms: C_27  and  O_28 
REMARK   21  A    between atoms: C_31  and  C_33 
REMARK   22  A    between atoms: C_33  and  C_34 
ROOT
HETATM    1  C   UNL     1     -16.660 -10.760  -2.402  1.00  0.00     0.004 C 
ENDROOT
BRANCH   1   2
HETATM    2  C   UNL     1     -17.156 -11.615  -1.231  1.00  0.00     0.027 C 
BRANCH   2   3
HETATM    3  C   UNL     1     -18.648 -11.832  -1.326  1.00  0.00    -0.031 C 
HETATM    4  C   UNL     1     -19.478 -11.552  -0.309  1.00  0.00    -0.030 C 
BRANCH   4   5
HETATM    5  C   UNL     1     -20.963 -11.784  -0.255  1.00  0.00     0.039 C 
BRANCH   5   6
HETATM    6  C   UNL     1     -21.792 -11.640  -1.571  1.00  0.00     0.059 C 
BRANCH   6   7
HETATM    7  C   UNL     1     -22.914 -10.624  -1.431  1.00  0.00     0.012 C 
BRANCH   7   8
HETATM    8  C   UNL     1     -23.018 -10.097  -0.027  1.00  0.00     0.001 C 
BRANCH   8   9
HETATM    9  C   UNL     1     -22.964  -8.588  -0.056  1.00  0.00     0.000 C 
BRANCH   9  10
HETATM   10  C   UNL     1     -21.507  -8.188   0.025  1.00  0.00    -0.000 C 
BRANCH  10  11
HETATM   11  C   UNL     1     -21.074  -7.486  -1.244  1.00  0.00    -0.005 C 
HETATM   12  C   UNL     1     -22.204  -6.613  -1.746  1.00  0.00     0.005 C 
ENDBRANCH  10  11
ENDBRANCH   9  10
ENDBRANCH   8   9
ENDBRANCH   7   8
ENDBRANCH   6   7
BRANCH   6  13
HETATM   13  C   UNL     1     -22.551 -12.872  -2.007  1.00  0.00     0.135 C 
HETATM   14  O   UNL     1     -23.669 -13.066  -1.546  1.00  0.00    -0.297 OA
BRANCH  13  15
HETATM   15  C   UNL     1     -22.019 -13.759  -3.132  1.00  0.00     0.117 C 
BRANCH  15  16
HETATM   16  C   UNL     1     -21.313 -12.911  -4.181  1.00  0.00    -0.051 A 
HETATM   17  C   UNL     1     -22.015 -12.081  -5.056  1.00  0.00     0.007 A 
HETATM   18  C   UNL     1     -21.370 -11.493  -6.150  1.00  0.00     0.001 A 
HETATM   19  C   UNL     1     -20.024 -11.758  -6.404  1.00  0.00     0.000 A 
HETATM   20  C   UNL     1     -19.306 -12.554  -5.521  1.00  0.00     0.001 A 
HETATM   21  C   UNL     1     -19.938 -13.085  -4.395  1.00  0.00     0.007 A 
ENDBRANCH  15  16
ENDBRANCH  13  15
ENDBRANCH   6  13
ENDBRANCH   5   6
ENDBRANCH   4   5
ENDBRANCH   2   3
ENDBRANCH   1   2
BRANCH   1  22
HETATM   22  C   UNL     1     -17.527  -9.533  -2.704  1.00  0.00     0.000 C 
BRANCH  22  23
HETATM   23  C   UNL     1     -18.148  -9.495  -4.104  1.00  0.00     0.000 C 
BRANCH  23  24
HETATM   24  C   UNL     1     -19.529  -8.833  -4.144  1.00  0.00     0.000 C 
BRANCH  24  25
HETATM   25  C   UNL     1     -19.851  -8.180  -5.497  1.00  0.00     0.009 C 
BRANCH  25  26
HETATM   26  C   UNL     1     -21.198  -7.460  -5.552  1.00  0.00     0.103 C 
BRANCH  26  27
HETATM   27  C   UNL     1     -21.042  -6.092  -6.154  1.00  0.00     0.217 C 
HETATM   28  O   UNL     1     -21.119  -5.080  -5.480  1.00  0.00    -0.274 OA
HETATM   29  N   UNL     1     -20.753  -6.114  -7.494  1.00  0.00    -0.357 N 
HETATM   30  H   UNL     1     -21.081  -6.910  -8.020  1.00  0.00     0.162 HD
BRANCH  29  31
HETATM   31  C   UNL     1     -20.666  -4.875  -8.192  1.00  0.00     0.161 C 
BRANCH  31  32
HETATM   32  C   UNL     1     -21.901  -4.535  -8.995  1.00  0.00    -0.038 A 
HETATM   33  C   UNL     1     -22.995  -4.022  -8.303  1.00  0.00     0.012 A 
HETATM   34  C   UNL     1     -24.130  -3.583  -8.982  1.00  0.00     0.040 A 
HETATM   35  C   UNL     1     -24.159  -3.609 -10.365  1.00  0.00     0.099 A 
HETATM   36  C   UNL     1     -23.075  -4.106 -11.101  1.00  0.00     0.101 A 
HETATM   37  C   UNL     1     -21.975  -4.624 -10.402  1.00  0.00     0.048 A 
BRANCH  35  38
HETATM   38  O   UNL     1     -25.253  -3.153 -11.040  1.00  0.00    -0.358 OA
HETATM   39  H   UNL     1     -24.992  -2.998 -11.961  1.00  0.00     0.217 HD
ENDBRANCH  35  38
BRANCH  36  40
HETATM   40  O   UNL     1     -23.201  -4.019 -12.466  1.00  0.00    -0.353 OA
HETATM   41  C   UNL     1     -22.734  -2.846 -13.099  1.00  0.00     0.210 C 
ENDBRANCH  36  40
ENDBRANCH  31  32
ENDBRANCH  29  31
ENDBRANCH  26  27
ENDBRANCH  25  26
ENDBRANCH  24  25
ENDBRANCH  23  24
ENDBRANCH  22  23
ENDBRANCH   1  22
TORSDOF 22
ENDMDL
MODEL 8
REMARK VINA RESULT:      -6.9      1.514      4.336
REMARK  22 active torsions:
REMARK  status: ('A' for Active; 'I' for Inactive)
REMARK    1  A    between atoms: C_2  and  C_3 
REMARK    2  A    between atoms: C_3  and  C_4 
REMARK    3  A    between atoms: C_4  and  C_5 
REMARK    4  A    between atoms: C_5  and  C_6 
REMARK    5  A    between atoms: C_6  and  C_7 
REMARK    6  A    between atoms: C_7  and  C_8 
REMARK    7  A    between atoms: C_7  and  C_31 
REMARK    8  A    between atoms: C_8  and  C_9 
REMARK    9  A    between atoms: C_10  and  C_11 
REMARK   10  A    between atoms: C_11  and  C_12 
REMARK   11  A    between atoms: C_12  and  C_13 
REMARK   12  A    between atoms: C_13  and  C_14 
REMARK   13  A    between atoms: C_14  and  C_15 
REMARK   14  A    between atoms: C_15  and  C_16 
REMARK   15  A    between atoms: C_16  and  C_17 
REMARK   16  A    between atoms: C_17  and  C_18 
REMARK       I    between atoms: C_18  and  N_20 
REMARK   17  A    between atoms: N_20  and  C_21 
REMARK   18  A    between atoms: C_21  and  C_22 
REMARK   19  A    between atoms: C_25  and  O_26 
REMARK   20  A    between atoms: C_27  and  O_28 
REMARK   21  A    between atoms: C_31  and  C_33 
REMARK   22  A    between atoms: C_33  and  C_34 
ROOT
HETATM    1  C   UNL     1     -16.140  -9.894  -3.865  1.00  0.00     0.004 C 
ENDROOT
BRANCH   1   2
HETATM    2  C   UNL     1     -17.116  -9.696  -2.701  1.00  0.00     0.027 C 
BRANCH   2   3
HETATM    3  C   UNL     1     -17.467 -11.022  -2.071  1.00  0.00    -0.031 C 
HETATM    4  C   UNL     1     -18.611 -11.667  -2.350  1.00  0.00    -0.030 C 
BRANCH   4   5
HETATM    5  C   UNL     1     -19.104 -12.952  -1.742  1.00  0.00     0.039 C 
BRANCH   5   6
HETATM    6  C   UNL     1     -20.595 -13.044  -1.288  1.00  0.00     0.059 C 
BRANCH   6   7
HETATM    7  C   UNL     1     -20.911 -14.377  -0.628  1.00  0.00     0.012 C 
BRANCH   7   8
HETATM    8  C   UNL     1     -21.036 -14.245   0.864  1.00  0.00     0.001 C 
BRANCH   8   9
HETATM    9  C   UNL     1     -21.816 -12.993   1.190  1.00  0.00     0.000 C 
BRANCH   9  10
HETATM   10  C   UNL     1     -23.229 -13.418   1.523  1.00  0.00    -0.000 C 
BRANCH  10  11
HETATM   11  C   UNL     1     -23.243 -14.342   2.721  1.00  0.00    -0.005 C 
HETATM   12  C   UNL     1     -24.238 -15.458   2.483  1.00  0.00     0.005 C 
ENDBRANCH  10  11
ENDBRANCH   9  10
ENDBRANCH   8   9
ENDBRANCH   7   8
ENDBRANCH   6   7
BRANCH   6  13
HETATM   13  C   UNL     1     -21.622 -13.001  -2.395  1.00  0.00     0.135 C 
HETATM   14  O   UNL     1     -22.277 -14.010  -2.626  1.00  0.00    -0.297 OA
BRANCH  13  15
HETATM   15  C   UNL     1     -21.968 -11.685  -3.089  1.00  0.00     0.117 C 
BRANCH  15  16
HETATM   16  C   UNL     1     -22.412 -10.651  -2.064  1.00  0.00    -0.051 A 
HETATM   17  C   UNL     1     -21.664  -9.504  -1.799  1.00  0.00     0.007 A 
HETATM   18  C   UNL     1     -21.973  -8.691  -0.700  1.00  0.00     0.001 A 
HETATM   19  C   UNL     1     -23.009  -9.039   0.166  1.00  0.00     0.000 A 
HETATM   20  C   UNL     1     -23.782 -10.159  -0.106  1.00  0.00     0.001 A 
HETATM   21  C   UNL     1     -23.512 -10.928  -1.240  1.00  0.00     0.007 A 
ENDBRANCH  15  16
ENDBRANCH  13  15
ENDBRANCH   6  13
ENDBRANCH   5   6
ENDBRANCH   4   5
ENDBRANCH   2   3
ENDBRANCH   1   2
BRANCH   1  22
HETATM   22  C   UNL     1     -16.787 -10.402  -5.158  1.00  0.00     0.000 C 
BRANCH  22  23
HETATM   23  C   UNL     1     -17.793  -9.448  -5.809  1.00  0.00     0.000 C 
BRANCH  23  24
HETATM   24  C   UNL     1     -19.220  -9.604  -5.275  1.00  0.00     0.000 C 
BRANCH  24  25
HETATM   25  C   UNL     1     -19.838  -8.281  -4.796  1.00  0.00     0.009 C 
BRANCH  25  26
HETATM   26  C   UNL     1     -21.289  -8.065  -5.224  1.00  0.00     0.103 C 
BRANCH  26  27
HETATM   27  C   UNL     1     -21.544  -6.612  -5.511  1.00  0.00     0.217 C 
HETATM   28  O   UNL     1     -22.577  -6.062  -5.172  1.00  0.00    -0.274 OA
HETATM   29  N   UNL     1     -20.492  -5.983  -6.124  1.00  0.00    -0.357 N 
HETATM   30  H   UNL     1     -19.884  -6.555  -6.690  1.00  0.00     0.162 HD
BRANCH  29  31
HETATM   31  C   UNL     1     -20.650  -4.624  -6.523  1.00  0.00     0.161 C 
BRANCH  31  32
HETATM   32  C   UNL     1     -21.033  -4.451  -7.975  1.00  0.00    -0.038 A 
HETATM   33  C   UNL     1     -20.016  -4.534  -8.922  1.00  0.00     0.012 A 
HETATM   34  C   UNL     1     -20.301  -4.493 -10.285  1.00  0.00     0.040 A 
HETATM   35  C   UNL     1     -21.615  -4.417 -10.712  1.00  0.00     0.099 A 
HETATM   36  C   UNL     1     -22.670  -4.344  -9.793  1.00  0.00     0.101 A 
HETATM   37  C   UNL     1     -22.362  -4.299  -8.425  1.00  0.00     0.048 A 
BRANCH  35  38
HETATM   38  O   UNL     1     -21.906  -4.407 -12.045  1.00  0.00    -0.358 OA
HETATM   39  H   UNL     1     -21.251  -4.959 -12.497  1.00  0.00     0.217 HD
ENDBRANCH  35  38
BRANCH  36  40
HETATM   40  O   UNL     1     -23.928  -4.336 -10.343  1.00  0.00    -0.353 OA
HETATM   41  C   UNL     1     -24.840  -3.356  -9.892  1.00  0.00     0.210 C 
ENDBRANCH  36  40
ENDBRANCH  31  32
ENDBRANCH  29  31
ENDBRANCH  26  27
ENDBRANCH  25  26
ENDBRANCH  24  25
ENDBRANCH  23  24
ENDBRANCH  22  23
ENDBRANCH   1  22
TORSDOF 22
ENDMDL
MODEL 9
REMARK VINA RESULT:      -6.9      1.886      3.280
REMARK  22 active torsions:
REMARK  status: ('A' for Active; 'I' for Inactive)
REMARK    1  A    between atoms: C_2  and  C_3 
REMARK    2  A    between atoms: C_3  and  C_4 
REMARK    3  A    between atoms: C_4  and  C_5 
REMARK    4  A    between atoms: C_5  and  C_6 
REMARK    5  A    between atoms: C_6  and  C_7 
REMARK    6  A    between atoms: C_7  and  C_8 
REMARK    7  A    between atoms: C_7  and  C_31 
REMARK    8  A    between atoms: C_8  and  C_9 
REMARK    9  A    between atoms: C_10  and  C_11 
REMARK   10  A    between atoms: C_11  and  C_12 
REMARK   11  A    between atoms: C_12  and  C_13 
REMARK   12  A    between atoms: C_13  and  C_14 
REMARK   13  A    between atoms: C_14  and  C_15 
REMARK   14  A    between atoms: C_15  and  C_16 
REMARK   15  A    between atoms: C_16  and  C_17 
REMARK   16  A    between atoms: C_17  and  C_18 
REMARK       I    between atoms: C_18  and  N_20 
REMARK   17  A    between atoms: N_20  and  C_21 
REMARK   18  A    between atoms: C_21  and  C_22 
REMARK   19  A    between atoms: C_25  and  O_26 
REMARK   20  A    between atoms: C_27  and  O_28 
REMARK   21  A    between atoms: C_31  and  C_33 
REMARK   22  A    between atoms: C_33  and  C_34 
ROOT
HETATM    1  C   UNL     1     -21.627  -9.317   0.351  1.00  0.00     0.004 C 
ENDROOT
BRANCH   1   2
HETATM    2  C   UNL     1     -22.712 -10.137  -0.353  1.00  0.00     0.027 C 
BRANCH   2   3
HETATM    3  C   UNL     1     -22.154 -10.814  -1.582  1.00  0.00    -0.031 C 
HETATM    4  C   UNL     1     -22.629 -10.566  -2.813  1.00  0.00    -0.030 C 
BRANCH   4   5
HETATM    5  C   UNL     1     -22.206 -11.219  -4.101  1.00  0.00     0.039 C 
BRANCH   5   6
HETATM    6  C   UNL     1     -21.050 -10.571  -4.927  1.00  0.00     0.059 C 
BRANCH   6   7
HETATM    7  C   UNL     1     -20.703 -11.386  -6.162  1.00  0.00     0.012 C 
BRANCH   7   8
HETATM    8  C   UNL     1     -21.796 -12.355  -6.517  1.00  0.00     0.001 C 
BRANCH   8   9
HETATM    9  C   UNL     1     -21.184 -13.608  -7.094  1.00  0.00     0.000 C 
BRANCH   9  10
HETATM   10  C   UNL     1     -20.199 -13.180  -8.158  1.00  0.00    -0.000 C 
BRANCH  10  11
HETATM   11  C   UNL     1     -18.927 -13.995  -8.071  1.00  0.00    -0.005 C 
HETATM   12  C   UNL     1     -19.260 -15.398  -7.610  1.00  0.00     0.005 C 
ENDBRANCH  10  11
ENDBRANCH   9  10
ENDBRANCH   8   9
ENDBRANCH   7   8
ENDBRANCH   6   7
BRANCH   6  13
HETATM   13  C   UNL     1     -19.712 -10.489  -4.230  1.00  0.00     0.135 C 
HETATM   14  O   UNL     1     -19.420  -9.457  -3.640  1.00  0.00    -0.297 OA
BRANCH  13  15
HETATM   15  C   UNL     1     -18.821 -11.724  -4.104  1.00  0.00     0.117 C 
BRANCH  15  16
HETATM   16  C   UNL     1     -19.014 -12.376  -2.742  1.00  0.00    -0.051 A 
HETATM   17  C   UNL     1     -19.834 -13.490  -2.565  1.00  0.00     0.007 A 
HETATM   18  C   UNL     1     -20.173 -13.927  -1.278  1.00  0.00     0.001 A 
HETATM   19  C   UNL     1     -19.725 -13.231  -0.155  1.00  0.00     0.000 A 
HETATM   20  C   UNL     1     -18.881 -12.141  -0.317  1.00  0.00     0.001 A 
HETATM   21  C   UNL     1     -18.493 -11.750  -1.601  1.00  0.00     0.007 A 
ENDBRANCH  15  16
ENDBRANCH  13  15
ENDBRANCH   6  13
ENDBRANCH   5   6
ENDBRANCH   4   5
ENDBRANCH   2   3
ENDBRANCH   1   2
BRANCH   1  22
HETATM   22  C   UNL     1     -21.952  -7.826   0.497  1.00  0.00     0.000 C 
BRANCH  22  23
HETATM   23  C   UNL     1     -22.351  -7.110  -0.797  1.00  0.00     0.000 C 
BRANCH  23  24
HETATM   24  C   UNL     1     -21.291  -7.197  -1.899  1.00  0.00     0.000 C 
BRANCH  24  25
HETATM   25  C   UNL     1     -21.565  -6.259  -3.084  1.00  0.00     0.009 C 
BRANCH  25  26
HETATM   26  C   UNL     1     -21.851  -6.969  -4.406  1.00  0.00     0.103 C 
BRANCH  26  27
HETATM   27  C   UNL     1     -20.923  -6.477  -5.481  1.00  0.00     0.217 C 
HETATM   28  O   UNL     1     -20.116  -7.213  -6.020  1.00  0.00    -0.274 OA
HETATM   29  N   UNL     1     -21.123  -5.163  -5.816  1.00  0.00    -0.357 N 
HETATM   30  H   UNL     1     -21.502  -4.560  -5.102  1.00  0.00     0.162 HD
BRANCH  29  31
HETATM   31  C   UNL     1     -20.246  -4.561  -6.764  1.00  0.00     0.161 C 
BRANCH  31  32
HETATM   32  C   UNL     1     -20.839  -4.423  -8.148  1.00  0.00    -0.038 A 
HETATM   33  C   UNL     1     -19.963  -4.471  -9.230  1.00  0.00     0.012 A 
HETATM   34  C   UNL     1     -20.439  -4.460 -10.539  1.00  0.00     0.040 A 
HETATM   35  C   UNL     1     -21.803  -4.450 -10.776  1.00  0.00     0.099 A 
HETATM   36  C   UNL     1     -22.719  -4.414  -9.716  1.00  0.00     0.101 A 
HETATM   37  C   UNL     1     -22.223  -4.338  -8.407  1.00  0.00     0.048 A 
BRANCH  35  38
HETATM   38  O   UNL     1     -22.280  -4.470 -12.053  1.00  0.00    -0.358 OA
HETATM   39  H   UNL     1     -21.743  -3.861 -12.581  1.00  0.00     0.217 HD
ENDBRANCH  35  38
BRANCH  36  40
HETATM   40  O   UNL     1     -24.042  -4.471 -10.082  1.00  0.00    -0.353 OA
HETATM   41  C   UNL     1     -24.842  -3.330  -9.850  1.00  0.00     0.210 C 
ENDBRANCH  36  40
ENDBRANCH  31  32
ENDBRANCH  29  31
ENDBRANCH  26  27
ENDBRANCH  25  26
ENDBRANCH  24  25
ENDBRANCH  23  24
ENDBRANCH  22  23
ENDBRANCH   1  22
TORSDOF 22
ENDMDL
