MODEL 1
REMARK VINA RESULT:      -7.8      0.000      0.000
REMARK  3 active torsions:
REMARK  status: ('A' for Active; 'I' for Inactive)
REMARK    1  A    between atoms: C_2  and  C_5 
REMARK    2  A    between atoms: C_8  and  N_9 
REMARK       I    between atoms: N_9  and  C_10 
REMARK       I    between atoms: C_10  and  N_12 
REMARK    3  A    between atoms: N_15  and  C_16 
ROOT
HETATM    1  N   UNL     1     -21.975 -10.201  -2.031  1.00  0.00    -0.309 N 
HETATM    2  C   UNL     1     -21.722  -8.873  -1.766  1.00  0.00     0.323 C 
HETATM    3  O   UNL     1     -21.705  -8.378  -0.641  1.00  0.00    -0.247 OA
HETATM    4  N   UNL     1     -21.505  -8.071  -2.878  1.00  0.00    -0.331 N 
HETATM    5  C   UNL     1     -21.502  -8.533  -4.279  1.00  0.00     0.147 C 
HETATM    6  C   UNL     1     -20.742  -7.576  -5.217  1.00  0.00     0.144 C 
HETATM    7  N   UNL     1     -21.270  -6.228  -5.018  1.00  0.00    -0.363 N 
HETATM    8  C   UNL     1     -21.015  -5.720  -3.665  1.00  0.00     0.144 C 
HETATM    9  C   UNL     1     -21.753  -6.631  -2.674  1.00  0.00     0.147 C 
HETATM   10  H   UNL     1     -22.116 -10.463  -2.991  1.00  0.00     0.170 HD
ENDROOT
BRANCH   1  11
HETATM   11  C   UNL     1     -22.226 -11.220  -1.085  1.00  0.00     0.036 A 
HETATM   12  C   UNL     1     -23.472 -11.434  -0.509  1.00  0.00     0.030 A 
HETATM   13  C   UNL     1     -23.674 -12.465   0.406  1.00  0.00     0.010 A 
HETATM   14  C   UNL     1     -22.632 -13.313   0.798  1.00  0.00    -0.051 A 
HETATM   15  C   UNL     1     -21.371 -13.089   0.216  1.00  0.00     0.010 A 
HETATM   16  C   UNL     1     -21.169 -12.055  -0.714  1.00  0.00     0.030 A 
BRANCH  14  17
HETATM   17  C   UNL     1     -22.852 -14.431   1.827  1.00  0.00    -0.024 C 
HETATM   18  C   UNL     1     -24.041 -14.157   2.780  1.00  0.00     0.019 C 
HETATM   19  C   UNL     1     -21.592 -14.581   2.704  1.00  0.00     0.019 C 
HETATM   20  C   UNL     1     -23.142 -15.763   1.107  1.00  0.00     0.019 C 
ENDBRANCH  14  17
ENDBRANCH   1  11
BRANCH   7  21
HETATM   21  C   UNL     1     -21.544  -5.341  -6.034  1.00  0.00     0.125 A 
HETATM   22  N   UNL     1     -22.852  -5.212  -6.380  1.00  0.00    -0.351 N 
HETATM   23  C   UNL     1     -23.193  -4.416  -7.417  1.00  0.00     0.090 A 
ATOM     24  HN  UNL     1     -23.572  -5.715  -5.860  1.00  0.00     0.166 HD
HETATM   25  C   UNL     1     -22.284  -3.692  -8.155  1.00  0.00     0.019 A 
HETATM   26  C   UNL     1     -20.944  -3.811  -7.823  1.00  0.00     0.029 A 
HETATM   27  C   UNL     1     -20.561  -4.651  -6.771  1.00  0.00     0.077 A 
HETATM   28 CL   UNL     1     -18.853  -4.879  -6.578  1.00  0.00    -0.080 Cl
ENDBRANCH   7  21
TORSDOF 3
ENDMDL
MODEL 2
REMARK VINA RESULT:      -7.7      3.079     10.187
REMARK  3 active torsions:
REMARK  status: ('A' for Active; 'I' for Inactive)
REMARK    1  A    between atoms: C_2  and  C_5 
REMARK    2  A    between atoms: C_8  and  N_9 
REMARK       I    between atoms: N_9  and  C_10 
REMARK       I    between atoms: C_10  and  N_12 
REMARK    3  A    between atoms: N_15  and  C_16 
ROOT
HETATM    1  N   UNL     1     -21.386  -8.795  -3.678  1.00  0.00    -0.309 N 
HETATM    2  C   UNL     1     -21.181  -8.695  -2.319  1.00  0.00     0.323 C 
HETATM    3  O   UNL     1     -20.842  -7.666  -1.740  1.00  0.00    -0.247 OA
HETATM    4  N   UNL     1     -21.354  -9.869  -1.600  1.00  0.00    -0.331 N 
HETATM    5  C   UNL     1     -21.754 -11.171  -2.169  1.00  0.00     0.147 C 
HETATM    6  C   UNL     1     -22.357 -12.118  -1.115  1.00  0.00     0.144 C 
HETATM    7  N   UNL     1     -21.427 -12.202   0.009  1.00  0.00    -0.363 N 
HETATM    8  C   UNL     1     -21.266 -10.916   0.699  1.00  0.00     0.144 C 
HETATM    9  C   UNL     1     -20.659  -9.920  -0.300  1.00  0.00     0.147 C 
HETATM   10  H   UNL     1     -21.509  -9.715  -4.061  1.00  0.00     0.170 HD
ENDROOT
BRANCH   1  11
HETATM   11  C   UNL     1     -21.275  -7.755  -4.629  1.00  0.00     0.036 A 
HETATM   12  C   UNL     1     -22.281  -6.827  -4.863  1.00  0.00     0.030 A 
HETATM   13  C   UNL     1     -22.116  -5.808  -5.799  1.00  0.00     0.010 A 
HETATM   14  C   UNL     1     -20.944  -5.687  -6.554  1.00  0.00    -0.051 A 
HETATM   15  C   UNL     1     -19.930  -6.633  -6.317  1.00  0.00     0.010 A 
HETATM   16  C   UNL     1     -20.092  -7.655  -5.367  1.00  0.00     0.030 A 
BRANCH  14  17
HETATM   17  C   UNL     1     -20.776  -4.579  -7.604  1.00  0.00    -0.024 C 
HETATM   18  C   UNL     1     -21.408  -4.934  -8.971  1.00  0.00     0.019 C 
HETATM   19  C   UNL     1     -19.275  -4.322  -7.848  1.00  0.00     0.019 C 
HETATM   20  C   UNL     1     -21.449  -3.281  -7.114  1.00  0.00     0.019 C 
ENDBRANCH  14  17
ENDBRANCH   1  11
BRANCH   7  21
HETATM   21  C   UNL     1     -21.097 -13.366   0.663  1.00  0.00     0.125 A 
HETATM   22  N   UNL     1     -19.921 -13.943   0.301  1.00  0.00    -0.351 N 
HETATM   23  C   UNL     1     -19.562 -15.127   0.845  1.00  0.00     0.090 A 
ATOM     24  HN  UNL     1     -19.312 -13.485  -0.376  1.00  0.00     0.166 HD
HETATM   25  C   UNL     1     -20.320 -15.799   1.779  1.00  0.00     0.019 A 
HETATM   26  C   UNL     1     -21.526 -15.232   2.158  1.00  0.00     0.029 A 
HETATM   27  C   UNL     1     -21.934 -14.020   1.590  1.00  0.00     0.077 A 
HETATM   28 CL   UNL     1     -23.544 -13.511   1.984  1.00  0.00    -0.080 Cl
ENDBRANCH   7  21
TORSDOF 3
ENDMDL
MODEL 3
REMARK VINA RESULT:      -7.6      2.706     10.095
REMARK  3 active torsions:
REMARK  status: ('A' for Active; 'I' for Inactive)
REMARK    1  A    between atoms: C_2  and  C_5 
REMARK    2  A    between atoms: C_8  and  N_9 
REMARK       I    between atoms: N_9  and  C_10 
REMARK       I    between atoms: C_10  and  N_12 
REMARK    3  A    between atoms: N_15  and  C_16 
ROOT
HETATM    1  N   UNL     1     -21.595  -8.601  -3.564  1.00  0.00    -0.309 N 
HETATM    2  C   UNL     1     -21.092  -8.621  -2.281  1.00  0.00     0.323 C 
HETATM    3  O   UNL     1     -20.299  -7.797  -1.831  1.00  0.00    -0.247 OA
HETATM    4  N   UNL     1     -21.516  -9.678  -1.488  1.00  0.00    -0.331 N 
HETATM    5  C   UNL     1     -22.458 -10.736  -1.902  1.00  0.00     0.147 C 
HETATM    6  C   UNL     1     -23.126 -11.437  -0.705  1.00  0.00     0.144 C 
HETATM    7  N   UNL     1     -22.074 -11.879   0.209  1.00  0.00    -0.363 N 
HETATM    8  C   UNL     1     -21.330 -10.756   0.791  1.00  0.00     0.144 C 
HETATM    9  C   UNL     1     -20.631 -10.011  -0.356  1.00  0.00     0.147 C 
HETATM   10  H   UNL     1     -22.112  -9.406  -3.870  1.00  0.00     0.170 HD
ENDROOT
BRANCH   1  11
HETATM   11  C   UNL     1     -21.323  -7.641  -4.564  1.00  0.00     0.036 A 
HETATM   12  C   UNL     1     -20.137  -7.607  -5.285  1.00  0.00     0.030 A 
HETATM   13  C   UNL     1     -19.924  -6.650  -6.276  1.00  0.00     0.010 A 
HETATM   14  C   UNL     1     -20.883  -5.675  -6.573  1.00  0.00    -0.051 A 
HETATM   15  C   UNL     1     -22.081  -5.711  -5.836  1.00  0.00     0.010 A 
HETATM   16  C   UNL     1     -22.300  -6.680  -4.843  1.00  0.00     0.030 A 
BRANCH  14  17
HETATM   17  C   UNL     1     -20.634  -4.606  -7.647  1.00  0.00    -0.024 C 
HETATM   18  C   UNL     1     -21.126  -5.029  -9.052  1.00  0.00     0.019 C 
HETATM   19  C   UNL     1     -19.121  -4.330  -7.758  1.00  0.00     0.019 C 
HETATM   20  C   UNL     1     -21.371  -3.304  -7.277  1.00  0.00     0.019 C 
ENDBRANCH  14  17
ENDBRANCH   1  11
BRANCH   7  21
HETATM   21  C   UNL     1     -22.049 -13.104   0.835  1.00  0.00     0.125 A 
HETATM   22  N   UNL     1     -23.095 -13.376   1.659  1.00  0.00    -0.351 N 
HETATM   23  C   UNL     1     -23.106 -14.528   2.366  1.00  0.00     0.090 A 
ATOM     24  HN  UNL     1     -23.868 -12.716   1.743  1.00  0.00     0.166 HD
HETATM   25  C   UNL     1     -22.111 -15.477   2.294  1.00  0.00     0.019 A 
HETATM   26  C   UNL     1     -21.032 -15.218   1.464  1.00  0.00     0.029 A 
HETATM   27  C   UNL     1     -20.983 -14.021   0.741  1.00  0.00     0.077 A 
HETATM   28 CL   UNL     1     -19.499 -13.714  -0.102  1.00  0.00    -0.080 Cl
ENDBRANCH   7  21
TORSDOF 3
ENDMDL
MODEL 4
REMARK VINA RESULT:      -7.5     18.527     20.557
REMARK  3 active torsions:
REMARK  status: ('A' for Active; 'I' for Inactive)
REMARK    1  A    between atoms: C_2  and  C_5 
REMARK    2  A    between atoms: C_8  and  N_9 
REMARK       I    between atoms: N_9  and  C_10 
REMARK       I    between atoms: C_10  and  N_12 
REMARK    3  A    between atoms: N_15  and  C_16 
ROOT
HETATM    1  N   UNL     1     -21.929   8.986   2.206  1.00  0.00    -0.309 N 
HETATM    2  C   UNL     1     -20.965   9.970   2.187  1.00  0.00     0.323 C 
HETATM    3  O   UNL     1     -20.974  10.939   1.432  1.00  0.00    -0.247 OA
HETATM    4  N   UNL     1     -19.916   9.798   3.079  1.00  0.00    -0.331 N 
HETATM    5  C   UNL     1     -19.779   8.681   4.034  1.00  0.00     0.147 C 
HETATM    6  C   UNL     1     -18.839   9.017   5.208  1.00  0.00     0.144 C 
HETATM    7  N   UNL     1     -17.579   9.508   4.656  1.00  0.00    -0.363 N 
HETATM    8  C   UNL     1     -17.742  10.770   3.924  1.00  0.00     0.144 C 
HETATM    9  C   UNL     1     -18.669  10.504   2.729  1.00  0.00     0.147 C 
HETATM   10  H   UNL     1     -21.742   8.164   2.752  1.00  0.00     0.170 HD
ENDROOT
BRANCH   1  11
HETATM   11  C   UNL     1     -23.091   8.924   1.403  1.00  0.00     0.036 A 
HETATM   12  C   UNL     1     -23.116   8.341   0.143  1.00  0.00     0.030 A 
HETATM   13  C   UNL     1     -24.293   8.288  -0.602  1.00  0.00     0.010 A 
HETATM   14  C   UNL     1     -25.489   8.834  -0.124  1.00  0.00    -0.051 A 
HETATM   15  C   UNL     1     -25.457   9.428   1.151  1.00  0.00     0.010 A 
HETATM   16  C   UNL     1     -24.274   9.473   1.906  1.00  0.00     0.030 A 
BRANCH  14  17
HETATM   17  C   UNL     1     -26.777   8.798  -0.959  1.00  0.00    -0.024 C 
HETATM   18  C   UNL     1     -27.115  10.158  -1.617  1.00  0.00     0.019 C 
HETATM   19  C   UNL     1     -27.969   8.422  -0.055  1.00  0.00     0.019 C 
HETATM   20  C   UNL     1     -26.643   7.763  -2.094  1.00  0.00     0.019 C 
ENDBRANCH  14  17
ENDBRANCH   1  11
BRANCH   7  21
HETATM   21  C   UNL     1     -16.334   9.151   5.119  1.00  0.00     0.125 A 
HETATM   22  N   UNL     1     -16.106   9.354   6.443  1.00  0.00    -0.351 N 
HETATM   23  C   UNL     1     -14.883   9.097   6.958  1.00  0.00     0.090 A 
ATOM     24  HN  UNL     1     -16.853   9.699   7.045  1.00  0.00     0.166 HD
HETATM   25  C   UNL     1     -13.828   8.613   6.216  1.00  0.00     0.019 A 
HETATM   26  C   UNL     1     -14.037   8.403   4.862  1.00  0.00     0.029 A 
HETATM   27  C   UNL     1     -15.285   8.687   4.298  1.00  0.00     0.077 A 
HETATM   28 CL   UNL     1     -15.370   8.580   2.570  1.00  0.00    -0.080 Cl
ENDBRANCH   7  21
TORSDOF 3
ENDMDL
MODEL 5
REMARK VINA RESULT:      -7.4      2.933     10.244
REMARK  3 active torsions:
REMARK  status: ('A' for Active; 'I' for Inactive)
REMARK    1  A    between atoms: C_2  and  C_5 
REMARK    2  A    between atoms: C_8  and  N_9 
REMARK       I    between atoms: N_9  and  C_10 
REMARK       I    between atoms: C_10  and  N_12 
REMARK    3  A    between atoms: N_15  and  C_16 
ROOT
HETATM    1  N   UNL     1     -20.902  -8.629  -3.873  1.00  0.00    -0.309 N 
HETATM    2  C   UNL     1     -21.046  -9.985  -4.070  1.00  0.00     0.323 C 
HETATM    3  O   UNL     1     -21.272 -10.511  -5.157  1.00  0.00    -0.247 OA
HETATM    4  N   UNL     1     -20.950 -10.770  -2.929  1.00  0.00    -0.331 N 
HETATM    5  C   UNL     1     -20.687 -10.269  -1.566  1.00  0.00     0.147 C 
HETATM    6  C   UNL     1     -20.130 -11.360  -0.632  1.00  0.00     0.144 C 
HETATM    7  N   UNL     1     -21.021 -12.515  -0.698  1.00  0.00    -0.363 N 
HETATM    8  C   UNL     1     -21.043 -13.130  -2.031  1.00  0.00     0.144 C 
HETATM    9  C   UNL     1     -21.598 -12.091  -3.017  1.00  0.00     0.147 C 
HETATM   10  H   UNL     1     -20.874  -8.300  -2.925  1.00  0.00     0.170 HD
ENDROOT
BRANCH   1  11
HETATM   11  C   UNL     1     -20.956  -7.620  -4.862  1.00  0.00     0.036 A 
HETATM   12  C   UNL     1     -19.889  -7.313  -5.696  1.00  0.00     0.030 A 
HETATM   13  C   UNL     1     -20.000  -6.321  -6.669  1.00  0.00     0.010 A 
HETATM   14  C   UNL     1     -21.176  -5.582  -6.833  1.00  0.00    -0.051 A 
HETATM   15  C   UNL     1     -22.252  -5.893  -5.982  1.00  0.00     0.010 A 
HETATM   16  C   UNL     1     -22.145  -6.899  -5.007  1.00  0.00     0.030 A 
BRANCH  14  17
HETATM   17  C   UNL     1     -21.285  -4.471  -7.888  1.00  0.00    -0.024 C 
HETATM   18  C   UNL     1     -22.592  -4.540  -8.714  1.00  0.00     0.019 C 
HETATM   19  C   UNL     1     -20.112  -4.588  -8.883  1.00  0.00     0.019 C 
HETATM   20  C   UNL     1     -21.248  -3.089  -7.206  1.00  0.00     0.019 C 
ENDBRANCH  14  17
ENDBRANCH   1  11
BRANCH   7  21
HETATM   21  C   UNL     1     -21.427 -13.250   0.393  1.00  0.00     0.125 A 
HETATM   22  N   UNL     1     -20.614 -14.275   0.760  1.00  0.00    -0.351 N 
HETATM   23  C   UNL     1     -20.982 -15.088   1.775  1.00  0.00     0.090 A 
ATOM     24  HN  UNL     1     -19.732 -14.431   0.272  1.00  0.00     0.166 HD
HETATM   25  C   UNL     1     -22.147 -14.934   2.494  1.00  0.00     0.019 A 
HETATM   26  C   UNL     1     -22.993 -13.898   2.133  1.00  0.00     0.029 A 
HETATM   27  C   UNL     1     -22.649 -13.058   1.068  1.00  0.00     0.077 A 
HETATM   28 CL   UNL     1     -23.871 -11.930   0.577  1.00  0.00    -0.080 Cl
ENDBRANCH   7  21
TORSDOF 3
ENDMDL
MODEL 6
REMARK VINA RESULT:      -7.3      2.831     10.140
REMARK  3 active torsions:
REMARK  status: ('A' for Active; 'I' for Inactive)
REMARK    1  A    between atoms: C_2  and  C_5 
REMARK    2  A    between atoms: C_8  and  N_9 
REMARK       I    between atoms: N_9  and  C_10 
REMARK       I    between atoms: C_10  and  N_12 
REMARK    3  A    between atoms: N_15  and  C_16 
ROOT
HETATM    1  N   UNL     1     -21.772  -8.655  -3.415  1.00  0.00    -0.309 N 
HETATM    2  C   UNL     1     -21.044  -9.009  -2.299  1.00  0.00     0.323 C 
HETATM    3  O   UNL     1     -19.931  -8.567  -2.026  1.00  0.00    -0.247 OA
HETATM    4  N   UNL     1     -21.636  -9.953  -1.472  1.00  0.00    -0.331 N 
HETATM    5  C   UNL     1     -22.961 -10.567  -1.685  1.00  0.00     0.147 C 
HETATM    6  C   UNL     1     -23.558 -11.149  -0.390  1.00  0.00     0.144 C 
HETATM    7  N   UNL     1     -22.564 -12.034   0.213  1.00  0.00    -0.363 N 
HETATM    8  C   UNL     1     -21.359 -11.313   0.640  1.00  0.00     0.144 C 
HETATM    9  C   UNL     1     -20.706 -10.708  -0.612  1.00  0.00     0.147 C 
HETATM   10  H   UNL     1     -22.597  -9.192  -3.618  1.00  0.00     0.170 HD
ENDROOT
BRANCH   1  11
HETATM   11  C   UNL     1     -21.398  -7.723  -4.409  1.00  0.00     0.036 A 
HETATM   12  C   UNL     1     -20.185  -7.775  -5.084  1.00  0.00     0.030 A 
HETATM   13  C   UNL     1     -19.870  -6.843  -6.071  1.00  0.00     0.010 A 
HETATM   14  C   UNL     1     -20.749  -5.808  -6.410  1.00  0.00    -0.051 A 
HETATM   15  C   UNL     1     -21.974  -5.757  -5.720  1.00  0.00     0.010 A 
HETATM   16  C   UNL     1     -22.296  -6.702  -4.731  1.00  0.00     0.030 A 
BRANCH  14  17
HETATM   17  C   UNL     1     -20.387  -4.767  -7.479  1.00  0.00    -0.024 C 
HETATM   18  C   UNL     1     -20.668  -5.252  -8.922  1.00  0.00     0.019 C 
HETATM   19  C   UNL     1     -18.882  -4.441  -7.393  1.00  0.00     0.019 C 
HETATM   20  C   UNL     1     -21.207  -3.480  -7.262  1.00  0.00     0.019 C 
ENDBRANCH  14  17
ENDBRANCH   1  11
BRANCH   7  21
HETATM   21  C   UNL     1     -22.846 -13.265   0.760  1.00  0.00     0.125 A 
HETATM   22  N   UNL     1     -22.312 -13.511   1.985  1.00  0.00    -0.351 N 
HETATM   23  C   UNL     1     -22.482 -14.724   2.556  1.00  0.00     0.090 A 
ATOM     24  HN  UNL     1     -21.786 -12.785   2.472  1.00  0.00     0.166 HD
HETATM   25  C   UNL     1     -23.192 -15.750   1.973  1.00  0.00     0.019 A 
HETATM   26  C   UNL     1     -23.741 -15.522   0.721  1.00  0.00     0.029 A 
HETATM   27  C   UNL     1     -23.557 -14.284   0.096  1.00  0.00     0.077 A 
HETATM   28 CL   UNL     1     -24.110 -14.182  -1.544  1.00  0.00    -0.080 Cl
ENDBRANCH   7  21
TORSDOF 3
ENDMDL
MODEL 7
REMARK VINA RESULT:      -7.3      4.571      5.130
REMARK  3 active torsions:
REMARK  status: ('A' for Active; 'I' for Inactive)
REMARK    1  A    between atoms: C_2  and  C_5 
REMARK    2  A    between atoms: C_8  and  N_9 
REMARK       I    between atoms: N_9  and  C_10 
REMARK       I    between atoms: C_10  and  N_12 
REMARK    3  A    between atoms: N_15  and  C_16 
ROOT
HETATM    1  N   UNL     1     -18.683  -8.616  -4.858  1.00  0.00    -0.309 N 
HETATM    2  C   UNL     1     -19.960  -8.160  -4.609  1.00  0.00     0.323 C 
HETATM    3  O   UNL     1     -20.708  -8.621  -3.750  1.00  0.00    -0.247 OA
HETATM    4  N   UNL     1     -20.398  -7.128  -5.426  1.00  0.00    -0.331 N 
HETATM    5  C   UNL     1     -19.607  -6.487  -6.495  1.00  0.00     0.147 C 
HETATM    6  C   UNL     1     -20.129  -5.085  -6.859  1.00  0.00     0.144 C 
HETATM    7  N   UNL     1     -21.559  -5.189  -7.136  1.00  0.00    -0.363 N 
HETATM    8  C   UNL     1     -22.332  -5.589  -5.953  1.00  0.00     0.144 C 
HETATM    9  C   UNL     1     -21.862  -6.990  -5.537  1.00  0.00     0.147 C 
HETATM   10  H   UNL     1     -18.222  -8.271  -5.681  1.00  0.00     0.170 HD
ENDROOT
BRANCH   1  11
HETATM   11  C   UNL     1     -18.005  -9.650  -4.174  1.00  0.00     0.036 A 
HETATM   12  C   UNL     1     -17.261  -9.439  -3.020  1.00  0.00     0.030 A 
HETATM   13  C   UNL     1     -16.625 -10.496  -2.372  1.00  0.00     0.010 A 
HETATM   14  C   UNL     1     -16.692 -11.805  -2.862  1.00  0.00    -0.051 A 
HETATM   15  C   UNL     1     -17.443 -12.012  -4.033  1.00  0.00     0.010 A 
HETATM   16  C   UNL     1     -18.091 -10.949  -4.683  1.00  0.00     0.030 A 
BRANCH  14  17
HETATM   17  C   UNL     1     -15.968 -12.963  -2.159  1.00  0.00    -0.024 C 
HETATM   18  C   UNL     1     -16.784 -14.278  -2.153  1.00  0.00     0.019 C 
HETATM   19  C   UNL     1     -15.702 -12.587  -0.687  1.00  0.00     0.019 C 
HETATM   20  C   UNL     1     -14.631 -13.258  -2.867  1.00  0.00     0.019 C 
ENDBRANCH  14  17
ENDBRANCH   1  11
BRANCH   7  21
HETATM   21  C   UNL     1     -22.199  -4.563  -8.181  1.00  0.00     0.125 A 
HETATM   22  N   UNL     1     -23.500  -4.231  -7.974  1.00  0.00    -0.351 N 
HETATM   23  C   UNL     1     -24.217  -3.680  -8.978  1.00  0.00     0.090 A 
ATOM     24  HN  UNL     1     -23.934  -4.397  -7.066  1.00  0.00     0.166 HD
HETATM   25  C   UNL     1     -23.700  -3.409 -10.226  1.00  0.00     0.019 A 
HETATM   26  C   UNL     1     -22.377  -3.744 -10.461  1.00  0.00     0.029 A 
HETATM   27  C   UNL     1     -21.620  -4.340  -9.447  1.00  0.00     0.077 A 
HETATM   28 CL   UNL     1     -20.046  -4.899  -9.915  1.00  0.00    -0.080 Cl
ENDBRANCH   7  21
TORSDOF 3
ENDMDL
MODEL 8
REMARK VINA RESULT:      -7.1      4.617      5.846
REMARK  3 active torsions:
REMARK  status: ('A' for Active; 'I' for Inactive)
REMARK    1  A    between atoms: C_2  and  C_5 
REMARK    2  A    between atoms: C_8  and  N_9 
REMARK       I    between atoms: N_9  and  C_10 
REMARK       I    between atoms: C_10  and  N_12 
REMARK    3  A    between atoms: N_15  and  C_16 
ROOT
HETATM    1  N   UNL     1     -17.740 -12.299  -0.152  1.00  0.00    -0.309 N 
HETATM    2  C   UNL     1     -17.138 -11.631  -1.197  1.00  0.00     0.323 C 
HETATM    3  O   UNL     1     -15.928 -11.610  -1.405  1.00  0.00    -0.247 OA
HETATM    4  N   UNL     1     -17.996 -10.924  -2.028  1.00  0.00    -0.331 N 
HETATM    5  C   UNL     1     -19.464 -10.860  -1.889  1.00  0.00     0.147 C 
HETATM    6  C   UNL     1     -20.166 -10.460  -3.200  1.00  0.00     0.144 C 
HETATM    7  N   UNL     1     -19.545  -9.234  -3.695  1.00  0.00    -0.363 N 
HETATM    8  C   UNL     1     -18.136  -9.427  -4.060  1.00  0.00     0.144 C 
HETATM    9  C   UNL     1     -17.372  -9.825  -2.788  1.00  0.00     0.147 C 
HETATM   10  H   UNL     1     -18.715 -12.121   0.011  1.00  0.00     0.170 HD
ENDROOT
BRANCH   1  11
HETATM   11  C   UNL     1     -17.097 -13.087   0.830  1.00  0.00     0.036 A 
HETATM   12  C   UNL     1     -16.052 -12.620   1.617  1.00  0.00     0.030 A 
HETATM   13  C   UNL     1     -15.464 -13.430   2.586  1.00  0.00     0.010 A 
HETATM   14  C   UNL     1     -15.884 -14.748   2.795  1.00  0.00    -0.051 A 
HETATM   15  C   UNL     1     -16.940 -15.218   1.992  1.00  0.00     0.010 A 
HETATM   16  C   UNL     1     -17.540 -14.399   1.021  1.00  0.00     0.030 A 
BRANCH  14  17
HETATM   17  C   UNL     1     -15.215 -15.646   3.845  1.00  0.00    -0.024 C 
HETATM   18  C   UNL     1     -14.925 -14.914   5.178  1.00  0.00     0.019 C 
HETATM   19  C   UNL     1     -13.864 -16.156   3.303  1.00  0.00     0.019 C 
HETATM   20  C   UNL     1     -16.126 -16.846   4.172  1.00  0.00     0.019 C 
ENDBRANCH  14  17
ENDBRANCH   1  11
BRANCH   7  21
HETATM   21  C   UNL     1     -20.237  -8.163  -4.213  1.00  0.00     0.125 A 
HETATM   22  N   UNL     1     -20.015  -7.886  -5.524  1.00  0.00    -0.351 N 
HETATM   23  C   UNL     1     -20.601  -6.805  -6.086  1.00  0.00     0.090 A 
ATOM     24  HN  UNL     1     -19.409  -8.488  -6.081  1.00  0.00     0.166 HD
HETATM   25  C   UNL     1     -21.444  -5.954  -5.407  1.00  0.00     0.019 A 
HETATM   26  C   UNL     1     -21.681  -6.216  -4.067  1.00  0.00     0.029 A 
HETATM   27  C   UNL     1     -21.065  -7.312  -3.454  1.00  0.00     0.077 A 
HETATM   28 CL   UNL     1     -21.271  -7.423  -1.736  1.00  0.00    -0.080 Cl
ENDBRANCH   7  21
TORSDOF 3
ENDMDL
MODEL 9
REMARK VINA RESULT:      -6.7      7.849      9.766
REMARK  3 active torsions:
REMARK  status: ('A' for Active; 'I' for Inactive)
REMARK    1  A    between atoms: C_2  and  C_5 
REMARK    2  A    between atoms: C_8  and  N_9 
REMARK       I    between atoms: N_9  and  C_10 
REMARK       I    between atoms: C_10  and  N_12 
REMARK    3  A    between atoms: N_15  and  C_16 
ROOT
HETATM    1  N   UNL     1     -14.380 -13.512   0.700  1.00  0.00    -0.309 N 
HETATM    2  C   UNL     1     -14.997 -13.705  -0.517  1.00  0.00     0.323 C 
HETATM    3  O   UNL     1     -14.533 -14.380  -1.433  1.00  0.00    -0.247 OA
HETATM    4  N   UNL     1     -16.209 -13.051  -0.684  1.00  0.00    -0.331 N 
HETATM    5  C   UNL     1     -16.875 -12.209   0.329  1.00  0.00     0.147 C 
HETATM    6  C   UNL     1     -18.386 -12.057   0.072  1.00  0.00     0.144 C 
HETATM    7  N   UNL     1     -18.572 -11.616  -1.308  1.00  0.00    -0.363 N 
HETATM    8  C   UNL     1     -18.119 -12.617  -2.282  1.00  0.00     0.144 C 
HETATM    9  C   UNL     1     -16.608 -12.814  -2.084  1.00  0.00     0.147 C 
HETATM   10  H   UNL     1     -14.773 -12.820   1.313  1.00  0.00     0.170 HD
ENDROOT
BRANCH   1  11
HETATM   11  C   UNL     1     -13.147 -14.061   1.121  1.00  0.00     0.036 A 
HETATM   12  C   UNL     1     -13.049 -15.223   1.876  1.00  0.00     0.030 A 
HETATM   13  C   UNL     1     -11.808 -15.734   2.250  1.00  0.00     0.010 A 
HETATM   14  C   UNL     1     -10.614 -15.093   1.900  1.00  0.00    -0.051 A 
HETATM   15  C   UNL     1     -10.719 -13.914   1.141  1.00  0.00     0.010 A 
HETATM   16  C   UNL     1     -11.969 -13.402   0.755  1.00  0.00     0.030 A 
BRANCH  14  17
HETATM   17  C   UNL     1      -9.249 -15.646   2.338  1.00  0.00    -0.024 C 
HETATM   18  C   UNL     1      -8.075 -15.121   1.477  1.00  0.00     0.019 C 
HETATM   19  C   UNL     1      -9.252 -17.183   2.216  1.00  0.00     0.019 C 
HETATM   20  C   UNL     1      -8.960 -15.244   3.798  1.00  0.00     0.019 C 
ENDBRANCH  14  17
ENDBRANCH   1  11
BRANCH   7  21
HETATM   21  C   UNL     1     -19.462 -10.643  -1.702  1.00  0.00     0.125 A 
HETATM   22  N   UNL     1     -20.753 -10.823  -1.320  1.00  0.00    -0.351 N 
HETATM   23  C   UNL     1     -21.699  -9.949  -1.731  1.00  0.00     0.090 A 
ATOM     24  HN  UNL     1     -21.008 -11.612  -0.727  1.00  0.00     0.166 HD
HETATM   25  C   UNL     1     -21.433  -8.850  -2.517  1.00  0.00     0.019 A 
HETATM   26  C   UNL     1     -20.124  -8.650  -2.923  1.00  0.00     0.029 A 
HETATM   27  C   UNL     1     -19.130  -9.555  -2.535  1.00  0.00     0.077 A 
HETATM   28 CL   UNL     1     -17.575  -9.320  -3.264  1.00  0.00    -0.080 Cl
ENDBRANCH   7  21
TORSDOF 3
ENDMDL
