MODEL 1
REMARK VINA RESULT:      -6.7      0.000      0.000
REMARK  16 active torsions:
REMARK  status: ('A' for Active; 'I' for Inactive)
REMARK    1  A    between atoms: C_2  and  C_3 
REMARK    2  A    between atoms: C_3  and  C_4 
REMARK    3  A    between atoms: C_4  and  C_5 
REMARK    4  A    between atoms: C_5  and  C_6 
REMARK    5  A    between atoms: C_6  and  C_7 
REMARK    6  A    between atoms: C_7  and  C_8 
REMARK    7  A    between atoms: C_8  and  O_10 
REMARK    8  A    between atoms: O_10  and  C_11 
REMARK    9  A    between atoms: C_18  and  O_19 
REMARK   10  A    between atoms: O_19  and  C_20 
REMARK   11  A    between atoms: C_20  and  C_22 
REMARK   12  A    between atoms: C_22  and  C_23 
REMARK   13  A    between atoms: C_23  and  C_24 
REMARK   14  A    between atoms: C_24  and  C_25 
REMARK   15  A    between atoms: C_25  and  C_26 
REMARK   16  A    between atoms: C_26  and  C_27 
ROOT
HETATM    1  C   UNL     1     -20.953  -8.680  -3.884  1.00  0.00     0.187 C 
HETATM    2  C   UNL     1     -20.558  -7.549  -2.946  1.00  0.00     0.203 C 
HETATM    3  O   UNL     1     -21.409  -6.424  -3.232  1.00  0.00    -0.378 OA
HETATM    4  C   UNL     1     -21.960  -6.577  -4.556  1.00  0.00     0.184 C 
HETATM    5  C   UNL     1     -21.500  -7.927  -5.091  1.00  0.00     0.184 C 
HETATM    6  O   UNL     1     -20.425  -7.675  -6.021  1.00  0.00    -0.378 OA
HETATM    7  C   UNL     1     -20.081  -6.278  -5.952  1.00  0.00     0.203 C 
HETATM    8  C   UNL     1     -21.336  -5.551  -5.496  1.00  0.00     0.187 C 
ENDROOT
BRANCH   1   9
HETATM    9  O   UNL     1     -21.974  -9.507  -3.288  1.00  0.00    -0.311 OA
BRANCH   9  10
HETATM   10  C   UNL     1     -21.884 -10.840  -3.603  1.00  0.00     0.259 C 
HETATM   11  O   UNL     1     -20.883 -11.391  -4.035  1.00  0.00    -0.265 OA
BRANCH  10  12
HETATM   12  C   UNL     1     -23.173 -11.561  -3.279  1.00  0.00     0.111 C 
BRANCH  12  13
HETATM   13  C   UNL     1     -22.964 -12.601  -2.181  1.00  0.00     0.010 C 
BRANCH  13  14
HETATM   14  C   UNL     1     -23.838 -12.345  -0.951  1.00  0.00     0.000 C 
BRANCH  14  15
HETATM   15  C   UNL     1     -23.110 -11.448   0.051  1.00  0.00     0.000 C 
BRANCH  15  16
HETATM   16  C   UNL     1     -23.549  -9.992  -0.082  1.00  0.00    -0.000 C 
BRANCH  16  17
HETATM   17  C   UNL     1     -22.421  -9.031   0.291  1.00  0.00    -0.005 C 
HETATM   18  C   UNL     1     -22.764  -7.603  -0.104  1.00  0.00     0.005 C 
ENDBRANCH  16  17
ENDBRANCH  15  16
ENDBRANCH  14  15
ENDBRANCH  13  14
ENDBRANCH  12  13
ENDBRANCH  10  12
ENDBRANCH   9  10
ENDBRANCH   1   9
BRANCH   8  19
HETATM   19  O   UNL     1     -22.196  -5.275  -6.620  1.00  0.00    -0.311 OA
BRANCH  19  20
HETATM   20  C   UNL     1     -21.723  -4.283  -7.439  1.00  0.00     0.259 C 
HETATM   21  O   UNL     1     -21.347  -3.184  -7.058  1.00  0.00    -0.265 OA
BRANCH  20  22
HETATM   22  C   UNL     1     -21.672  -4.731  -8.877  1.00  0.00     0.111 C 
BRANCH  22  23
HETATM   23  C   UNL     1     -20.382  -4.274  -9.557  1.00  0.00     0.010 C 
BRANCH  23  24
HETATM   24  C   UNL     1     -20.641  -3.579 -10.896  1.00  0.00     0.000 C 
BRANCH  24  25
HETATM   25  C   UNL     1     -21.870  -4.168 -11.590  1.00  0.00     0.000 C 
BRANCH  25  26
HETATM   26  C   UNL     1     -22.441  -3.199 -12.625  1.00  0.00    -0.000 C 
BRANCH  26  27
HETATM   27  C   UNL     1     -23.921  -2.916 -12.370  1.00  0.00    -0.005 C 
HETATM   28  C   UNL     1     -24.338  -3.375 -10.982  1.00  0.00     0.005 C 
ENDBRANCH  26  27
ENDBRANCH  25  26
ENDBRANCH  24  25
ENDBRANCH  23  24
ENDBRANCH  22  23
ENDBRANCH  20  22
ENDBRANCH  19  20
ENDBRANCH   8  19
TORSDOF 16
ENDMDL
MODEL 2
REMARK VINA RESULT:      -6.7     13.411     16.298
REMARK  16 active torsions:
REMARK  status: ('A' for Active; 'I' for Inactive)
REMARK    1  A    between atoms: C_2  and  C_3 
REMARK    2  A    between atoms: C_3  and  C_4 
REMARK    3  A    between atoms: C_4  and  C_5 
REMARK    4  A    between atoms: C_5  and  C_6 
REMARK    5  A    between atoms: C_6  and  C_7 
REMARK    6  A    between atoms: C_7  and  C_8 
REMARK    7  A    between atoms: C_8  and  O_10 
REMARK    8  A    between atoms: O_10  and  C_11 
REMARK    9  A    between atoms: C_18  and  O_19 
REMARK   10  A    between atoms: O_19  and  C_20 
REMARK   11  A    between atoms: C_20  and  C_22 
REMARK   12  A    between atoms: C_22  and  C_23 
REMARK   13  A    between atoms: C_23  and  C_24 
REMARK   14  A    between atoms: C_24  and  C_25 
REMARK   15  A    between atoms: C_25  and  C_26 
REMARK   16  A    between atoms: C_26  and  C_27 
ROOT
HETATM    1  C   UNL     1     -36.011  -0.180 -11.431  1.00  0.00     0.187 C 
HETATM    2  C   UNL     1     -37.394   0.106 -11.997  1.00  0.00     0.203 C 
HETATM    3  O   UNL     1     -37.501  -0.577 -13.260  1.00  0.00    -0.378 OA
HETATM    4  C   UNL     1     -36.176  -0.858 -13.755  1.00  0.00     0.184 C 
HETATM    5  C   UNL     1     -35.184  -0.409 -12.690  1.00  0.00     0.184 C 
HETATM    6  O   UNL     1     -34.627   0.849 -13.128  1.00  0.00    -0.378 OA
HETATM    7  C   UNL     1     -35.345   1.283 -14.298  1.00  0.00     0.203 C 
HETATM    8  C   UNL     1     -35.879   0.023 -14.963  1.00  0.00     0.187 C 
ENDROOT
BRANCH   1   9
HETATM    9  O   UNL     1     -36.029  -1.362 -10.606  1.00  0.00    -0.311 OA
BRANCH   9  10
HETATM   10  C   UNL     1     -34.821  -2.006 -10.504  1.00  0.00     0.259 C 
HETATM   11  O   UNL     1     -33.884  -1.631  -9.816  1.00  0.00    -0.265 OA
BRANCH  10  12
HETATM   12  C   UNL     1     -34.821  -3.289 -11.306  1.00  0.00     0.111 C 
BRANCH  12  13
HETATM   13  C   UNL     1     -33.420  -3.628 -11.807  1.00  0.00     0.010 C 
BRANCH  13  14
HETATM   14  C   UNL     1     -33.011  -5.068 -11.489  1.00  0.00     0.000 C 
BRANCH  14  15
HETATM   15  C   UNL     1     -33.925  -5.665 -10.419  1.00  0.00     0.000 C 
BRANCH  15  16
HETATM   16  C   UNL     1     -34.608  -6.938 -10.916  1.00  0.00    -0.000 C 
BRANCH  16  17
HETATM   17  C   UNL     1     -34.836  -7.931  -9.777  1.00  0.00    -0.005 C 
HETATM   18  C   UNL     1     -33.860  -9.094  -9.860  1.00  0.00     0.005 C 
ENDBRANCH  16  17
ENDBRANCH  15  16
ENDBRANCH  14  15
ENDBRANCH  13  14
ENDBRANCH  12  13
ENDBRANCH  10  12
ENDBRANCH   9  10
ENDBRANCH   1   9
BRANCH   8  19
HETATM   19  O   UNL     1     -34.871  -0.566 -15.810  1.00  0.00    -0.311 OA
BRANCH  19  20
HETATM   20  C   UNL     1     -35.370  -1.487 -16.693  1.00  0.00     0.259 C 
HETATM   21  O   UNL     1     -36.108  -1.226 -17.632  1.00  0.00    -0.265 OA
BRANCH  20  22
HETATM   22  C   UNL     1     -34.855  -2.872 -16.396  1.00  0.00     0.111 C 
BRANCH  22  23
HETATM   23  C   UNL     1     -33.522  -3.132 -17.096  1.00  0.00     0.010 C 
BRANCH  23  24
HETATM   24  C   UNL     1     -32.836  -4.405 -16.595  1.00  0.00     0.000 C 
BRANCH  24  25
HETATM   25  C   UNL     1     -31.412  -4.511 -17.143  1.00  0.00     0.000 C 
BRANCH  25  26
HETATM   26  C   UNL     1     -30.881  -5.940 -17.037  1.00  0.00    -0.000 C 
BRANCH  26  27
HETATM   27  C   UNL     1     -29.883  -6.251 -18.152  1.00  0.00    -0.005 C 
HETATM   28  C   UNL     1     -29.840  -7.742 -18.450  1.00  0.00     0.005 C 
ENDBRANCH  26  27
ENDBRANCH  25  26
ENDBRANCH  24  25
ENDBRANCH  23  24
ENDBRANCH  22  23
ENDBRANCH  20  22
ENDBRANCH  19  20
ENDBRANCH   8  19
TORSDOF 16
ENDMDL
MODEL 3
REMARK VINA RESULT:      -6.6      1.420     10.272
REMARK  16 active torsions:
REMARK  status: ('A' for Active; 'I' for Inactive)
REMARK    1  A    between atoms: C_2  and  C_3 
REMARK    2  A    between atoms: C_3  and  C_4 
REMARK    3  A    between atoms: C_4  and  C_5 
REMARK    4  A    between atoms: C_5  and  C_6 
REMARK    5  A    between atoms: C_6  and  C_7 
REMARK    6  A    between atoms: C_7  and  C_8 
REMARK    7  A    between atoms: C_8  and  O_10 
REMARK    8  A    between atoms: O_10  and  C_11 
REMARK    9  A    between atoms: C_18  and  O_19 
REMARK   10  A    between atoms: O_19  and  C_20 
REMARK   11  A    between atoms: C_20  and  C_22 
REMARK   12  A    between atoms: C_22  and  C_23 
REMARK   13  A    between atoms: C_23  and  C_24 
REMARK   14  A    between atoms: C_24  and  C_25 
REMARK   15  A    between atoms: C_25  and  C_26 
REMARK   16  A    between atoms: C_26  and  C_27 
ROOT
HETATM    1  C   UNL     1     -20.841  -6.129  -6.239  1.00  0.00     0.187 C 
HETATM    2  C   UNL     1     -22.294  -6.060  -5.792  1.00  0.00     0.203 C 
HETATM    3  O   UNL     1     -22.325  -6.262  -4.367  1.00  0.00    -0.378 OA
HETATM    4  C   UNL     1     -21.106  -6.918  -3.959  1.00  0.00     0.184 C 
HETATM    5  C   UNL     1     -20.221  -7.046  -5.191  1.00  0.00     0.184 C 
HETATM    6  O   UNL     1     -20.312  -8.414  -5.643  1.00  0.00    -0.378 OA
HETATM    7  C   UNL     1     -21.333  -9.080  -4.876  1.00  0.00     0.203 C 
HETATM    8  C   UNL     1     -21.408  -8.353  -3.543  1.00  0.00     0.187 C 
ENDROOT
BRANCH   1   9
HETATM    9  O   UNL     1     -20.232  -4.823  -6.204  1.00  0.00    -0.311 OA
BRANCH   9  10
HETATM   10  C   UNL     1     -20.570  -4.007  -7.255  1.00  0.00     0.259 C 
HETATM   11  O   UNL     1     -21.414  -3.125  -7.213  1.00  0.00    -0.265 OA
BRANCH  10  12
HETATM   12  C   UNL     1     -19.707  -4.295  -8.463  1.00  0.00     0.111 C 
BRANCH  12  13
HETATM   13  C   UNL     1     -20.559  -4.632  -9.684  1.00  0.00     0.010 C 
BRANCH  13  14
HETATM   14  C   UNL     1     -20.483  -3.560 -10.773  1.00  0.00     0.000 C 
BRANCH  14  15
HETATM   15  C   UNL     1     -21.573  -3.778 -11.823  1.00  0.00     0.000 C 
BRANCH  15  16
HETATM   16  C   UNL     1     -22.960  -3.477 -11.257  1.00  0.00    -0.000 C 
BRANCH  16  17
HETATM   17  C   UNL     1     -23.876  -2.867 -12.317  1.00  0.00    -0.005 C 
HETATM   18  C   UNL     1     -23.187  -2.811 -13.671  1.00  0.00     0.005 C 
ENDBRANCH  16  17
ENDBRANCH  15  16
ENDBRANCH  14  15
ENDBRANCH  13  14
ENDBRANCH  12  13
ENDBRANCH  10  12
ENDBRANCH   9  10
ENDBRANCH   1   9
BRANCH   8  19
HETATM   19  O   UNL     1     -20.407  -8.859  -2.635  1.00  0.00    -0.311 OA
BRANCH  19  20
HETATM   20  C   UNL     1     -20.903  -9.743  -1.714  1.00  0.00     0.259 C 
HETATM   21  O   UNL     1     -20.230 -10.545  -1.082  1.00  0.00    -0.265 OA
BRANCH  20  22
HETATM   22  C   UNL     1     -22.390  -9.576  -1.532  1.00  0.00     0.111 C 
BRANCH  22  23
HETATM   23  C   UNL     1     -22.795  -9.751  -0.069  1.00  0.00     0.010 C 
BRANCH  23  24
HETATM   24  C   UNL     1     -24.019 -10.655   0.096  1.00  0.00     0.000 C 
BRANCH  24  25
HETATM   25  C   UNL     1     -24.038 -11.750  -0.973  1.00  0.00     0.000 C 
BRANCH  25  26
HETATM   26  C   UNL     1     -23.507 -13.073  -0.422  1.00  0.00    -0.000 C 
BRANCH  26  27
HETATM   27  C   UNL     1     -23.486 -13.074   1.106  1.00  0.00    -0.005 C 
HETATM   28  C   UNL     1     -22.151 -13.573   1.637  1.00  0.00     0.005 C 
ENDBRANCH  26  27
ENDBRANCH  25  26
ENDBRANCH  24  25
ENDBRANCH  23  24
ENDBRANCH  22  23
ENDBRANCH  20  22
ENDBRANCH  19  20
ENDBRANCH   8  19
TORSDOF 16
ENDMDL
MODEL 4
REMARK VINA RESULT:      -6.6      1.483      2.621
REMARK  16 active torsions:
REMARK  status: ('A' for Active; 'I' for Inactive)
REMARK    1  A    between atoms: C_2  and  C_3 
REMARK    2  A    between atoms: C_3  and  C_4 
REMARK    3  A    between atoms: C_4  and  C_5 
REMARK    4  A    between atoms: C_5  and  C_6 
REMARK    5  A    between atoms: C_6  and  C_7 
REMARK    6  A    between atoms: C_7  and  C_8 
REMARK    7  A    between atoms: C_8  and  O_10 
REMARK    8  A    between atoms: O_10  and  C_11 
REMARK    9  A    between atoms: C_18  and  O_19 
REMARK   10  A    between atoms: O_19  and  C_20 
REMARK   11  A    between atoms: C_20  and  C_22 
REMARK   12  A    between atoms: C_22  and  C_23 
REMARK   13  A    between atoms: C_23  and  C_24 
REMARK   14  A    between atoms: C_24  and  C_25 
REMARK   15  A    between atoms: C_25  and  C_26 
REMARK   16  A    between atoms: C_26  and  C_27 
ROOT
HETATM    1  C   UNL     1     -21.293  -8.282  -3.501  1.00  0.00     0.187 C 
HETATM    2  C   UNL     1     -21.353  -9.063  -4.805  1.00  0.00     0.203 C 
HETATM    3  O   UNL     1     -20.541  -8.369  -5.770  1.00  0.00    -0.378 OA
HETATM    4  C   UNL     1     -20.373  -7.000  -5.345  1.00  0.00     0.184 C 
HETATM    5  C   UNL     1     -21.041  -6.858  -3.984  1.00  0.00     0.184 C 
HETATM    6  O   UNL     1     -22.307  -6.198  -4.195  1.00  0.00    -0.378 OA
HETATM    7  C   UNL     1     -22.534  -6.091  -5.613  1.00  0.00     0.203 C 
HETATM    8  C   UNL     1     -21.160  -6.075  -6.265  1.00  0.00     0.187 C 
ENDROOT
BRANCH   1   9
HETATM    9  O   UNL     1     -20.204  -8.745  -2.677  1.00  0.00    -0.311 OA
BRANCH   9  10
HETATM   10  C   UNL     1     -20.538  -8.977  -1.365  1.00  0.00     0.259 C 
HETATM   11  O   UNL     1     -20.868  -8.115  -0.565  1.00  0.00    -0.265 OA
BRANCH  10  12
HETATM   12  C   UNL     1     -20.515 -10.456  -1.053  1.00  0.00     0.111 C 
BRANCH  12  13
HETATM   13  C   UNL     1     -20.919 -10.723   0.394  1.00  0.00     0.010 C 
BRANCH  13  14
HETATM   14  C   UNL     1     -22.227 -11.508   0.508  1.00  0.00     0.000 C 
BRANCH  14  15
HETATM   15  C   UNL     1     -23.369 -10.756  -0.177  1.00  0.00     0.000 C 
BRANCH  15  16
HETATM   16  C   UNL     1     -24.123 -11.656  -1.153  1.00  0.00    -0.000 C 
BRANCH  16  17
HETATM   17  C   UNL     1     -23.523 -13.061  -1.196  1.00  0.00    -0.005 C 
HETATM   18  C   UNL     1     -22.946 -13.370  -2.567  1.00  0.00     0.005 C 
ENDBRANCH  16  17
ENDBRANCH  15  16
ENDBRANCH  14  15
ENDBRANCH  13  14
ENDBRANCH  12  13
ENDBRANCH  10  12
ENDBRANCH   9  10
ENDBRANCH   1   9
BRANCH   8  19
HETATM   19  O   UNL     1     -20.615  -4.739  -6.260  1.00  0.00    -0.311 OA
BRANCH  19  20
HETATM   20  C   UNL     1     -19.932  -4.423  -7.405  1.00  0.00     0.259 C 
HETATM   21  O   UNL     1     -18.719  -4.297  -7.482  1.00  0.00    -0.265 OA
BRANCH  20  22
HETATM   22  C   UNL     1     -20.861  -4.299  -8.585  1.00  0.00     0.111 C 
BRANCH  22  23
HETATM   23  C   UNL     1     -20.137  -4.602  -9.897  1.00  0.00     0.010 C 
BRANCH  23  24
HETATM   24  C   UNL     1     -20.577  -3.678 -11.035  1.00  0.00     0.000 C 
BRANCH  24  25
HETATM   25  C   UNL     1     -21.904  -4.144 -11.637  1.00  0.00     0.000 C 
BRANCH  25  26
HETATM   26  C   UNL     1     -22.831  -2.963 -11.919  1.00  0.00    -0.000 C 
BRANCH  26  27
HETATM   27  C   UNL     1     -24.257  -3.244 -11.445  1.00  0.00    -0.005 C 
HETATM   28  C   UNL     1     -24.308  -3.427  -9.937  1.00  0.00     0.005 C 
ENDBRANCH  26  27
ENDBRANCH  25  26
ENDBRANCH  24  25
ENDBRANCH  23  24
ENDBRANCH  22  23
ENDBRANCH  20  22
ENDBRANCH  19  20
ENDBRANCH   8  19
TORSDOF 16
ENDMDL
MODEL 5
REMARK VINA RESULT:      -6.6      1.351      9.504
REMARK  16 active torsions:
REMARK  status: ('A' for Active; 'I' for Inactive)
REMARK    1  A    between atoms: C_2  and  C_3 
REMARK    2  A    between atoms: C_3  and  C_4 
REMARK    3  A    between atoms: C_4  and  C_5 
REMARK    4  A    between atoms: C_5  and  C_6 
REMARK    5  A    between atoms: C_6  and  C_7 
REMARK    6  A    between atoms: C_7  and  C_8 
REMARK    7  A    between atoms: C_8  and  O_10 
REMARK    8  A    between atoms: O_10  and  C_11 
REMARK    9  A    between atoms: C_18  and  O_19 
REMARK   10  A    between atoms: O_19  and  C_20 
REMARK   11  A    between atoms: C_20  and  C_22 
REMARK   12  A    between atoms: C_22  and  C_23 
REMARK   13  A    between atoms: C_23  and  C_24 
REMARK   14  A    between atoms: C_24  and  C_25 
REMARK   15  A    between atoms: C_25  and  C_26 
REMARK   16  A    between atoms: C_26  and  C_27 
ROOT
HETATM    1  C   UNL     1     -20.237  -8.002  -5.014  1.00  0.00     0.187 C 
HETATM    2  C   UNL     1     -19.201  -9.011  -5.488  1.00  0.00     0.203 C 
HETATM    3  O   UNL     1     -19.877 -10.262  -5.712  1.00  0.00    -0.378 OA
HETATM    4  C   UNL     1     -21.119 -10.263  -4.978  1.00  0.00     0.184 C 
HETATM    5  C   UNL     1     -21.271  -8.891  -4.333  1.00  0.00     0.184 C 
HETATM    6  O   UNL     1     -20.929  -9.034  -2.938  1.00  0.00    -0.378 OA
HETATM    7  C   UNL     1     -20.407 -10.360  -2.730  1.00  0.00     0.203 C 
HETATM    8  C   UNL     1     -21.025 -11.236  -3.808  1.00  0.00     0.187 C 
ENDROOT
BRANCH   1   9
HETATM    9  O   UNL     1     -20.819  -7.302  -6.133  1.00  0.00    -0.311 OA
BRANCH   9  10
HETATM   10  C   UNL     1     -21.319  -6.059  -5.830  1.00  0.00     0.259 C 
HETATM   11  O   UNL     1     -22.459  -5.837  -5.454  1.00  0.00    -0.265 OA
BRANCH  10  12
HETATM   12  C   UNL     1     -20.248  -4.999  -5.957  1.00  0.00     0.111 C 
BRANCH  12  13
HETATM   13  C   UNL     1     -20.618  -3.963  -7.015  1.00  0.00     0.010 C 
BRANCH  13  14
HETATM   14  C   UNL     1     -20.404  -4.472  -8.442  1.00  0.00     0.000 C 
BRANCH  14  15
HETATM   15  C   UNL     1     -21.575  -4.071  -9.339  1.00  0.00     0.000 C 
BRANCH  15  16
HETATM   16  C   UNL     1     -21.224  -4.227 -10.817  1.00  0.00    -0.000 C 
BRANCH  16  17
HETATM   17  C   UNL     1     -21.667  -3.010 -11.629  1.00  0.00    -0.005 C 
HETATM   18  C   UNL     1     -23.177  -2.981 -11.792  1.00  0.00     0.005 C 
ENDBRANCH  16  17
ENDBRANCH  15  16
ENDBRANCH  14  15
ENDBRANCH  13  14
ENDBRANCH  12  13
ENDBRANCH  10  12
ENDBRANCH   9  10
ENDBRANCH   1   9
BRANCH   8  19
HETATM   19  O   UNL     1     -22.330 -11.695  -3.399  1.00  0.00    -0.311 OA
BRANCH  19  20
HETATM   20  C   UNL     1     -22.293 -12.824  -2.624  1.00  0.00     0.259 C 
HETATM   21  O   UNL     1     -21.803 -13.891  -2.967  1.00  0.00    -0.265 OA
BRANCH  20  22
HETATM   22  C   UNL     1     -22.890 -12.580  -1.262  1.00  0.00     0.111 C 
BRANCH  22  23
HETATM   23  C   UNL     1     -23.926 -11.457  -1.302  1.00  0.00     0.010 C 
BRANCH  23  24
HETATM   24  C   UNL     1     -23.721 -10.431  -0.185  1.00  0.00     0.000 C 
BRANCH  24  25
HETATM   25  C   UNL     1     -22.271 -10.433   0.300  1.00  0.00     0.000 C 
BRANCH  25  26
HETATM   26  C   UNL     1     -21.746  -9.010   0.485  1.00  0.00    -0.000 C 
BRANCH  26  27
HETATM   27  C   UNL     1     -22.840  -7.972   0.235  1.00  0.00    -0.005 C 
HETATM   28  C   UNL     1     -22.390  -6.933  -0.780  1.00  0.00     0.005 C 
ENDBRANCH  26  27
ENDBRANCH  25  26
ENDBRANCH  24  25
ENDBRANCH  23  24
ENDBRANCH  22  23
ENDBRANCH  20  22
ENDBRANCH  19  20
ENDBRANCH   8  19
TORSDOF 16
ENDMDL
MODEL 6
REMARK VINA RESULT:      -6.6      0.696      9.844
REMARK  16 active torsions:
REMARK  status: ('A' for Active; 'I' for Inactive)
REMARK    1  A    between atoms: C_2  and  C_3 
REMARK    2  A    between atoms: C_3  and  C_4 
REMARK    3  A    between atoms: C_4  and  C_5 
REMARK    4  A    between atoms: C_5  and  C_6 
REMARK    5  A    between atoms: C_6  and  C_7 
REMARK    6  A    between atoms: C_7  and  C_8 
REMARK    7  A    between atoms: C_8  and  O_10 
REMARK    8  A    between atoms: O_10  and  C_11 
REMARK    9  A    between atoms: C_18  and  O_19 
REMARK   10  A    between atoms: O_19  and  C_20 
REMARK   11  A    between atoms: C_20  and  C_22 
REMARK   12  A    between atoms: C_22  and  C_23 
REMARK   13  A    between atoms: C_23  and  C_24 
REMARK   14  A    between atoms: C_24  and  C_25 
REMARK   15  A    between atoms: C_25  and  C_26 
REMARK   16  A    between atoms: C_26  and  C_27 
ROOT
HETATM    1  C   UNL     1     -21.448  -5.689  -5.363  1.00  0.00     0.187 C 
HETATM    2  C   UNL     1     -20.120  -6.242  -5.860  1.00  0.00     0.203 C 
HETATM    3  O   UNL     1     -20.270  -7.664  -6.023  1.00  0.00    -0.378 OA
HETATM    4  C   UNL     1     -21.390  -8.112  -5.232  1.00  0.00     0.184 C 
HETATM    5  C   UNL     1     -22.037  -6.879  -4.614  1.00  0.00     0.184 C 
HETATM    6  O   UNL     1     -21.621  -6.824  -3.233  1.00  0.00    -0.378 OA
HETATM    7  C   UNL     1     -20.622  -7.838  -3.018  1.00  0.00     0.203 C 
HETATM    8  C   UNL     1     -20.890  -8.927  -4.045  1.00  0.00     0.187 C 
ENDROOT
BRANCH   1   9
HETATM    9  O   UNL     1     -22.292  -5.310  -6.470  1.00  0.00    -0.311 OA
BRANCH   9  10
HETATM   10  C   UNL     1     -21.748  -4.366  -7.305  1.00  0.00     0.259 C 
HETATM   11  O   UNL     1     -21.381  -3.254  -6.959  1.00  0.00    -0.265 OA
BRANCH  10  12
HETATM   12  C   UNL     1     -21.594  -4.909  -8.709  1.00  0.00     0.111 C 
BRANCH  12  13
HETATM   13  C   UNL     1     -20.240  -4.531  -9.303  1.00  0.00     0.010 C 
BRANCH  13  14
HETATM   14  C   UNL     1     -20.294  -4.329 -10.818  1.00  0.00     0.000 C 
BRANCH  14  15
HETATM   15  C   UNL     1     -21.743  -4.283 -11.305  1.00  0.00     0.000 C 
BRANCH  15  16
HETATM   16  C   UNL     1     -22.136  -2.877 -11.752  1.00  0.00    -0.000 C 
BRANCH  16  17
HETATM   17  C   UNL     1     -22.918  -2.906 -13.065  1.00  0.00    -0.005 C 
HETATM   18  C   UNL     1     -24.416  -2.857 -12.811  1.00  0.00     0.005 C 
ENDBRANCH  16  17
ENDBRANCH  15  16
ENDBRANCH  14  15
ENDBRANCH  13  14
ENDBRANCH  12  13
ENDBRANCH  10  12
ENDBRANCH   9  10
ENDBRANCH   1   9
BRANCH   8  19
HETATM   19  O   UNL     1     -21.904  -9.834  -3.565  1.00  0.00    -0.311 OA
BRANCH  19  20
HETATM   20  C   UNL     1     -21.624 -11.151  -3.822  1.00  0.00     0.259 C 
HETATM   21  O   UNL     1     -20.800 -11.544  -4.635  1.00  0.00    -0.265 OA
BRANCH  20  22
HETATM   22  C   UNL     1     -22.426 -12.069  -2.937  1.00  0.00     0.111 C 
BRANCH  22  23
HETATM   23  C   UNL     1     -23.591 -11.331  -2.279  1.00  0.00     0.010 C 
BRANCH  23  24
HETATM   24  C   UNL     1     -24.017 -11.970  -0.956  1.00  0.00     0.000 C 
BRANCH  24  25
HETATM   25  C   UNL     1     -23.479 -11.174   0.235  1.00  0.00     0.000 C 
BRANCH  25  26
HETATM   26  C   UNL     1     -23.271  -9.705  -0.128  1.00  0.00    -0.000 C 
BRANCH  26  27
HETATM   27  C   UNL     1     -21.896  -9.207   0.318  1.00  0.00    -0.005 C 
HETATM   28  C   UNL     1     -20.900 -10.352   0.408  1.00  0.00     0.005 C 
ENDBRANCH  26  27
ENDBRANCH  25  26
ENDBRANCH  24  25
ENDBRANCH  23  24
ENDBRANCH  22  23
ENDBRANCH  20  22
ENDBRANCH  19  20
ENDBRANCH   8  19
TORSDOF 16
ENDMDL
MODEL 7
REMARK VINA RESULT:      -6.5      1.754      9.952
REMARK  16 active torsions:
REMARK  status: ('A' for Active; 'I' for Inactive)
REMARK    1  A    between atoms: C_2  and  C_3 
REMARK    2  A    between atoms: C_3  and  C_4 
REMARK    3  A    between atoms: C_4  and  C_5 
REMARK    4  A    between atoms: C_5  and  C_6 
REMARK    5  A    between atoms: C_6  and  C_7 
REMARK    6  A    between atoms: C_7  and  C_8 
REMARK    7  A    between atoms: C_8  and  O_10 
REMARK    8  A    between atoms: O_10  and  C_11 
REMARK    9  A    between atoms: C_18  and  O_19 
REMARK   10  A    between atoms: O_19  and  C_20 
REMARK   11  A    between atoms: C_20  and  C_22 
REMARK   12  A    between atoms: C_22  and  C_23 
REMARK   13  A    between atoms: C_23  and  C_24 
REMARK   14  A    between atoms: C_24  and  C_25 
REMARK   15  A    between atoms: C_25  and  C_26 
REMARK   16  A    between atoms: C_26  and  C_27 
ROOT
HETATM    1  C   UNL     1     -20.446  -8.554  -5.270  1.00  0.00     0.187 C 
HETATM    2  C   UNL     1     -21.058  -9.943  -5.170  1.00  0.00     0.203 C 
HETATM    3  O   UNL     1     -21.960  -9.945  -4.048  1.00  0.00    -0.378 OA
HETATM    4  C   UNL     1     -21.612  -8.860  -3.164  1.00  0.00     0.184 C 
HETATM    5  C   UNL     1     -20.486  -8.075  -3.823  1.00  0.00     0.184 C 
HETATM    6  O   UNL     1     -19.258  -8.451  -3.163  1.00  0.00    -0.378 OA
HETATM    7  C   UNL     1     -19.539  -9.545  -2.269  1.00  0.00     0.203 C 
HETATM    8  C   UNL     1     -21.003  -9.414  -1.881  1.00  0.00     0.187 C 
ENDROOT
BRANCH   1   9
HETATM    9  O   UNL     1     -21.243  -7.701  -6.116  1.00  0.00    -0.311 OA
BRANCH   9  10
HETATM   10  C   UNL     1     -20.622  -6.540  -6.504  1.00  0.00     0.259 C 
HETATM   11  O   UNL     1     -19.518  -6.476  -7.020  1.00  0.00    -0.265 OA
BRANCH  10  12
HETATM   12  C   UNL     1     -21.518  -5.343  -6.272  1.00  0.00     0.111 C 
BRANCH  12  13
HETATM   13  C   UNL     1     -21.020  -4.122  -7.040  1.00  0.00     0.010 C 
BRANCH  13  14
HETATM   14  C   UNL     1     -21.527  -4.084  -8.484  1.00  0.00     0.000 C 
BRANCH  14  15
HETATM   15  C   UNL     1     -20.356  -4.062  -9.466  1.00  0.00     0.000 C 
BRANCH  15  16
HETATM   16  C   UNL     1     -20.825  -4.314 -10.898  1.00  0.00    -0.000 C 
BRANCH  16  17
HETATM   17  C   UNL     1     -22.305  -3.975 -11.070  1.00  0.00    -0.005 C 
HETATM   18  C   UNL     1     -22.493  -2.805 -12.022  1.00  0.00     0.005 C 
ENDBRANCH  16  17
ENDBRANCH  15  16
ENDBRANCH  14  15
ENDBRANCH  13  14
ENDBRANCH  12  13
ENDBRANCH  10  12
ENDBRANCH   9  10
ENDBRANCH   1   9
BRANCH   8  19
HETATM   19  O   UNL     1     -21.154  -8.490  -0.784  1.00  0.00    -0.311 OA
BRANCH  19  20
HETATM   20  C   UNL     1     -22.277  -8.714  -0.032  1.00  0.00     0.259 C 
HETATM   21  O   UNL     1     -23.051  -7.845   0.343  1.00  0.00    -0.265 OA
BRANCH  20  22
HETATM   22  C   UNL     1     -22.476 -10.183   0.240  1.00  0.00     0.111 C 
BRANCH  22  23
HETATM   23  C   UNL     1     -23.905 -10.619  -0.083  1.00  0.00     0.010 C 
BRANCH  23  24
HETATM   24  C   UNL     1     -23.974 -11.537  -1.305  1.00  0.00     0.000 C 
BRANCH  24  25
HETATM   25  C   UNL     1     -23.227 -12.847  -1.050  1.00  0.00     0.000 C 
BRANCH  25  26
HETATM   26  C   UNL     1     -23.839 -13.617   0.119  1.00  0.00    -0.000 C 
BRANCH  26  27
HETATM   27  C   UNL     1     -22.847 -13.768   1.271  1.00  0.00    -0.005 C 
HETATM   28  C   UNL     1     -23.545 -14.226   2.542  1.00  0.00     0.005 C 
ENDBRANCH  26  27
ENDBRANCH  25  26
ENDBRANCH  24  25
ENDBRANCH  23  24
ENDBRANCH  22  23
ENDBRANCH  20  22
ENDBRANCH  19  20
ENDBRANCH   8  19
TORSDOF 16
ENDMDL
MODEL 8
REMARK VINA RESULT:      -6.4      1.779      9.597
REMARK  16 active torsions:
REMARK  status: ('A' for Active; 'I' for Inactive)
REMARK    1  A    between atoms: C_2  and  C_3 
REMARK    2  A    between atoms: C_3  and  C_4 
REMARK    3  A    between atoms: C_4  and  C_5 
REMARK    4  A    between atoms: C_5  and  C_6 
REMARK    5  A    between atoms: C_6  and  C_7 
REMARK    6  A    between atoms: C_7  and  C_8 
REMARK    7  A    between atoms: C_8  and  O_10 
REMARK    8  A    between atoms: O_10  and  C_11 
REMARK    9  A    between atoms: C_18  and  O_19 
REMARK   10  A    between atoms: O_19  and  C_20 
REMARK   11  A    between atoms: C_20  and  C_22 
REMARK   12  A    between atoms: C_22  and  C_23 
REMARK   13  A    between atoms: C_23  and  C_24 
REMARK   14  A    between atoms: C_24  and  C_25 
REMARK   15  A    between atoms: C_25  and  C_26 
REMARK   16  A    between atoms: C_26  and  C_27 
ROOT
HETATM    1  C   UNL     1     -20.377  -7.995  -4.437  1.00  0.00     0.187 C 
HETATM    2  C   UNL     1     -21.265  -9.099  -4.992  1.00  0.00     0.203 C 
HETATM    3  O   UNL     1     -21.739  -9.881  -3.880  1.00  0.00    -0.378 OA
HETATM    4  C   UNL     1     -20.864  -9.673  -2.753  1.00  0.00     0.184 C 
HETATM    5  C   UNL     1     -19.837  -8.623  -3.157  1.00  0.00     0.184 C 
HETATM    6  O   UNL     1     -18.607  -9.318  -3.451  1.00  0.00    -0.378 OA
HETATM    7  C   UNL     1     -18.867 -10.735  -3.426  1.00  0.00     0.203 C 
HETATM    8  C   UNL     1     -20.050 -10.935  -2.492  1.00  0.00     0.187 C 
ENDROOT
BRANCH   1   9
HETATM    9  O   UNL     1     -21.150  -6.814  -4.144  1.00  0.00    -0.311 OA
BRANCH   9  10
HETATM   10  C   UNL     1     -21.780  -6.260  -5.231  1.00  0.00     0.259 C 
HETATM   11  O   UNL     1     -22.967  -5.978  -5.282  1.00  0.00    -0.265 OA
BRANCH  10  12
HETATM   12  C   UNL     1     -20.794  -5.977  -6.343  1.00  0.00     0.111 C 
BRANCH  12  13
HETATM   13  C   UNL     1     -20.436  -4.494  -6.400  1.00  0.00     0.010 C 
BRANCH  13  14
HETATM   14  C   UNL     1     -21.384  -3.691  -7.294  1.00  0.00     0.000 C 
BRANCH  14  15
HETATM   15  C   UNL     1     -21.543  -4.368  -8.655  1.00  0.00     0.000 C 
BRANCH  15  16
HETATM   16  C   UNL     1     -20.269  -4.251  -9.489  1.00  0.00    -0.000 C 
BRANCH  16  17
HETATM   17  C   UNL     1     -20.572  -3.785 -10.913  1.00  0.00    -0.005 C 
HETATM   18  C   UNL     1     -21.872  -4.388 -11.421  1.00  0.00     0.005 C 
ENDBRANCH  16  17
ENDBRANCH  15  16
ENDBRANCH  14  15
ENDBRANCH  13  14
ENDBRANCH  12  13
ENDBRANCH  10  12
ENDBRANCH   9  10
ENDBRANCH   1   9
BRANCH   8  19
HETATM   19  O   UNL     1     -19.605 -11.002  -1.122  1.00  0.00    -0.311 OA
BRANCH  19  20
HETATM   20  C   UNL     1     -19.901 -12.190  -0.508  1.00  0.00     0.259 C 
HETATM   21  O   UNL     1     -19.316 -13.245  -0.708  1.00  0.00    -0.265 OA
BRANCH  20  22
HETATM   22  C   UNL     1     -21.016 -12.032   0.493  1.00  0.00     0.111 C 
BRANCH  22  23
HETATM   23  C   UNL     1     -22.322 -12.630  -0.029  1.00  0.00     0.010 C 
BRANCH  23  24
HETATM   24  C   UNL     1     -23.540 -11.774   0.323  1.00  0.00     0.000 C 
BRANCH  24  25
HETATM   25  C   UNL     1     -23.566 -10.490  -0.508  1.00  0.00     0.000 C 
BRANCH  25  26
HETATM   26  C   UNL     1     -23.690  -9.254   0.382  1.00  0.00    -0.000 C 
BRANCH  26  27
HETATM   27  C   UNL     1     -22.565  -8.255   0.114  1.00  0.00    -0.005 C 
HETATM   28  C   UNL     1     -21.428  -8.428   1.107  1.00  0.00     0.005 C 
ENDBRANCH  26  27
ENDBRANCH  25  26
ENDBRANCH  24  25
ENDBRANCH  23  24
ENDBRANCH  22  23
ENDBRANCH  20  22
ENDBRANCH  19  20
ENDBRANCH   8  19
TORSDOF 16
ENDMDL
MODEL 9
REMARK VINA RESULT:      -6.4      1.630      2.928
REMARK  16 active torsions:
REMARK  status: ('A' for Active; 'I' for Inactive)
REMARK    1  A    between atoms: C_2  and  C_3 
REMARK    2  A    between atoms: C_3  and  C_4 
REMARK    3  A    between atoms: C_4  and  C_5 
REMARK    4  A    between atoms: C_5  and  C_6 
REMARK    5  A    between atoms: C_6  and  C_7 
REMARK    6  A    between atoms: C_7  and  C_8 
REMARK    7  A    between atoms: C_8  and  O_10 
REMARK    8  A    between atoms: O_10  and  C_11 
REMARK    9  A    between atoms: C_18  and  O_19 
REMARK   10  A    between atoms: O_19  and  C_20 
REMARK   11  A    between atoms: C_20  and  C_22 
REMARK   12  A    between atoms: C_22  and  C_23 
REMARK   13  A    between atoms: C_23  and  C_24 
REMARK   14  A    between atoms: C_24  and  C_25 
REMARK   15  A    between atoms: C_25  and  C_26 
REMARK   16  A    between atoms: C_26  and  C_27 
ROOT
HETATM    1  C   UNL     1     -20.111 -11.369  -3.249  1.00  0.00     0.187 C 
HETATM    2  C   UNL     1     -19.372 -10.369  -2.372  1.00  0.00     0.203 C 
HETATM    3  O   UNL     1     -20.014  -9.090  -2.528  1.00  0.00    -0.378 OA
HETATM    4  C   UNL     1     -20.763  -9.088  -3.761  1.00  0.00     0.184 C 
HETATM    5  C   UNL     1     -20.660 -10.484  -4.362  1.00  0.00     0.184 C 
HETATM    6  O   UNL     1     -19.697 -10.418  -5.435  1.00  0.00    -0.378 OA
HETATM    7  C   UNL     1     -19.076  -9.119  -5.410  1.00  0.00     0.203 C 
HETATM    8  C   UNL     1     -20.085  -8.175  -4.775  1.00  0.00     0.187 C 
ENDROOT
BRANCH   1   9
HETATM    9  O   UNL     1     -21.182 -11.999  -2.517  1.00  0.00    -0.311 OA
BRANCH   9  10
HETATM   10  C   UNL     1     -20.800 -12.582  -1.334  1.00  0.00     0.259 C 
HETATM   11  O   UNL     1     -19.888 -13.384  -1.212  1.00  0.00    -0.265 OA
BRANCH  10  12
HETATM   12  C   UNL     1     -21.616 -12.046  -0.178  1.00  0.00     0.111 C 
BRANCH  12  13
HETATM   13  C   UNL     1     -22.915 -11.410  -0.666  1.00  0.00     0.010 C 
BRANCH  13  14
HETATM   14  C   UNL     1     -23.036  -9.936  -0.274  1.00  0.00     0.000 C 
BRANCH  14  15
HETATM   15  C   UNL     1     -21.796  -9.479   0.495  1.00  0.00     0.000 C 
BRANCH  15  16
HETATM   16  C   UNL     1     -21.536  -7.987   0.298  1.00  0.00    -0.000 C 
BRANCH  16  17
HETATM   17  C   UNL     1     -22.662  -7.322  -0.492  1.00  0.00    -0.005 C 
HETATM   18  C   UNL     1     -22.110  -6.362  -1.532  1.00  0.00     0.005 C 
ENDBRANCH  16  17
ENDBRANCH  15  16
ENDBRANCH  14  15
ENDBRANCH  13  14
ENDBRANCH  12  13
ENDBRANCH  10  12
ENDBRANCH   9  10
ENDBRANCH   1   9
BRANCH   8  19
HETATM   19  O   UNL     1     -21.021  -7.699  -5.764  1.00  0.00    -0.311 OA
BRANCH  19  20
HETATM   20  C   UNL     1     -21.533  -6.461  -5.479  1.00  0.00     0.259 C 
HETATM   21  O   UNL     1     -22.663  -6.251  -5.063  1.00  0.00    -0.265 OA
BRANCH  20  22
HETATM   22  C   UNL     1     -20.508  -5.376  -5.694  1.00  0.00     0.111 C 
BRANCH  22  23
HETATM   23  C   UNL     1     -20.866  -4.502  -6.895  1.00  0.00     0.010 C 
BRANCH  23  24
HETATM   24  C   UNL     1     -19.677  -4.280  -7.832  1.00  0.00     0.000 C 
BRANCH  24  25
HETATM   25  C   UNL     1     -20.030  -4.673  -9.268  1.00  0.00     0.000 C 
BRANCH  25  26
HETATM   26  C   UNL     1     -21.414  -4.159  -9.660  1.00  0.00    -0.000 C 
BRANCH  26  27
HETATM   27  C   UNL     1     -21.639  -4.253 -11.169  1.00  0.00    -0.005 C 
HETATM   28  C   UNL     1     -22.214  -2.959 -11.721  1.00  0.00     0.005 C 
ENDBRANCH  26  27
ENDBRANCH  25  26
ENDBRANCH  24  25
ENDBRANCH  23  24
ENDBRANCH  22  23
ENDBRANCH  20  22
ENDBRANCH  19  20
ENDBRANCH   8  19
TORSDOF 16
ENDMDL
