MODEL 1
REMARK VINA RESULT:      -6.2      0.000      0.000
REMARK  12 active torsions:
REMARK  status: ('A' for Active; 'I' for Inactive)
REMARK    1  A    between atoms: C_2  and  C_4 
REMARK    2  A    between atoms: C_4  and  C_5 
REMARK    3  A    between atoms: C_5  and  C_6 
REMARK    4  A    between atoms: C_6  and  C_7 
REMARK    5  A    between atoms: C_7  and  C_8 
REMARK    6  A    between atoms: C_8  and  C_9 
REMARK    7  A    between atoms: C_9  and  C_10 
REMARK    8  A    between atoms: C_10  and  C_11 
REMARK    9  A    between atoms: C_11  and  C_12 
REMARK   10  A    between atoms: C_12  and  C_13 
REMARK   11  A    between atoms: C_13  and  C_14 
REMARK   12  A    between atoms: C_14  and  C_15 
ROOT
HETATM    1  C   UNL     1     -20.943  -3.868  -8.125  1.00  0.00     0.000 C 
ENDROOT
BRANCH   1   2
HETATM    2  C   UNL     1     -19.887  -4.734  -8.789  1.00  0.00     0.000 C 
BRANCH   2   3
HETATM    3  C   UNL     1     -20.023  -4.684 -10.306  1.00  0.00     0.000 C 
BRANCH   3   4
HETATM    4  C   UNL     1     -20.788  -3.432 -10.711  1.00  0.00     0.000 C 
BRANCH   4   5
HETATM    5  C   UNL     1     -21.941  -3.767 -11.650  1.00  0.00     0.004 C 
BRANCH   5   6
HETATM    6  C   UNL     1     -23.316  -3.499 -11.015  1.00  0.00    -0.023 C 
HETATM    7  C   UNL     1     -24.318  -3.117 -12.106  1.00  0.00     0.009 C 
HETATM    8  C   UNL     1     -23.841  -4.702 -10.228  1.00  0.00     0.009 C 
ENDBRANCH   5   6
ENDBRANCH   4   5
ENDBRANCH   3   4
ENDBRANCH   2   3
ENDBRANCH   1   2
BRANCH   1   9
HETATM    9  C   UNL     1     -21.449  -4.535  -6.854  1.00  0.00     0.000 C 
BRANCH   9  10
HETATM   10  C   UNL     1     -20.280  -4.924  -5.962  1.00  0.00     0.000 C 
BRANCH  10  11
HETATM   11  C   UNL     1     -20.442  -6.352  -5.461  1.00  0.00     0.000 C 
BRANCH  11  12
HETATM   12  C   UNL     1     -21.749  -6.502  -4.693  1.00  0.00     0.000 C 
BRANCH  12  13
HETATM   13  C   UNL     1     -21.495  -7.082  -3.306  1.00  0.00     0.004 C 
BRANCH  13  14
HETATM   14  C   UNL     1     -22.052  -6.158  -2.227  1.00  0.00     0.026 C 
BRANCH  14  15
HETATM   15  C   UNL     1     -22.364  -6.907  -0.963  1.00  0.00    -0.037 C 
HETATM   16  C   UNL     1     -21.729  -8.027  -0.611  1.00  0.00     0.007 C 
ENDBRANCH  14  15
ENDBRANCH  13  14
ENDBRANCH  12  13
ENDBRANCH  11  12
ENDBRANCH  10  11
ENDBRANCH   9  10
ENDBRANCH   1   9
TORSDOF 12
ENDMDL
MODEL 2
REMARK VINA RESULT:      -6.2     12.654     14.976
REMARK  12 active torsions:
REMARK  status: ('A' for Active; 'I' for Inactive)
REMARK    1  A    between atoms: C_2  and  C_4 
REMARK    2  A    between atoms: C_4  and  C_5 
REMARK    3  A    between atoms: C_5  and  C_6 
REMARK    4  A    between atoms: C_6  and  C_7 
REMARK    5  A    between atoms: C_7  and  C_8 
REMARK    6  A    between atoms: C_8  and  C_9 
REMARK    7  A    between atoms: C_9  and  C_10 
REMARK    8  A    between atoms: C_10  and  C_11 
REMARK    9  A    between atoms: C_11  and  C_12 
REMARK   10  A    between atoms: C_12  and  C_13 
REMARK   11  A    between atoms: C_13  and  C_14 
REMARK   12  A    between atoms: C_14  and  C_15 
ROOT
HETATM    1  C   UNL     1     -35.793  -2.106 -10.760  1.00  0.00     0.000 C 
ENDROOT
BRANCH   1   2
HETATM    2  C   UNL     1     -36.834  -1.083 -10.339  1.00  0.00     0.000 C 
BRANCH   2   3
HETATM    3  C   UNL     1     -37.062  -0.059 -11.444  1.00  0.00     0.000 C 
BRANCH   3   4
HETATM    4  C   UNL     1     -36.333  -0.497 -12.706  1.00  0.00     0.000 C 
BRANCH   4   5
HETATM    5  C   UNL     1     -37.098  -0.084 -13.959  1.00  0.00     0.004 C 
BRANCH   5   6
HETATM    6  C   UNL     1     -36.177   0.473 -15.057  1.00  0.00    -0.023 C 
HETATM    7  C   UNL     1     -34.829   0.859 -14.447  1.00  0.00     0.009 C 
HETATM    8  C   UNL     1     -35.964  -0.521 -16.201  1.00  0.00     0.009 C 
ENDBRANCH   5   6
ENDBRANCH   4   5
ENDBRANCH   3   4
ENDBRANCH   2   3
ENDBRANCH   1   2
BRANCH   1   9
HETATM    9  C   UNL     1     -34.490  -1.870 -10.010  1.00  0.00     0.000 C 
BRANCH   9  10
HETATM   10  C   UNL     1     -33.304  -2.285 -10.869  1.00  0.00     0.000 C 
BRANCH  10  11
HETATM   11  C   UNL     1     -33.722  -3.340 -11.883  1.00  0.00     0.000 C 
BRANCH  11  12
HETATM   12  C   UNL     1     -32.651  -4.415 -12.006  1.00  0.00     0.000 C 
BRANCH  12  13
HETATM   13  C   UNL     1     -33.051  -5.664 -11.228  1.00  0.00     0.004 C 
BRANCH  13  14
HETATM   14  C   UNL     1     -34.518  -5.596 -10.818  1.00  0.00     0.026 C 
BRANCH  14  15
HETATM   15  C   UNL     1     -34.877  -6.697  -9.860  1.00  0.00    -0.037 C 
HETATM   16  C   UNL     1     -34.576  -7.977 -10.085  1.00  0.00     0.007 C 
ENDBRANCH  14  15
ENDBRANCH  13  14
ENDBRANCH  12  13
ENDBRANCH  11  12
ENDBRANCH  10  11
ENDBRANCH   9  10
ENDBRANCH   1   9
TORSDOF 12
ENDMDL
MODEL 3
REMARK VINA RESULT:      -6.1      1.073      2.073
REMARK  12 active torsions:
REMARK  status: ('A' for Active; 'I' for Inactive)
REMARK    1  A    between atoms: C_2  and  C_4 
REMARK    2  A    between atoms: C_4  and  C_5 
REMARK    3  A    between atoms: C_5  and  C_6 
REMARK    4  A    between atoms: C_6  and  C_7 
REMARK    5  A    between atoms: C_7  and  C_8 
REMARK    6  A    between atoms: C_8  and  C_9 
REMARK    7  A    between atoms: C_9  and  C_10 
REMARK    8  A    between atoms: C_10  and  C_11 
REMARK    9  A    between atoms: C_11  and  C_12 
REMARK   10  A    between atoms: C_12  and  C_13 
REMARK   11  A    between atoms: C_13  and  C_14 
REMARK   12  A    between atoms: C_14  and  C_15 
ROOT
HETATM    1  C   UNL     1     -20.341  -4.738  -7.443  1.00  0.00     0.000 C 
ENDROOT
BRANCH   1   2
HETATM    2  C   UNL     1     -21.480  -3.743  -7.301  1.00  0.00     0.000 C 
BRANCH   2   3
HETATM    3  C   UNL     1     -22.756  -4.291  -7.927  1.00  0.00     0.000 C 
BRANCH   3   4
HETATM    4  C   UNL     1     -22.986  -3.633  -9.280  1.00  0.00     0.000 C 
BRANCH   4   5
HETATM    5  C   UNL     1     -22.854  -4.642 -10.416  1.00  0.00     0.004 C 
BRANCH   5   6
HETATM    6  C   UNL     1     -21.901  -4.163 -11.524  1.00  0.00    -0.023 C 
HETATM    7  C   UNL     1     -22.355  -2.794 -12.033  1.00  0.00     0.009 C 
HETATM    8  C   UNL     1     -20.448  -4.083 -11.049  1.00  0.00     0.009 C 
ENDBRANCH   5   6
ENDBRANCH   4   5
ENDBRANCH   3   4
ENDBRANCH   2   3
ENDBRANCH   1   2
BRANCH   1   9
HETATM    9  C   UNL     1     -20.101  -5.457  -6.122  1.00  0.00     0.000 C 
BRANCH   9  10
HETATM   10  C   UNL     1     -20.960  -6.710  -6.040  1.00  0.00     0.000 C 
BRANCH  10  11
HETATM   11  C   UNL     1     -21.107  -7.163  -4.594  1.00  0.00     0.000 C 
BRANCH  11  12
HETATM   12  C   UNL     1     -21.291  -5.964  -3.675  1.00  0.00     0.000 C 
BRANCH  12  13
HETATM   13  C   UNL     1     -21.886  -6.395  -2.339  1.00  0.00     0.004 C 
BRANCH  13  14
HETATM   14  C   UNL     1     -21.118  -7.583  -1.767  1.00  0.00     0.026 C 
BRANCH  14  15
HETATM   15  C   UNL     1     -21.964  -8.385  -0.820  1.00  0.00    -0.037 C 
HETATM   16  C   UNL     1     -22.749  -7.823   0.102  1.00  0.00     0.007 C 
ENDBRANCH  14  15
ENDBRANCH  13  14
ENDBRANCH  12  13
ENDBRANCH  11  12
ENDBRANCH  10  11
ENDBRANCH   9  10
ENDBRANCH   1   9
TORSDOF 12
ENDMDL
MODEL 4
REMARK VINA RESULT:      -6.1      1.171      3.157
REMARK  12 active torsions:
REMARK  status: ('A' for Active; 'I' for Inactive)
REMARK    1  A    between atoms: C_2  and  C_4 
REMARK    2  A    between atoms: C_4  and  C_5 
REMARK    3  A    between atoms: C_5  and  C_6 
REMARK    4  A    between atoms: C_6  and  C_7 
REMARK    5  A    between atoms: C_7  and  C_8 
REMARK    6  A    between atoms: C_8  and  C_9 
REMARK    7  A    between atoms: C_9  and  C_10 
REMARK    8  A    between atoms: C_10  and  C_11 
REMARK    9  A    between atoms: C_11  and  C_12 
REMARK   10  A    between atoms: C_12  and  C_13 
REMARK   11  A    between atoms: C_13  and  C_14 
REMARK   12  A    between atoms: C_14  and  C_15 
ROOT
HETATM    1  C   UNL     1     -20.806  -6.386  -5.747  1.00  0.00     0.000 C 
ENDROOT
BRANCH   1   2
HETATM    2  C   UNL     1     -20.300  -4.954  -5.732  1.00  0.00     0.000 C 
BRANCH   2   3
HETATM    3  C   UNL     1     -19.369  -4.698  -6.910  1.00  0.00     0.000 C 
BRANCH   3   4
HETATM    4  C   UNL     1     -20.050  -5.124  -8.203  1.00  0.00     0.000 C 
BRANCH   4   5
HETATM    5  C   UNL     1     -21.118  -4.119  -8.623  1.00  0.00     0.004 C 
BRANCH   5   6
HETATM    6  C   UNL     1     -21.631  -4.365 -10.052  1.00  0.00    -0.023 C 
HETATM    7  C   UNL     1     -22.935  -3.596 -10.267  1.00  0.00     0.009 C 
HETATM    8  C   UNL     1     -20.608  -3.960 -11.117  1.00  0.00     0.009 C 
ENDBRANCH   5   6
ENDBRANCH   4   5
ENDBRANCH   3   4
ENDBRANCH   2   3
ENDBRANCH   1   2
BRANCH   1   9
HETATM    9  C   UNL     1     -21.999  -6.533  -4.814  1.00  0.00     0.000 C 
BRANCH   9  10
HETATM   10  C   UNL     1     -21.547  -7.054  -3.457  1.00  0.00     0.000 C 
BRANCH  10  11
HETATM   11  C   UNL     1     -21.969  -6.098  -2.350  1.00  0.00     0.000 C 
BRANCH  11  12
HETATM   12  C   UNL     1     -22.351  -6.870  -1.095  1.00  0.00     0.000 C 
BRANCH  12  13
HETATM   13  C   UNL     1     -21.291  -7.915  -0.763  1.00  0.00     0.004 C 
BRANCH  13  14
HETATM   14  C   UNL     1     -21.785  -8.852   0.335  1.00  0.00     0.026 C 
BRANCH  14  15
HETATM   15  C   UNL     1     -23.234  -9.206   0.150  1.00  0.00    -0.037 C 
HETATM   16  C   UNL     1     -23.642 -10.432  -0.183  1.00  0.00     0.007 C 
ENDBRANCH  14  15
ENDBRANCH  13  14
ENDBRANCH  12  13
ENDBRANCH  11  12
ENDBRANCH  10  11
ENDBRANCH   9  10
ENDBRANCH   1   9
TORSDOF 12
ENDMDL
MODEL 5
REMARK VINA RESULT:      -6.1      1.370      8.502
REMARK  12 active torsions:
REMARK  status: ('A' for Active; 'I' for Inactive)
REMARK    1  A    between atoms: C_2  and  C_4 
REMARK    2  A    between atoms: C_4  and  C_5 
REMARK    3  A    between atoms: C_5  and  C_6 
REMARK    4  A    between atoms: C_6  and  C_7 
REMARK    5  A    between atoms: C_7  and  C_8 
REMARK    6  A    between atoms: C_8  and  C_9 
REMARK    7  A    between atoms: C_9  and  C_10 
REMARK    8  A    between atoms: C_10  and  C_11 
REMARK    9  A    between atoms: C_11  and  C_12 
REMARK   10  A    between atoms: C_12  and  C_13 
REMARK   11  A    between atoms: C_13  and  C_14 
REMARK   12  A    between atoms: C_14  and  C_15 
ROOT
HETATM    1  C   UNL     1     -21.887  -6.065  -5.274  1.00  0.00     0.000 C 
ENDROOT
BRANCH   1   2
HETATM    2  C   UNL     1     -21.928  -6.939  -4.031  1.00  0.00     0.000 C 
BRANCH   2   3
HETATM    3  C   UNL     1     -21.453  -6.161  -2.810  1.00  0.00     0.000 C 
BRANCH   3   4
HETATM    4  C   UNL     1     -22.094  -6.736  -1.555  1.00  0.00     0.000 C 
BRANCH   4   5
HETATM    5  C   UNL     1     -21.282  -7.903  -1.004  1.00  0.00     0.004 C 
BRANCH   5   6
HETATM    6  C   UNL     1     -21.987  -8.613   0.165  1.00  0.00    -0.023 C 
HETATM    7  C   UNL     1     -21.049  -8.664   1.372  1.00  0.00     0.009 C 
HETATM    8  C   UNL     1     -23.300  -7.932   0.555  1.00  0.00     0.009 C 
ENDBRANCH   5   6
ENDBRANCH   4   5
ENDBRANCH   3   4
ENDBRANCH   2   3
ENDBRANCH   1   2
BRANCH   1   9
HETATM    9  C   UNL     1     -20.495  -6.090  -5.889  1.00  0.00     0.000 C 
BRANCH   9  10
HETATM   10  C   UNL     1     -19.970  -4.673  -6.064  1.00  0.00     0.000 C 
BRANCH  10  11
HETATM   11  C   UNL     1     -19.240  -4.534  -7.392  1.00  0.00     0.000 C 
BRANCH  11  12
HETATM   12  C   UNL     1     -20.104  -5.055  -8.533  1.00  0.00     0.000 C 
BRANCH  12  13
HETATM   13  C   UNL     1     -20.415  -3.940  -9.525  1.00  0.00     0.004 C 
BRANCH  13  14
HETATM   14  C   UNL     1     -21.604  -4.318 -10.403  1.00  0.00     0.026 C 
BRANCH  14  15
HETATM   15  C   UNL     1     -22.791  -4.730  -9.580  1.00  0.00    -0.037 C 
HETATM   16  C   UNL     1     -23.501  -3.866  -8.852  1.00  0.00     0.007 C 
ENDBRANCH  14  15
ENDBRANCH  13  14
ENDBRANCH  12  13
ENDBRANCH  11  12
ENDBRANCH  10  11
ENDBRANCH   9  10
ENDBRANCH   1   9
TORSDOF 12
ENDMDL
MODEL 6
REMARK VINA RESULT:      -6.1      1.244      8.650
REMARK  12 active torsions:
REMARK  status: ('A' for Active; 'I' for Inactive)
REMARK    1  A    between atoms: C_2  and  C_4 
REMARK    2  A    between atoms: C_4  and  C_5 
REMARK    3  A    between atoms: C_5  and  C_6 
REMARK    4  A    between atoms: C_6  and  C_7 
REMARK    5  A    between atoms: C_7  and  C_8 
REMARK    6  A    between atoms: C_8  and  C_9 
REMARK    7  A    between atoms: C_9  and  C_10 
REMARK    8  A    between atoms: C_10  and  C_11 
REMARK    9  A    between atoms: C_11  and  C_12 
REMARK   10  A    between atoms: C_12  and  C_13 
REMARK   11  A    between atoms: C_13  and  C_14 
REMARK   12  A    between atoms: C_14  and  C_15 
ROOT
HETATM    1  C   UNL     1     -21.032  -7.420  -5.198  1.00  0.00     0.000 C 
ENDROOT
BRANCH   1   2
HETATM    2  C   UNL     1     -21.448  -7.583  -3.746  1.00  0.00     0.000 C 
BRANCH   2   3
HETATM    3  C   UNL     1     -21.769  -6.231  -3.122  1.00  0.00     0.000 C 
BRANCH   3   4
HETATM    4  C   UNL     1     -22.131  -6.416  -1.656  1.00  0.00     0.000 C 
BRANCH   4   5
HETATM    5  C   UNL     1     -21.584  -7.732  -1.112  1.00  0.00     0.004 C 
BRANCH   5   6
HETATM    6  C   UNL     1     -22.259  -8.154   0.204  1.00  0.00    -0.023 C 
HETATM    7  C   UNL     1     -23.112  -9.400  -0.036  1.00  0.00     0.009 C 
HETATM    8  C   UNL     1     -21.247  -8.424   1.320  1.00  0.00     0.009 C 
ENDBRANCH   5   6
ENDBRANCH   4   5
ENDBRANCH   3   4
ENDBRANCH   2   3
ENDBRANCH   1   2
BRANCH   1   9
HETATM    9  C   UNL     1     -21.253  -5.984  -5.651  1.00  0.00     0.000 C 
BRANCH   9  10
HETATM   10  C   UNL     1     -20.200  -5.587  -6.676  1.00  0.00     0.000 C 
BRANCH  10  11
HETATM   11  C   UNL     1     -20.420  -4.153  -7.138  1.00  0.00     0.000 C 
BRANCH  11  12
HETATM   12  C   UNL     1     -21.871  -3.941  -7.547  1.00  0.00     0.000 C 
BRANCH  12  13
HETATM   13  C   UNL     1     -22.176  -4.669  -8.852  1.00  0.00     0.004 C 
BRANCH  13  14
HETATM   14  C   UNL     1     -22.673  -3.690  -9.910  1.00  0.00     0.026 C 
BRANCH  14  15
HETATM   15  C   UNL     1     -21.841  -3.756 -11.160  1.00  0.00    -0.037 C 
HETATM   16  C   UNL     1     -20.507  -3.761 -11.140  1.00  0.00     0.007 C 
ENDBRANCH  14  15
ENDBRANCH  13  14
ENDBRANCH  12  13
ENDBRANCH  11  12
ENDBRANCH  10  11
ENDBRANCH   9  10
ENDBRANCH   1   9
TORSDOF 12
ENDMDL
MODEL 7
REMARK VINA RESULT:      -6.0      1.021      7.590
REMARK  12 active torsions:
REMARK  status: ('A' for Active; 'I' for Inactive)
REMARK    1  A    between atoms: C_2  and  C_4 
REMARK    2  A    between atoms: C_4  and  C_5 
REMARK    3  A    between atoms: C_5  and  C_6 
REMARK    4  A    between atoms: C_6  and  C_7 
REMARK    5  A    between atoms: C_7  and  C_8 
REMARK    6  A    between atoms: C_8  and  C_9 
REMARK    7  A    between atoms: C_9  and  C_10 
REMARK    8  A    between atoms: C_10  and  C_11 
REMARK    9  A    between atoms: C_11  and  C_12 
REMARK   10  A    between atoms: C_12  and  C_13 
REMARK   11  A    between atoms: C_13  and  C_14 
REMARK   12  A    between atoms: C_14  and  C_15 
ROOT
HETATM    1  C   UNL     1     -20.343  -3.710  -7.760  1.00  0.00     0.000 C 
ENDROOT
BRANCH   1   2
HETATM    2  C   UNL     1     -20.539  -4.512  -6.484  1.00  0.00     0.000 C 
BRANCH   2   3
HETATM    3  C   UNL     1     -19.890  -5.885  -6.605  1.00  0.00     0.000 C 
BRANCH   3   4
HETATM    4  C   UNL     1     -20.433  -6.805  -5.521  1.00  0.00     0.000 C 
BRANCH   4   5
HETATM    5  C   UNL     1     -21.140  -6.014  -4.426  1.00  0.00     0.004 C 
BRANCH   5   6
HETATM    6  C   UNL     1     -21.719  -6.918  -3.325  1.00  0.00    -0.023 C 
HETATM    7  C   UNL     1     -20.702  -8.003  -2.966  1.00  0.00     0.009 C 
HETATM    8  C   UNL     1     -22.106  -6.134  -2.068  1.00  0.00     0.009 C 
ENDBRANCH   5   6
ENDBRANCH   4   5
ENDBRANCH   3   4
ENDBRANCH   2   3
ENDBRANCH   1   2
BRANCH   1   9
HETATM    9  C   UNL     1     -21.067  -4.379  -8.919  1.00  0.00     0.000 C 
BRANCH   9  10
HETATM   10  C   UNL     1     -20.074  -4.789  -9.997  1.00  0.00     0.000 C 
BRANCH  10  11
HETATM   11  C   UNL     1     -20.371  -4.063 -11.301  1.00  0.00     0.000 C 
BRANCH  11  12
HETATM   12  C   UNL     1     -21.545  -3.110 -11.125  1.00  0.00     0.000 C 
BRANCH  12  13
HETATM   13  C   UNL     1     -22.483  -3.183 -12.326  1.00  0.00     0.004 C 
BRANCH  13  14
HETATM   14  C   UNL     1     -23.928  -2.951 -11.895  1.00  0.00     0.026 C 
BRANCH  14  15
HETATM   15  C   UNL     1     -24.299  -3.808 -10.717  1.00  0.00    -0.037 C 
HETATM   16  C   UNL     1     -24.793  -3.305  -9.585  1.00  0.00     0.007 C 
ENDBRANCH  14  15
ENDBRANCH  13  14
ENDBRANCH  12  13
ENDBRANCH  11  12
ENDBRANCH  10  11
ENDBRANCH   9  10
ENDBRANCH   1   9
TORSDOF 12
ENDMDL
MODEL 8
REMARK VINA RESULT:      -5.9      2.251      5.310
REMARK  12 active torsions:
REMARK  status: ('A' for Active; 'I' for Inactive)
REMARK    1  A    between atoms: C_2  and  C_4 
REMARK    2  A    between atoms: C_4  and  C_5 
REMARK    3  A    between atoms: C_5  and  C_6 
REMARK    4  A    between atoms: C_6  and  C_7 
REMARK    5  A    between atoms: C_7  and  C_8 
REMARK    6  A    between atoms: C_8  and  C_9 
REMARK    7  A    between atoms: C_9  and  C_10 
REMARK    8  A    between atoms: C_10  and  C_11 
REMARK    9  A    between atoms: C_11  and  C_12 
REMARK   10  A    between atoms: C_12  and  C_13 
REMARK   11  A    between atoms: C_13  and  C_14 
REMARK   12  A    between atoms: C_14  and  C_15 
ROOT
HETATM    1  C   UNL     1     -21.130  -7.033  -2.792  1.00  0.00     0.000 C 
ENDROOT
BRANCH   1   2
HETATM    2  C   UNL     1     -21.578  -7.580  -4.137  1.00  0.00     0.000 C 
BRANCH   2   3
HETATM    3  C   UNL     1     -21.949  -6.446  -5.084  1.00  0.00     0.000 C 
BRANCH   3   4
HETATM    4  C   UNL     1     -20.801  -6.189  -6.050  1.00  0.00     0.000 C 
BRANCH   4   5
HETATM    5  C   UNL     1     -20.326  -4.742  -5.972  1.00  0.00     0.004 C 
BRANCH   5   6
HETATM    6  C   UNL     1     -20.524  -3.984  -7.295  1.00  0.00    -0.023 C 
HETATM    7  C   UNL     1     -19.809  -4.728  -8.424  1.00  0.00     0.009 C 
HETATM    8  C   UNL     1     -22.002  -3.800  -7.648  1.00  0.00     0.009 C 
ENDBRANCH   5   6
ENDBRANCH   4   5
ENDBRANCH   3   4
ENDBRANCH   2   3
ENDBRANCH   1   2
BRANCH   1   9
HETATM    9  C   UNL     1     -22.317  -6.453  -2.037  1.00  0.00     0.000 C 
BRANCH   9  10
HETATM   10  C   UNL     1     -22.362  -7.005  -0.620  1.00  0.00     0.000 C 
BRANCH  10  11
HETATM   11  C   UNL     1     -21.301  -8.078  -0.431  1.00  0.00     0.000 C 
BRANCH  11  12
HETATM   12  C   UNL     1     -21.826  -9.197   0.458  1.00  0.00     0.000 C 
BRANCH  12  13
HETATM   13  C   UNL     1     -23.254  -9.567   0.070  1.00  0.00     0.004 C 
BRANCH  13  14
HETATM   14  C   UNL     1     -23.337 -11.035  -0.340  1.00  0.00     0.026 C 
BRANCH  14  15
HETATM   15  C   UNL     1     -23.559 -11.185  -1.818  1.00  0.00    -0.037 C 
HETATM   16  C   UNL     1     -22.605 -10.950  -2.720  1.00  0.00     0.007 C 
ENDBRANCH  14  15
ENDBRANCH  13  14
ENDBRANCH  12  13
ENDBRANCH  11  12
ENDBRANCH  10  11
ENDBRANCH   9  10
ENDBRANCH   1   9
TORSDOF 12
ENDMDL
MODEL 9
REMARK VINA RESULT:      -5.9      1.044      8.112
REMARK  12 active torsions:
REMARK  status: ('A' for Active; 'I' for Inactive)
REMARK    1  A    between atoms: C_2  and  C_4 
REMARK    2  A    between atoms: C_4  and  C_5 
REMARK    3  A    between atoms: C_5  and  C_6 
REMARK    4  A    between atoms: C_6  and  C_7 
REMARK    5  A    between atoms: C_7  and  C_8 
REMARK    6  A    between atoms: C_8  and  C_9 
REMARK    7  A    between atoms: C_9  and  C_10 
REMARK    8  A    between atoms: C_10  and  C_11 
REMARK    9  A    between atoms: C_11  and  C_12 
REMARK   10  A    between atoms: C_12  and  C_13 
REMARK   11  A    between atoms: C_13  and  C_14 
REMARK   12  A    between atoms: C_14  and  C_15 
ROOT
HETATM    1  C   UNL     1     -19.868  -4.696  -6.584  1.00  0.00     0.000 C 
ENDROOT
BRANCH   1   2
HETATM    2  C   UNL     1     -20.570  -5.304  -5.382  1.00  0.00     0.000 C 
BRANCH   2   3
HETATM    3  C   UNL     1     -21.191  -6.647  -5.743  1.00  0.00     0.000 C 
BRANCH   3   4
HETATM    4  C   UNL     1     -21.807  -7.277  -4.502  1.00  0.00     0.000 C 
BRANCH   4   5
HETATM    5  C   UNL     1     -21.622  -6.386  -3.278  1.00  0.00     0.004 C 
BRANCH   5   6
HETATM    6  C   UNL     1     -21.310  -7.189  -2.004  1.00  0.00    -0.023 C 
HETATM    7  C   UNL     1     -22.371  -6.896  -0.942  1.00  0.00     0.009 C 
HETATM    8  C   UNL     1     -21.240  -8.695  -2.266  1.00  0.00     0.009 C 
ENDBRANCH   5   6
ENDBRANCH   4   5
ENDBRANCH   3   4
ENDBRANCH   2   3
ENDBRANCH   1   2
BRANCH   1   9
HETATM    9  C   UNL     1     -20.585  -5.089  -7.868  1.00  0.00     0.000 C 
BRANCH   9  10
HETATM   10  C   UNL     1     -20.131  -4.204  -9.019  1.00  0.00     0.000 C 
BRANCH  10  11
HETATM   11  C   UNL     1     -21.133  -4.259 -10.163  1.00  0.00     0.000 C 
BRANCH  11  12
HETATM   12  C   UNL     1     -22.509  -4.658  -9.648  1.00  0.00     0.000 C 
BRANCH  12  13
HETATM   13  C   UNL     1     -23.508  -4.748 -10.796  1.00  0.00     0.004 C 
BRANCH  13  14
HETATM   14  C   UNL     1     -24.261  -3.431 -10.959  1.00  0.00     0.026 C 
BRANCH  14  15
HETATM   15  C   UNL     1     -24.035  -2.828 -12.316  1.00  0.00    -0.037 C 
HETATM   16  C   UNL     1     -23.028  -3.193 -13.111  1.00  0.00     0.007 C 
ENDBRANCH  14  15
ENDBRANCH  13  14
ENDBRANCH  12  13
ENDBRANCH  11  12
ENDBRANCH  10  11
ENDBRANCH   9  10
ENDBRANCH   1   9
TORSDOF 12
ENDMDL
