MODEL 1
REMARK VINA RESULT:      -6.5      0.000      0.000
REMARK  14 active torsions:
REMARK  status: ('A' for Active; 'I' for Inactive)
REMARK    1  A    between atoms: C_2  and  C_3 
REMARK    2  A    between atoms: C_3  and  C_4 
REMARK    3  A    between atoms: C_4  and  C_5 
REMARK    4  A    between atoms: C_5  and  C_6 
REMARK    5  A    between atoms: C_6  and  C_7 
REMARK    6  A    between atoms: C_7  and  C_8 
REMARK    7  A    between atoms: C_8  and  C_9 
REMARK    8  A    between atoms: C_9  and  C_10 
REMARK    9  A    between atoms: C_10  and  C_11 
REMARK   10  A    between atoms: C_11  and  C_12 
REMARK   11  A    between atoms: C_12  and  C_13 
REMARK   12  A    between atoms: C_13  and  C_14 
REMARK   13  A    between atoms: C_14  and  O_16 
REMARK   14  A    between atoms: O_16  and  C_17 
ROOT
HETATM    1  C   UNL     1     -20.398  -5.128  -7.864  1.00  0.00     0.000 C 
ENDROOT
BRANCH   1   2
HETATM    2  C   UNL     1     -20.454  -4.282  -6.600  1.00  0.00     0.000 C 
BRANCH   2   3
HETATM    3  C   UNL     1     -20.488  -5.169  -5.362  1.00  0.00     0.000 C 
BRANCH   3   4
HETATM    4  C   UNL     1     -21.364  -6.391  -5.605  1.00  0.00     0.000 C 
BRANCH   4   5
HETATM    5  C   UNL     1     -22.230  -6.684  -4.385  1.00  0.00     0.000 C 
BRANCH   5   6
HETATM    6  C   UNL     1     -21.501  -6.282  -3.108  1.00  0.00     0.000 C 
BRANCH   6   7
HETATM    7  C   UNL     1     -20.786  -7.481  -2.497  1.00  0.00     0.000 C 
BRANCH   7   8
HETATM    8  C   UNL     1     -21.736  -8.275  -1.607  1.00  0.00    -0.000 C 
BRANCH   8   9
HETATM    9  C   UNL     1     -22.419  -7.368  -0.589  1.00  0.00    -0.005 C 
HETATM   10  C   UNL     1     -22.312  -7.947   0.810  1.00  0.00     0.005 C 
ENDBRANCH   8   9
ENDBRANCH   7   8
ENDBRANCH   6   7
ENDBRANCH   5   6
ENDBRANCH   4   5
ENDBRANCH   3   4
ENDBRANCH   2   3
ENDBRANCH   1   2
BRANCH   1  11
HETATM   11  C   UNL     1     -21.100  -4.426  -9.026  1.00  0.00     0.000 C 
BRANCH  11  12
HETATM   12  C   UNL     1     -22.576  -4.800  -9.040  1.00  0.00     0.010 C 
BRANCH  12  13
HETATM   13  C   UNL     1     -23.491  -3.596  -8.829  1.00  0.00     0.111 C 
BRANCH  13  14
HETATM   14  C   UNL     1     -24.526  -3.542  -9.927  1.00  0.00     0.259 C 
HETATM   15  O   UNL     1     -25.684  -3.168  -9.776  1.00  0.00    -0.265 OA
BRANCH  14  16
HETATM   16  O   UNL     1     -23.998  -3.973 -11.107  1.00  0.00    -0.317 OA
BRANCH  16  17
HETATM   17  C   UNL     1     -23.457  -2.931 -11.941  1.00  0.00     0.123 C 
HETATM   18  C   UNL     1     -22.080  -3.338 -12.457  1.00  0.00     0.040 C 
HETATM   19  C   UNL     1     -24.415  -2.715 -13.106  1.00  0.00     0.040 C 
ENDBRANCH  16  17
ENDBRANCH  14  16
ENDBRANCH  13  14
ENDBRANCH  12  13
ENDBRANCH  11  12
ENDBRANCH   1  11
TORSDOF 14
ENDMDL
MODEL 2
REMARK VINA RESULT:      -6.3      1.592      2.468
REMARK  14 active torsions:
REMARK  status: ('A' for Active; 'I' for Inactive)
REMARK    1  A    between atoms: C_2  and  C_3 
REMARK    2  A    between atoms: C_3  and  C_4 
REMARK    3  A    between atoms: C_4  and  C_5 
REMARK    4  A    between atoms: C_5  and  C_6 
REMARK    5  A    between atoms: C_6  and  C_7 
REMARK    6  A    between atoms: C_7  and  C_8 
REMARK    7  A    between atoms: C_8  and  C_9 
REMARK    8  A    between atoms: C_9  and  C_10 
REMARK    9  A    between atoms: C_10  and  C_11 
REMARK   10  A    between atoms: C_11  and  C_12 
REMARK   11  A    between atoms: C_12  and  C_13 
REMARK   12  A    between atoms: C_13  and  C_14 
REMARK   13  A    between atoms: C_14  and  O_16 
REMARK   14  A    between atoms: O_16  and  C_17 
ROOT
HETATM    1  C   UNL     1     -19.746  -6.210  -6.857  1.00  0.00     0.000 C 
ENDROOT
BRANCH   1   2
HETATM    2  C   UNL     1     -20.836  -6.833  -5.995  1.00  0.00     0.000 C 
BRANCH   2   3
HETATM    3  C   UNL     1     -21.157  -5.936  -4.806  1.00  0.00     0.000 C 
BRANCH   3   4
HETATM    4  C   UNL     1     -22.035  -6.673  -3.804  1.00  0.00     0.000 C 
BRANCH   4   5
HETATM    5  C   UNL     1     -21.822  -6.127  -2.397  1.00  0.00     0.000 C 
BRANCH   5   6
HETATM    6  C   UNL     1     -21.515  -7.262  -1.427  1.00  0.00     0.000 C 
BRANCH   6   7
HETATM    7  C   UNL     1     -22.616  -7.386  -0.380  1.00  0.00     0.000 C 
BRANCH   7   8
HETATM    8  C   UNL     1     -22.314  -8.532   0.580  1.00  0.00    -0.000 C 
BRANCH   8   9
HETATM    9  C   UNL     1     -22.309  -9.870  -0.148  1.00  0.00    -0.005 C 
HETATM   10  C   UNL     1     -23.707 -10.458  -0.213  1.00  0.00     0.005 C 
ENDBRANCH   8   9
ENDBRANCH   7   8
ENDBRANCH   6   7
ENDBRANCH   5   6
ENDBRANCH   4   5
ENDBRANCH   3   4
ENDBRANCH   2   3
ENDBRANCH   1   2
BRANCH   1  11
HETATM   11  C   UNL     1     -19.645  -4.706  -6.611  1.00  0.00     0.000 C 
BRANCH  11  12
HETATM   12  C   UNL     1     -20.034  -3.947  -7.874  1.00  0.00     0.010 C 
BRANCH  12  13
HETATM   13  C   UNL     1     -21.028  -4.716  -8.740  1.00  0.00     0.111 C 
BRANCH  13  14
HETATM   14  C   UNL     1     -22.418  -4.165  -8.532  1.00  0.00     0.259 C 
HETATM   15  O   UNL     1     -23.089  -4.332  -7.519  1.00  0.00    -0.265 OA
BRANCH  14  16
HETATM   16  O   UNL     1     -22.827  -3.462  -9.625  1.00  0.00    -0.317 OA
BRANCH  16  17
HETATM   17  C   UNL     1     -22.398  -4.009 -10.887  1.00  0.00     0.123 C 
HETATM   18  C   UNL     1     -23.546  -4.773 -11.541  1.00  0.00     0.040 C 
HETATM   19  C   UNL     1     -21.958  -2.853 -11.776  1.00  0.00     0.040 C 
ENDBRANCH  16  17
ENDBRANCH  14  16
ENDBRANCH  13  14
ENDBRANCH  12  13
ENDBRANCH  11  12
ENDBRANCH   1  11
TORSDOF 14
ENDMDL
MODEL 3
REMARK VINA RESULT:      -6.2      1.201      1.441
REMARK  14 active torsions:
REMARK  status: ('A' for Active; 'I' for Inactive)
REMARK    1  A    between atoms: C_2  and  C_3 
REMARK    2  A    between atoms: C_3  and  C_4 
REMARK    3  A    between atoms: C_4  and  C_5 
REMARK    4  A    between atoms: C_5  and  C_6 
REMARK    5  A    between atoms: C_6  and  C_7 
REMARK    6  A    between atoms: C_7  and  C_8 
REMARK    7  A    between atoms: C_8  and  C_9 
REMARK    8  A    between atoms: C_9  and  C_10 
REMARK    9  A    between atoms: C_10  and  C_11 
REMARK   10  A    between atoms: C_11  and  C_12 
REMARK   11  A    between atoms: C_12  and  C_13 
REMARK   12  A    between atoms: C_13  and  C_14 
REMARK   13  A    between atoms: C_14  and  O_16 
REMARK   14  A    between atoms: O_16  and  C_17 
ROOT
HETATM    1  C   UNL     1     -20.210  -4.532  -6.748  1.00  0.00     0.000 C 
ENDROOT
BRANCH   1   2
HETATM    2  C   UNL     1     -20.956  -5.308  -5.672  1.00  0.00     0.000 C 
BRANCH   2   3
HETATM    3  C   UNL     1     -20.383  -6.713  -5.529  1.00  0.00     0.000 C 
BRANCH   3   4
HETATM    4  C   UNL     1     -20.953  -7.399  -4.294  1.00  0.00     0.000 C 
BRANCH   4   5
HETATM    5  C   UNL     1     -22.077  -6.567  -3.688  1.00  0.00     0.000 C 
BRANCH   5   6
HETATM    6  C   UNL     1     -21.870  -6.407  -2.187  1.00  0.00     0.000 C 
BRANCH   6   7
HETATM    7  C   UNL     1     -21.034  -7.556  -1.634  1.00  0.00     0.000 C 
BRANCH   7   8
HETATM    8  C   UNL     1     -21.713  -8.174  -0.417  1.00  0.00    -0.000 C 
BRANCH   8   9
HETATM    9  C   UNL     1     -21.975  -9.660  -0.632  1.00  0.00    -0.005 C 
HETATM   10  C   UNL     1     -23.410 -10.013  -0.286  1.00  0.00     0.005 C 
ENDBRANCH   8   9
ENDBRANCH   7   8
ENDBRANCH   6   7
ENDBRANCH   5   6
ENDBRANCH   4   5
ENDBRANCH   3   4
ENDBRANCH   2   3
ENDBRANCH   1   2
BRANCH   1  11
HETATM   11  C   UNL     1     -21.174  -3.704  -7.596  1.00  0.00     0.000 C 
BRANCH  11  12
HETATM   12  C   UNL     1     -22.122  -4.627  -8.350  1.00  0.00     0.010 C 
BRANCH  12  13
HETATM   13  C   UNL     1     -23.544  -4.077  -8.426  1.00  0.00     0.111 C 
BRANCH  13  14
HETATM   14  C   UNL     1     -23.890  -3.754  -9.860  1.00  0.00     0.259 C 
HETATM   15  O   UNL     1     -24.936  -3.227 -10.223  1.00  0.00    -0.265 OA
BRANCH  14  16
HETATM   16  O   UNL     1     -22.883  -4.134 -10.696  1.00  0.00    -0.317 OA
BRANCH  16  17
HETATM   17  C   UNL     1     -22.248  -3.052 -11.405  1.00  0.00     0.123 C 
HETATM   18  C   UNL     1     -20.731  -3.189 -11.313  1.00  0.00     0.040 C 
HETATM   19  C   UNL     1     -22.698  -3.115 -12.859  1.00  0.00     0.040 C 
ENDBRANCH  16  17
ENDBRANCH  14  16
ENDBRANCH  13  14
ENDBRANCH  12  13
ENDBRANCH  11  12
ENDBRANCH   1  11
TORSDOF 14
ENDMDL
MODEL 4
REMARK VINA RESULT:      -6.1      3.339      9.348
REMARK  14 active torsions:
REMARK  status: ('A' for Active; 'I' for Inactive)
REMARK    1  A    between atoms: C_2  and  C_3 
REMARK    2  A    between atoms: C_3  and  C_4 
REMARK    3  A    between atoms: C_4  and  C_5 
REMARK    4  A    between atoms: C_5  and  C_6 
REMARK    5  A    between atoms: C_6  and  C_7 
REMARK    6  A    between atoms: C_7  and  C_8 
REMARK    7  A    between atoms: C_8  and  C_9 
REMARK    8  A    between atoms: C_9  and  C_10 
REMARK    9  A    between atoms: C_10  and  C_11 
REMARK   10  A    between atoms: C_11  and  C_12 
REMARK   11  A    between atoms: C_12  and  C_13 
REMARK   12  A    between atoms: C_13  and  C_14 
REMARK   13  A    between atoms: C_14  and  O_16 
REMARK   14  A    between atoms: O_16  and  C_17 
ROOT
HETATM    1  C   UNL     1     -21.442  -7.244  -5.716  1.00  0.00     0.000 C 
ENDROOT
BRANCH   1   2
HETATM    2  C   UNL     1     -21.546  -5.728  -5.635  1.00  0.00     0.000 C 
BRANCH   2   3
HETATM    3  C   UNL     1     -20.193  -5.081  -5.906  1.00  0.00     0.000 C 
BRANCH   3   4
HETATM    4  C   UNL     1     -19.688  -5.463  -7.291  1.00  0.00     0.000 C 
BRANCH   4   5
HETATM    5  C   UNL     1     -19.686  -4.252  -8.216  1.00  0.00     0.000 C 
BRANCH   5   6
HETATM    6  C   UNL     1     -20.913  -4.270  -9.119  1.00  0.00     0.000 C 
BRANCH   6   7
HETATM    7  C   UNL     1     -20.543  -3.855 -10.538  1.00  0.00     0.000 C 
BRANCH   7   8
HETATM    8  C   UNL     1     -21.646  -4.246 -11.516  1.00  0.00    -0.000 C 
BRANCH   8   9
HETATM    9  C   UNL     1     -22.281  -3.012 -12.146  1.00  0.00    -0.005 C 
HETATM   10  C   UNL     1     -23.783  -3.003 -11.925  1.00  0.00     0.005 C 
ENDBRANCH   8   9
ENDBRANCH   7   8
ENDBRANCH   6   7
ENDBRANCH   5   6
ENDBRANCH   4   5
ENDBRANCH   3   4
ENDBRANCH   2   3
ENDBRANCH   1   2
BRANCH   1  11
HETATM   11  C   UNL     1     -20.465  -7.784  -4.673  1.00  0.00     0.000 C 
BRANCH  11  12
HETATM   12  C   UNL     1     -21.235  -8.379  -3.501  1.00  0.00     0.010 C 
BRANCH  12  13
HETATM   13  C   UNL     1     -20.838  -7.763  -2.162  1.00  0.00     0.111 C 
BRANCH  13  14
HETATM   14  C   UNL     1     -21.936  -6.845  -1.678  1.00  0.00     0.259 C 
HETATM   15  O   UNL     1     -22.185  -5.744  -2.157  1.00  0.00    -0.265 OA
BRANCH  14  16
HETATM   16  O   UNL     1     -22.606  -7.405  -0.632  1.00  0.00    -0.317 OA
BRANCH  16  17
HETATM   17  C   UNL     1     -22.040  -8.637  -0.145  1.00  0.00     0.123 C 
HETATM   18  C   UNL     1     -21.458  -8.427   1.250  1.00  0.00     0.040 C 
HETATM   19  C   UNL     1     -23.150  -9.680  -0.102  1.00  0.00     0.040 C 
ENDBRANCH  16  17
ENDBRANCH  14  16
ENDBRANCH  13  14
ENDBRANCH  12  13
ENDBRANCH  11  12
ENDBRANCH   1  11
TORSDOF 14
ENDMDL
MODEL 5
REMARK VINA RESULT:      -6.1      2.043      3.814
REMARK  14 active torsions:
REMARK  status: ('A' for Active; 'I' for Inactive)
REMARK    1  A    between atoms: C_2  and  C_3 
REMARK    2  A    between atoms: C_3  and  C_4 
REMARK    3  A    between atoms: C_4  and  C_5 
REMARK    4  A    between atoms: C_5  and  C_6 
REMARK    5  A    between atoms: C_6  and  C_7 
REMARK    6  A    between atoms: C_7  and  C_8 
REMARK    7  A    between atoms: C_8  and  C_9 
REMARK    8  A    between atoms: C_9  and  C_10 
REMARK    9  A    between atoms: C_10  and  C_11 
REMARK   10  A    between atoms: C_11  and  C_12 
REMARK   11  A    between atoms: C_12  and  C_13 
REMARK   12  A    between atoms: C_13  and  C_14 
REMARK   13  A    between atoms: C_14  and  O_16 
REMARK   14  A    between atoms: O_16  and  C_17 
ROOT
HETATM    1  C   UNL     1     -21.330  -6.851  -4.683  1.00  0.00     0.000 C 
ENDROOT
BRANCH   1   2
HETATM    2  C   UNL     1     -21.322  -7.270  -3.219  1.00  0.00     0.000 C 
BRANCH   2   3
HETATM    3  C   UNL     1     -22.078  -6.257  -2.368  1.00  0.00     0.000 C 
BRANCH   3   4
HETATM    4  C   UNL     1     -22.299  -6.801  -0.962  1.00  0.00     0.000 C 
BRANCH   4   5
HETATM    5  C   UNL     1     -21.394  -7.999  -0.701  1.00  0.00     0.000 C 
BRANCH   5   6
HETATM    6  C   UNL     1     -21.819  -8.718   0.574  1.00  0.00     0.000 C 
BRANCH   6   7
HETATM    7  C   UNL     1     -22.155 -10.176   0.281  1.00  0.00     0.000 C 
BRANCH   7   8
HETATM    8  C   UNL     1     -23.590 -10.303  -0.220  1.00  0.00    -0.000 C 
BRANCH   8   9
HETATM    9  C   UNL     1     -23.691 -11.336  -1.336  1.00  0.00    -0.005 C 
HETATM   10  C   UNL     1     -22.859 -10.919  -2.536  1.00  0.00     0.005 C 
ENDBRANCH   8   9
ENDBRANCH   7   8
ENDBRANCH   6   7
ENDBRANCH   5   6
ENDBRANCH   4   5
ENDBRANCH   3   4
ENDBRANCH   2   3
ENDBRANCH   1   2
BRANCH   1  11
HETATM   11  C   UNL     1     -20.801  -5.428  -4.849  1.00  0.00     0.000 C 
BRANCH  11  12
HETATM   12  C   UNL     1     -20.109  -5.287  -6.199  1.00  0.00     0.010 C 
BRANCH  12  13
HETATM   13  C   UNL     1     -20.993  -5.729  -7.363  1.00  0.00     0.111 C 
BRANCH  13  14
HETATM   14  C   UNL     1     -21.613  -4.518  -8.020  1.00  0.00     0.259 C 
HETATM   15  O   UNL     1     -21.809  -3.446  -7.459  1.00  0.00    -0.265 OA
BRANCH  14  16
HETATM   16  O   UNL     1     -21.930  -4.784  -9.318  1.00  0.00    -0.317 OA
BRANCH  16  17
HETATM   17  C   UNL     1     -21.676  -3.702 -10.234  1.00  0.00     0.123 C 
HETATM   18  C   UNL     1     -20.514  -4.061 -11.155  1.00  0.00     0.040 C 
HETATM   19  C   UNL     1     -22.942  -3.467 -11.047  1.00  0.00     0.040 C 
ENDBRANCH  16  17
ENDBRANCH  14  16
ENDBRANCH  13  14
ENDBRANCH  12  13
ENDBRANCH  11  12
ENDBRANCH   1  11
TORSDOF 14
ENDMDL
MODEL 6
REMARK VINA RESULT:      -6.1      3.792      9.192
REMARK  14 active torsions:
REMARK  status: ('A' for Active; 'I' for Inactive)
REMARK    1  A    between atoms: C_2  and  C_3 
REMARK    2  A    between atoms: C_3  and  C_4 
REMARK    3  A    between atoms: C_4  and  C_5 
REMARK    4  A    between atoms: C_5  and  C_6 
REMARK    5  A    between atoms: C_6  and  C_7 
REMARK    6  A    between atoms: C_7  and  C_8 
REMARK    7  A    between atoms: C_8  and  C_9 
REMARK    8  A    between atoms: C_9  and  C_10 
REMARK    9  A    between atoms: C_10  and  C_11 
REMARK   10  A    between atoms: C_11  and  C_12 
REMARK   11  A    between atoms: C_12  and  C_13 
REMARK   12  A    between atoms: C_13  and  C_14 
REMARK   13  A    between atoms: C_14  and  O_16 
REMARK   14  A    between atoms: O_16  and  C_17 
ROOT
HETATM    1  C   UNL     1     -21.035  -6.914  -5.746  1.00  0.00     0.000 C 
ENDROOT
BRANCH   1   2
HETATM    2  C   UNL     1     -20.896  -6.017  -6.968  1.00  0.00     0.000 C 
BRANCH   2   3
HETATM    3  C   UNL     1     -20.538  -4.595  -6.552  1.00  0.00     0.000 C 
BRANCH   3   4
HETATM    4  C   UNL     1     -21.411  -3.588  -7.290  1.00  0.00     0.000 C 
BRANCH   4   5
HETATM    5  C   UNL     1     -22.700  -4.244  -7.770  1.00  0.00     0.000 C 
BRANCH   5   6
HETATM    6  C   UNL     1     -23.145  -3.634  -9.094  1.00  0.00     0.000 C 
BRANCH   6   7
HETATM    7  C   UNL     1     -23.482  -4.727 -10.103  1.00  0.00     0.000 C 
BRANCH   7   8
HETATM    8  C   UNL     1     -22.548  -4.650 -11.306  1.00  0.00    -0.000 C 
BRANCH   8   9
HETATM    9  C   UNL     1     -21.407  -3.673 -11.053  1.00  0.00    -0.005 C 
HETATM   10  C   UNL     1     -20.118  -4.412 -10.742  1.00  0.00     0.005 C 
ENDBRANCH   8   9
ENDBRANCH   7   8
ENDBRANCH   6   7
ENDBRANCH   5   6
ENDBRANCH   4   5
ENDBRANCH   3   4
ENDBRANCH   2   3
ENDBRANCH   1   2
BRANCH   1  11
HETATM   11  C   UNL     1     -21.252  -6.087  -4.480  1.00  0.00     0.000 C 
BRANCH  11  12
HETATM   12  C   UNL     1     -21.386  -7.010  -3.276  1.00  0.00     0.010 C 
BRANCH  12  13
HETATM   13  C   UNL     1     -21.953  -6.299  -2.050  1.00  0.00     0.111 C 
BRANCH  13  14
HETATM   14  C   UNL     1     -22.383  -7.320  -1.023  1.00  0.00     0.259 C 
HETATM   15  O   UNL     1     -23.058  -7.068  -0.031  1.00  0.00    -0.265 OA
BRANCH  14  16
HETATM   16  O   UNL     1     -21.911  -8.557  -1.346  1.00  0.00    -0.317 OA
BRANCH  16  17
HETATM   17  C   UNL     1     -22.125  -9.565  -0.340  1.00  0.00     0.123 C 
HETATM   18  C   UNL     1     -23.227 -10.522  -0.786  1.00  0.00     0.040 C 
HETATM   19  C   UNL     1     -20.816 -10.320  -0.145  1.00  0.00     0.040 C 
ENDBRANCH  16  17
ENDBRANCH  14  16
ENDBRANCH  13  14
ENDBRANCH  12  13
ENDBRANCH  11  12
ENDBRANCH   1  11
TORSDOF 14
ENDMDL
MODEL 7
REMARK VINA RESULT:      -5.9      3.579      9.067
REMARK  14 active torsions:
REMARK  status: ('A' for Active; 'I' for Inactive)
REMARK    1  A    between atoms: C_2  and  C_3 
REMARK    2  A    between atoms: C_3  and  C_4 
REMARK    3  A    between atoms: C_4  and  C_5 
REMARK    4  A    between atoms: C_5  and  C_6 
REMARK    5  A    between atoms: C_6  and  C_7 
REMARK    6  A    between atoms: C_7  and  C_8 
REMARK    7  A    between atoms: C_8  and  C_9 
REMARK    8  A    between atoms: C_9  and  C_10 
REMARK    9  A    between atoms: C_10  and  C_11 
REMARK   10  A    between atoms: C_11  and  C_12 
REMARK   11  A    between atoms: C_12  and  C_13 
REMARK   12  A    between atoms: C_13  and  C_14 
REMARK   13  A    between atoms: C_14  and  O_16 
REMARK   14  A    between atoms: O_16  and  C_17 
ROOT
HETATM    1  C   UNL     1     -20.533  -6.268  -6.429  1.00  0.00     0.000 C 
ENDROOT
BRANCH   1   2
HETATM    2  C   UNL     1     -20.235  -4.822  -6.058  1.00  0.00     0.000 C 
BRANCH   2   3
HETATM    3  C   UNL     1     -20.813  -3.871  -7.099  1.00  0.00     0.000 C 
BRANCH   3   4
HETATM    4  C   UNL     1     -22.132  -4.407  -7.638  1.00  0.00     0.000 C 
BRANCH   4   5
HETATM    5  C   UNL     1     -22.105  -4.468  -9.161  1.00  0.00     0.000 C 
BRANCH   5   6
HETATM    6  C   UNL     1     -20.717  -4.115  -9.683  1.00  0.00     0.000 C 
BRANCH   6   7
HETATM    7  C   UNL     1     -20.756  -3.863 -11.186  1.00  0.00     0.000 C 
BRANCH   7   8
HETATM    8  C   UNL     1     -22.167  -4.072 -11.727  1.00  0.00    -0.000 C 
BRANCH   8   9
HETATM    9  C   UNL     1     -22.739  -2.773 -12.281  1.00  0.00    -0.005 C 
HETATM   10  C   UNL     1     -24.224  -2.911 -12.562  1.00  0.00     0.005 C 
ENDBRANCH   8   9
ENDBRANCH   7   8
ENDBRANCH   6   7
ENDBRANCH   5   6
ENDBRANCH   4   5
ENDBRANCH   3   4
ENDBRANCH   2   3
ENDBRANCH   1   2
BRANCH   1  11
HETATM   11  C   UNL     1     -20.865  -7.096  -5.189  1.00  0.00     0.000 C 
BRANCH  11  12
HETATM   12  C   UNL     1     -21.046  -6.178  -3.987  1.00  0.00     0.010 C 
BRANCH  12  13
HETATM   13  C   UNL     1     -22.321  -6.477  -3.204  1.00  0.00     0.111 C 
BRANCH  13  14
HETATM   14  C   UNL     1     -21.969  -6.888  -1.794  1.00  0.00     0.259 C 
HETATM   15  O   UNL     1     -22.674  -6.685  -0.812  1.00  0.00    -0.265 OA
BRANCH  14  16
HETATM   16  O   UNL     1     -20.756  -7.509  -1.762  1.00  0.00    -0.317 OA
BRANCH  16  17
HETATM   17  C   UNL     1     -20.813  -8.945  -1.857  1.00  0.00     0.123 C 
HETATM   18  C   UNL     1     -19.593  -9.466  -2.613  1.00  0.00     0.040 C 
HETATM   19  C   UNL     1     -20.839  -9.510  -0.442  1.00  0.00     0.040 C 
ENDBRANCH  16  17
ENDBRANCH  14  16
ENDBRANCH  13  14
ENDBRANCH  12  13
ENDBRANCH  11  12
ENDBRANCH   1  11
TORSDOF 14
ENDMDL
MODEL 8
REMARK VINA RESULT:      -5.7      3.743      6.453
REMARK  14 active torsions:
REMARK  status: ('A' for Active; 'I' for Inactive)
REMARK    1  A    between atoms: C_2  and  C_3 
REMARK    2  A    between atoms: C_3  and  C_4 
REMARK    3  A    between atoms: C_4  and  C_5 
REMARK    4  A    between atoms: C_5  and  C_6 
REMARK    5  A    between atoms: C_6  and  C_7 
REMARK    6  A    between atoms: C_7  and  C_8 
REMARK    7  A    between atoms: C_8  and  C_9 
REMARK    8  A    between atoms: C_9  and  C_10 
REMARK    9  A    between atoms: C_10  and  C_11 
REMARK   10  A    between atoms: C_11  and  C_12 
REMARK   11  A    between atoms: C_12  and  C_13 
REMARK   12  A    between atoms: C_13  and  C_14 
REMARK   13  A    between atoms: C_14  and  O_16 
REMARK   14  A    between atoms: O_16  and  C_17 
ROOT
HETATM    1  C   UNL     1     -21.821  -7.468  -1.353  1.00  0.00     0.000 C 
ENDROOT
BRANCH   1   2
HETATM    2  C   UNL     1     -22.658  -7.293  -0.094  1.00  0.00     0.000 C 
BRANCH   2   3
HETATM    3  C   UNL     1     -23.137  -8.643   0.424  1.00  0.00     0.000 C 
BRANCH   3   4
HETATM    4  C   UNL     1     -22.909  -9.727  -0.622  1.00  0.00     0.000 C 
BRANCH   4   5
HETATM    5  C   UNL     1     -22.479 -11.031   0.040  1.00  0.00     0.000 C 
BRANCH   5   6
HETATM    6  C   UNL     1     -23.674 -11.960   0.210  1.00  0.00     0.000 C 
BRANCH   6   7
HETATM    7  C   UNL     1     -23.211 -13.390   0.466  1.00  0.00     0.000 C 
BRANCH   7   8
HETATM    8  C   UNL     1     -22.181 -13.426   1.590  1.00  0.00    -0.000 C 
BRANCH   8   9
HETATM    9  C   UNL     1     -22.506 -14.524   2.596  1.00  0.00    -0.005 C 
HETATM   10  C   UNL     1     -23.985 -14.529   2.935  1.00  0.00     0.005 C 
ENDBRANCH   8   9
ENDBRANCH   7   8
ENDBRANCH   6   7
ENDBRANCH   5   6
ENDBRANCH   4   5
ENDBRANCH   3   4
ENDBRANCH   2   3
ENDBRANCH   1   2
BRANCH   1  11
HETATM   11  C   UNL     1     -21.931  -6.244  -2.260  1.00  0.00     0.000 C 
BRANCH  11  12
HETATM   12  C   UNL     1     -21.969  -6.681  -3.718  1.00  0.00     0.010 C 
BRANCH  12  13
HETATM   13  C   UNL     1     -21.083  -5.820  -4.615  1.00  0.00     0.111 C 
BRANCH  13  14
HETATM   14  C   UNL     1     -21.238  -6.255  -6.053  1.00  0.00     0.259 C 
HETATM   15  O   UNL     1     -21.061  -7.399  -6.458  1.00  0.00    -0.265 OA
BRANCH  14  16
HETATM   16  O   UNL     1     -21.595  -5.201  -6.839  1.00  0.00    -0.317 OA
BRANCH  16  17
HETATM   17  C   UNL     1     -20.923  -5.146  -8.113  1.00  0.00     0.123 C 
HETATM   18  C   UNL     1     -21.854  -4.555  -9.168  1.00  0.00     0.040 C 
HETATM   19  C   UNL     1     -19.684  -4.275  -7.953  1.00  0.00     0.040 C 
ENDBRANCH  16  17
ENDBRANCH  14  16
ENDBRANCH  13  14
ENDBRANCH  12  13
ENDBRANCH  11  12
ENDBRANCH   1  11
TORSDOF 14
ENDMDL
MODEL 9
REMARK VINA RESULT:      -5.7     12.703     14.810
REMARK  14 active torsions:
REMARK  status: ('A' for Active; 'I' for Inactive)
REMARK    1  A    between atoms: C_2  and  C_3 
REMARK    2  A    between atoms: C_3  and  C_4 
REMARK    3  A    between atoms: C_4  and  C_5 
REMARK    4  A    between atoms: C_5  and  C_6 
REMARK    5  A    between atoms: C_6  and  C_7 
REMARK    6  A    between atoms: C_7  and  C_8 
REMARK    7  A    between atoms: C_8  and  C_9 
REMARK    8  A    between atoms: C_9  and  C_10 
REMARK    9  A    between atoms: C_10  and  C_11 
REMARK   10  A    between atoms: C_11  and  C_12 
REMARK   11  A    between atoms: C_12  and  C_13 
REMARK   12  A    between atoms: C_13  and  C_14 
REMARK   13  A    between atoms: C_14  and  O_16 
REMARK   14  A    between atoms: O_16  and  C_17 
ROOT
HETATM    1  C   UNL     1     -36.153  -0.271 -12.797  1.00  0.00     0.000 C 
ENDROOT
BRANCH   1   2
HETATM    2  C   UNL     1     -36.625   0.001 -11.376  1.00  0.00     0.000 C 
BRANCH   2   3
HETATM    3  C   UNL     1     -36.631  -1.284 -10.557  1.00  0.00     0.000 C 
BRANCH   3   4
HETATM    4  C   UNL     1     -35.206  -1.731 -10.256  1.00  0.00     0.000 C 
BRANCH   4   5
HETATM    5  C   UNL     1     -34.900  -3.056 -10.944  1.00  0.00     0.000 C 
BRANCH   5   6
HETATM    6  C   UNL     1     -33.439  -3.107 -11.373  1.00  0.00     0.000 C 
BRANCH   6   7
HETATM    7  C   UNL     1     -33.016  -4.541 -11.670  1.00  0.00     0.000 C 
BRANCH   7   8
HETATM    8  C   UNL     1     -34.181  -5.500 -11.445  1.00  0.00    -0.000 C 
BRANCH   8   9
HETATM    9  C   UNL     1     -33.870  -6.487 -10.327  1.00  0.00    -0.005 C 
HETATM   10  C   UNL     1     -34.927  -7.573 -10.252  1.00  0.00     0.005 C 
ENDBRANCH   8   9
ENDBRANCH   7   8
ENDBRANCH   6   7
ENDBRANCH   5   6
ENDBRANCH   4   5
ENDBRANCH   3   4
ENDBRANCH   2   3
ENDBRANCH   1   2
BRANCH   1  11
HETATM   11  C   UNL     1     -34.866   0.493 -13.104  1.00  0.00     0.000 C 
BRANCH  11  12
HETATM   12  C   UNL     1     -34.735   0.704 -14.606  1.00  0.00     0.010 C 
BRANCH  12  13
HETATM   13  C   UNL     1     -36.061   0.535 -15.343  1.00  0.00     0.111 C 
BRANCH  13  14
HETATM   14  C   UNL     1     -35.942  -0.580 -16.355  1.00  0.00     0.259 C 
HETATM   15  O   UNL     1     -36.819  -0.893 -17.153  1.00  0.00    -0.265 OA
BRANCH  14  16
HETATM   16  O   UNL     1     -34.731  -1.195 -16.255  1.00  0.00    -0.317 OA
BRANCH  16  17
HETATM   17  C   UNL     1     -34.771  -2.630 -16.378  1.00  0.00     0.123 C 
HETATM   18  C   UNL     1     -33.649  -3.106 -17.296  1.00  0.00     0.040 C 
HETATM   19  C   UNL     1     -34.605  -3.227 -14.986  1.00  0.00     0.040 C 
ENDBRANCH  16  17
ENDBRANCH  14  16
ENDBRANCH  13  14
ENDBRANCH  12  13
ENDBRANCH  11  12
ENDBRANCH   1  11
TORSDOF 14
ENDMDL
