MODEL 1
REMARK VINA RESULT:      -1.1      0.000      0.000
REMARK WARNING: 32 MAX_TORS EXCEEDED!!!
REMARK  64 active torsions:
REMARK  status: ('A' for Active; 'I' for Inactive)
REMARK    1  A    between atoms: C_2  and  C_3 
REMARK    2  A    between atoms: C_3  and  C_4 
REMARK    3  A    between atoms: C_4  and  C_5 
REMARK    4  A    between atoms: C_5  and  C_6 
REMARK    5  A    between atoms: C_6  and  C_7 
REMARK    6  A    between atoms: C_7  and  C_8 
REMARK    7  A    between atoms: C_8  and  C_9 
REMARK    8  A    between atoms: C_9  and  C_10 
REMARK    9  A    between atoms: C_10  and  C_11 
REMARK   10  A    between atoms: C_11  and  C_12 
REMARK   11  A    between atoms: C_12  and  C_13 
REMARK   12  A    between atoms: C_13  and  C_14 
REMARK   13  A    between atoms: C_14  and  C_15 
REMARK   14  A    between atoms: C_15  and  C_16 
REMARK   15  A    between atoms: C_16  and  C_17 
REMARK   16  A    between atoms: C_17  and  C_18 
REMARK   17  A    between atoms: C_18  and  C_19 
REMARK   18  A    between atoms: C_19  and  C_20 
REMARK   19  A    between atoms: C_19  and  N_35 
REMARK   20  A    between atoms: C_20  and  C_21 
REMARK   21  A    between atoms: C_21  and  C_22 
REMARK   22  A    between atoms: C_22  and  C_23 
REMARK   23  A    between atoms: C_23  and  C_24 
REMARK   24  A    between atoms: C_24  and  C_25 
REMARK   25  A    between atoms: C_25  and  C_26 
REMARK   26  A    between atoms: C_26  and  C_27 
REMARK   27  A    between atoms: C_27  and  C_28 
REMARK   28  A    between atoms: C_28  and  C_29 
REMARK   29  A    between atoms: C_29  and  C_30 
REMARK   30  A    between atoms: C_30  and  C_31 
REMARK   31  A    between atoms: C_31  and  C_32 
REMARK   32  A    between atoms: C_32  and  C_33 
REMARK   33  A    between atoms: N_35  and  C_38 
REMARK   34  A    between atoms: C_38  and  C_39 
REMARK   35  A    between atoms: C_38  and  C_54 
REMARK   36  A    between atoms: C_39  and  C_40 
REMARK   37  A    between atoms: C_40  and  C_41 
REMARK   38  A    between atoms: C_41  and  C_42 
REMARK   39  A    between atoms: C_42  and  C_43 
REMARK   40  A    between atoms: C_43  and  C_44 
REMARK   41  A    between atoms: C_44  and  C_45 
REMARK   42  A    between atoms: C_45  and  C_46 
REMARK   43  A    between atoms: C_46  and  C_47 
REMARK   44  A    between atoms: C_47  and  C_48 
REMARK   45  A    between atoms: C_48  and  C_49 
REMARK   46  A    between atoms: C_49  and  C_50 
REMARK   47  A    between atoms: C_50  and  C_51 
REMARK   48  A    between atoms: C_51  and  C_52 
REMARK   49  A    between atoms: C_54  and  C_55 
REMARK   50  A    between atoms: C_55  and  C_56 
REMARK   51  A    between atoms: C_56  and  C_57 
REMARK   52  A    between atoms: C_57  and  C_58 
REMARK   53  A    between atoms: C_58  and  C_59 
REMARK   54  A    between atoms: C_59  and  C_60 
REMARK   55  A    between atoms: C_60  and  C_61 
REMARK   56  A    between atoms: C_61  and  C_62 
REMARK   57  A    between atoms: C_62  and  C_63 
REMARK   58  A    between atoms: C_63  and  C_64 
REMARK   59  A    between atoms: C_64  and  C_65 
REMARK   60  A    between atoms: C_65  and  C_66 
REMARK   61  A    between atoms: C_66  and  C_67 
REMARK   62  A    between atoms: C_67  and  C_68 
REMARK   63  A    between atoms: C_68  and  C_69 
REMARK   64  A    between atoms: C_69  and  C_70 
ROOT
HETATM    1 CL   UNL     2     -32.950  -3.303 -11.393  1.00  0.00     0.000 Cl
ENDROOT
TORSDOF 64
ENDMDL
MODEL 2
REMARK VINA RESULT:      -1.0      8.563      8.563
REMARK WARNING: 32 MAX_TORS EXCEEDED!!!
REMARK  64 active torsions:
REMARK  status: ('A' for Active; 'I' for Inactive)
REMARK    1  A    between atoms: C_2  and  C_3 
REMARK    2  A    between atoms: C_3  and  C_4 
REMARK    3  A    between atoms: C_4  and  C_5 
REMARK    4  A    between atoms: C_5  and  C_6 
REMARK    5  A    between atoms: C_6  and  C_7 
REMARK    6  A    between atoms: C_7  and  C_8 
REMARK    7  A    between atoms: C_8  and  C_9 
REMARK    8  A    between atoms: C_9  and  C_10 
REMARK    9  A    between atoms: C_10  and  C_11 
REMARK   10  A    between atoms: C_11  and  C_12 
REMARK   11  A    between atoms: C_12  and  C_13 
REMARK   12  A    between atoms: C_13  and  C_14 
REMARK   13  A    between atoms: C_14  and  C_15 
REMARK   14  A    between atoms: C_15  and  C_16 
REMARK   15  A    between atoms: C_16  and  C_17 
REMARK   16  A    between atoms: C_17  and  C_18 
REMARK   17  A    between atoms: C_18  and  C_19 
REMARK   18  A    between atoms: C_19  and  C_20 
REMARK   19  A    between atoms: C_19  and  N_35 
REMARK   20  A    between atoms: C_20  and  C_21 
REMARK   21  A    between atoms: C_21  and  C_22 
REMARK   22  A    between atoms: C_22  and  C_23 
REMARK   23  A    between atoms: C_23  and  C_24 
REMARK   24  A    between atoms: C_24  and  C_25 
REMARK   25  A    between atoms: C_25  and  C_26 
REMARK   26  A    between atoms: C_26  and  C_27 
REMARK   27  A    between atoms: C_27  and  C_28 
REMARK   28  A    between atoms: C_28  and  C_29 
REMARK   29  A    between atoms: C_29  and  C_30 
REMARK   30  A    between atoms: C_30  and  C_31 
REMARK   31  A    between atoms: C_31  and  C_32 
REMARK   32  A    between atoms: C_32  and  C_33 
REMARK   33  A    between atoms: N_35  and  C_38 
REMARK   34  A    between atoms: C_38  and  C_39 
REMARK   35  A    between atoms: C_38  and  C_54 
REMARK   36  A    between atoms: C_39  and  C_40 
REMARK   37  A    between atoms: C_40  and  C_41 
REMARK   38  A    between atoms: C_41  and  C_42 
REMARK   39  A    between atoms: C_42  and  C_43 
REMARK   40  A    between atoms: C_43  and  C_44 
REMARK   41  A    between atoms: C_44  and  C_45 
REMARK   42  A    between atoms: C_45  and  C_46 
REMARK   43  A    between atoms: C_46  and  C_47 
REMARK   44  A    between atoms: C_47  and  C_48 
REMARK   45  A    between atoms: C_48  and  C_49 
REMARK   46  A    between atoms: C_49  and  C_50 
REMARK   47  A    between atoms: C_50  and  C_51 
REMARK   48  A    between atoms: C_51  and  C_52 
REMARK   49  A    between atoms: C_54  and  C_55 
REMARK   50  A    between atoms: C_55  and  C_56 
REMARK   51  A    between atoms: C_56  and  C_57 
REMARK   52  A    between atoms: C_57  and  C_58 
REMARK   53  A    between atoms: C_58  and  C_59 
REMARK   54  A    between atoms: C_59  and  C_60 
REMARK   55  A    between atoms: C_60  and  C_61 
REMARK   56  A    between atoms: C_61  and  C_62 
REMARK   57  A    between atoms: C_62  and  C_63 
REMARK   58  A    between atoms: C_63  and  C_64 
REMARK   59  A    between atoms: C_64  and  C_65 
REMARK   60  A    between atoms: C_65  and  C_66 
REMARK   61  A    between atoms: C_66  and  C_67 
REMARK   62  A    between atoms: C_67  and  C_68 
REMARK   63  A    between atoms: C_68  and  C_69 
REMARK   64  A    between atoms: C_69  and  C_70 
ROOT
HETATM    1 CL   UNL     2     -37.016   0.580  -4.933  1.00  0.00     0.000 Cl
ENDROOT
TORSDOF 64
ENDMDL
MODEL 3
REMARK VINA RESULT:      -1.0     10.560     10.560
REMARK WARNING: 32 MAX_TORS EXCEEDED!!!
REMARK  64 active torsions:
REMARK  status: ('A' for Active; 'I' for Inactive)
REMARK    1  A    between atoms: C_2  and  C_3 
REMARK    2  A    between atoms: C_3  and  C_4 
REMARK    3  A    between atoms: C_4  and  C_5 
REMARK    4  A    between atoms: C_5  and  C_6 
REMARK    5  A    between atoms: C_6  and  C_7 
REMARK    6  A    between atoms: C_7  and  C_8 
REMARK    7  A    between atoms: C_8  and  C_9 
REMARK    8  A    between atoms: C_9  and  C_10 
REMARK    9  A    between atoms: C_10  and  C_11 
REMARK   10  A    between atoms: C_11  and  C_12 
REMARK   11  A    between atoms: C_12  and  C_13 
REMARK   12  A    between atoms: C_13  and  C_14 
REMARK   13  A    between atoms: C_14  and  C_15 
REMARK   14  A    between atoms: C_15  and  C_16 
REMARK   15  A    between atoms: C_16  and  C_17 
REMARK   16  A    between atoms: C_17  and  C_18 
REMARK   17  A    between atoms: C_18  and  C_19 
REMARK   18  A    between atoms: C_19  and  C_20 
REMARK   19  A    between atoms: C_19  and  N_35 
REMARK   20  A    between atoms: C_20  and  C_21 
REMARK   21  A    between atoms: C_21  and  C_22 
REMARK   22  A    between atoms: C_22  and  C_23 
REMARK   23  A    between atoms: C_23  and  C_24 
REMARK   24  A    between atoms: C_24  and  C_25 
REMARK   25  A    between atoms: C_25  and  C_26 
REMARK   26  A    between atoms: C_26  and  C_27 
REMARK   27  A    between atoms: C_27  and  C_28 
REMARK   28  A    between atoms: C_28  and  C_29 
REMARK   29  A    between atoms: C_29  and  C_30 
REMARK   30  A    between atoms: C_30  and  C_31 
REMARK   31  A    between atoms: C_31  and  C_32 
REMARK   32  A    between atoms: C_32  and  C_33 
REMARK   33  A    between atoms: N_35  and  C_38 
REMARK   34  A    between atoms: C_38  and  C_39 
REMARK   35  A    between atoms: C_38  and  C_54 
REMARK   36  A    between atoms: C_39  and  C_40 
REMARK   37  A    between atoms: C_40  and  C_41 
REMARK   38  A    between atoms: C_41  and  C_42 
REMARK   39  A    between atoms: C_42  and  C_43 
REMARK   40  A    between atoms: C_43  and  C_44 
REMARK   41  A    between atoms: C_44  and  C_45 
REMARK   42  A    between atoms: C_45  and  C_46 
REMARK   43  A    between atoms: C_46  and  C_47 
REMARK   44  A    between atoms: C_47  and  C_48 
REMARK   45  A    between atoms: C_48  and  C_49 
REMARK   46  A    between atoms: C_49  and  C_50 
REMARK   47  A    between atoms: C_50  and  C_51 
REMARK   48  A    between atoms: C_51  and  C_52 
REMARK   49  A    between atoms: C_54  and  C_55 
REMARK   50  A    between atoms: C_55  and  C_56 
REMARK   51  A    between atoms: C_56  and  C_57 
REMARK   52  A    between atoms: C_57  and  C_58 
REMARK   53  A    between atoms: C_58  and  C_59 
REMARK   54  A    between atoms: C_59  and  C_60 
REMARK   55  A    between atoms: C_60  and  C_61 
REMARK   56  A    between atoms: C_61  and  C_62 
REMARK   57  A    between atoms: C_62  and  C_63 
REMARK   58  A    between atoms: C_63  and  C_64 
REMARK   59  A    between atoms: C_64  and  C_65 
REMARK   60  A    between atoms: C_65  and  C_66 
REMARK   61  A    between atoms: C_66  and  C_67 
REMARK   62  A    between atoms: C_67  and  C_68 
REMARK   63  A    between atoms: C_68  and  C_69 
REMARK   64  A    between atoms: C_69  and  C_70 
ROOT
HETATM    1 CL   UNL     2     -34.319  -5.947  -1.261  1.00  0.00     0.000 Cl
ENDROOT
TORSDOF 64
ENDMDL
MODEL 4
REMARK VINA RESULT:      -1.0     11.254     11.254
REMARK WARNING: 32 MAX_TORS EXCEEDED!!!
REMARK  64 active torsions:
REMARK  status: ('A' for Active; 'I' for Inactive)
REMARK    1  A    between atoms: C_2  and  C_3 
REMARK    2  A    between atoms: C_3  and  C_4 
REMARK    3  A    between atoms: C_4  and  C_5 
REMARK    4  A    between atoms: C_5  and  C_6 
REMARK    5  A    between atoms: C_6  and  C_7 
REMARK    6  A    between atoms: C_7  and  C_8 
REMARK    7  A    between atoms: C_8  and  C_9 
REMARK    8  A    between atoms: C_9  and  C_10 
REMARK    9  A    between atoms: C_10  and  C_11 
REMARK   10  A    between atoms: C_11  and  C_12 
REMARK   11  A    between atoms: C_12  and  C_13 
REMARK   12  A    between atoms: C_13  and  C_14 
REMARK   13  A    between atoms: C_14  and  C_15 
REMARK   14  A    between atoms: C_15  and  C_16 
REMARK   15  A    between atoms: C_16  and  C_17 
REMARK   16  A    between atoms: C_17  and  C_18 
REMARK   17  A    between atoms: C_18  and  C_19 
REMARK   18  A    between atoms: C_19  and  C_20 
REMARK   19  A    between atoms: C_19  and  N_35 
REMARK   20  A    between atoms: C_20  and  C_21 
REMARK   21  A    between atoms: C_21  and  C_22 
REMARK   22  A    between atoms: C_22  and  C_23 
REMARK   23  A    between atoms: C_23  and  C_24 
REMARK   24  A    between atoms: C_24  and  C_25 
REMARK   25  A    between atoms: C_25  and  C_26 
REMARK   26  A    between atoms: C_26  and  C_27 
REMARK   27  A    between atoms: C_27  and  C_28 
REMARK   28  A    between atoms: C_28  and  C_29 
REMARK   29  A    between atoms: C_29  and  C_30 
REMARK   30  A    between atoms: C_30  and  C_31 
REMARK   31  A    between atoms: C_31  and  C_32 
REMARK   32  A    between atoms: C_32  and  C_33 
REMARK   33  A    between atoms: N_35  and  C_38 
REMARK   34  A    between atoms: C_38  and  C_39 
REMARK   35  A    between atoms: C_38  and  C_54 
REMARK   36  A    between atoms: C_39  and  C_40 
REMARK   37  A    between atoms: C_40  and  C_41 
REMARK   38  A    between atoms: C_41  and  C_42 
REMARK   39  A    between atoms: C_42  and  C_43 
REMARK   40  A    between atoms: C_43  and  C_44 
REMARK   41  A    between atoms: C_44  and  C_45 
REMARK   42  A    between atoms: C_45  and  C_46 
REMARK   43  A    between atoms: C_46  and  C_47 
REMARK   44  A    between atoms: C_47  and  C_48 
REMARK   45  A    between atoms: C_48  and  C_49 
REMARK   46  A    between atoms: C_49  and  C_50 
REMARK   47  A    between atoms: C_50  and  C_51 
REMARK   48  A    between atoms: C_51  and  C_52 
REMARK   49  A    between atoms: C_54  and  C_55 
REMARK   50  A    between atoms: C_55  and  C_56 
REMARK   51  A    between atoms: C_56  and  C_57 
REMARK   52  A    between atoms: C_57  and  C_58 
REMARK   53  A    between atoms: C_58  and  C_59 
REMARK   54  A    between atoms: C_59  and  C_60 
REMARK   55  A    between atoms: C_60  and  C_61 
REMARK   56  A    between atoms: C_61  and  C_62 
REMARK   57  A    between atoms: C_62  and  C_63 
REMARK   58  A    between atoms: C_63  and  C_64 
REMARK   59  A    between atoms: C_64  and  C_65 
REMARK   60  A    between atoms: C_65  and  C_66 
REMARK   61  A    between atoms: C_66  and  C_67 
REMARK   62  A    between atoms: C_67  and  C_68 
REMARK   63  A    between atoms: C_68  and  C_69 
REMARK   64  A    between atoms: C_69  and  C_70 
ROOT
HETATM    1 CL   UNL     2     -29.817   7.421 -12.752  1.00  0.00     0.000 Cl
ENDROOT
TORSDOF 64
ENDMDL
MODEL 5
REMARK VINA RESULT:      -1.0      4.784      4.784
REMARK WARNING: 32 MAX_TORS EXCEEDED!!!
REMARK  64 active torsions:
REMARK  status: ('A' for Active; 'I' for Inactive)
REMARK    1  A    between atoms: C_2  and  C_3 
REMARK    2  A    between atoms: C_3  and  C_4 
REMARK    3  A    between atoms: C_4  and  C_5 
REMARK    4  A    between atoms: C_5  and  C_6 
REMARK    5  A    between atoms: C_6  and  C_7 
REMARK    6  A    between atoms: C_7  and  C_8 
REMARK    7  A    between atoms: C_8  and  C_9 
REMARK    8  A    between atoms: C_9  and  C_10 
REMARK    9  A    between atoms: C_10  and  C_11 
REMARK   10  A    between atoms: C_11  and  C_12 
REMARK   11  A    between atoms: C_12  and  C_13 
REMARK   12  A    between atoms: C_13  and  C_14 
REMARK   13  A    between atoms: C_14  and  C_15 
REMARK   14  A    between atoms: C_15  and  C_16 
REMARK   15  A    between atoms: C_16  and  C_17 
REMARK   16  A    between atoms: C_17  and  C_18 
REMARK   17  A    between atoms: C_18  and  C_19 
REMARK   18  A    between atoms: C_19  and  C_20 
REMARK   19  A    between atoms: C_19  and  N_35 
REMARK   20  A    between atoms: C_20  and  C_21 
REMARK   21  A    between atoms: C_21  and  C_22 
REMARK   22  A    between atoms: C_22  and  C_23 
REMARK   23  A    between atoms: C_23  and  C_24 
REMARK   24  A    between atoms: C_24  and  C_25 
REMARK   25  A    between atoms: C_25  and  C_26 
REMARK   26  A    between atoms: C_26  and  C_27 
REMARK   27  A    between atoms: C_27  and  C_28 
REMARK   28  A    between atoms: C_28  and  C_29 
REMARK   29  A    between atoms: C_29  and  C_30 
REMARK   30  A    between atoms: C_30  and  C_31 
REMARK   31  A    between atoms: C_31  and  C_32 
REMARK   32  A    between atoms: C_32  and  C_33 
REMARK   33  A    between atoms: N_35  and  C_38 
REMARK   34  A    between atoms: C_38  and  C_39 
REMARK   35  A    between atoms: C_38  and  C_54 
REMARK   36  A    between atoms: C_39  and  C_40 
REMARK   37  A    between atoms: C_40  and  C_41 
REMARK   38  A    between atoms: C_41  and  C_42 
REMARK   39  A    between atoms: C_42  and  C_43 
REMARK   40  A    between atoms: C_43  and  C_44 
REMARK   41  A    between atoms: C_44  and  C_45 
REMARK   42  A    between atoms: C_45  and  C_46 
REMARK   43  A    between atoms: C_46  and  C_47 
REMARK   44  A    between atoms: C_47  and  C_48 
REMARK   45  A    between atoms: C_48  and  C_49 
REMARK   46  A    between atoms: C_49  and  C_50 
REMARK   47  A    between atoms: C_50  and  C_51 
REMARK   48  A    between atoms: C_51  and  C_52 
REMARK   49  A    between atoms: C_54  and  C_55 
REMARK   50  A    between atoms: C_55  and  C_56 
REMARK   51  A    between atoms: C_56  and  C_57 
REMARK   52  A    between atoms: C_57  and  C_58 
REMARK   53  A    between atoms: C_58  and  C_59 
REMARK   54  A    between atoms: C_59  and  C_60 
REMARK   55  A    between atoms: C_60  and  C_61 
REMARK   56  A    between atoms: C_61  and  C_62 
REMARK   57  A    between atoms: C_62  and  C_63 
REMARK   58  A    between atoms: C_63  and  C_64 
REMARK   59  A    between atoms: C_64  and  C_65 
REMARK   60  A    between atoms: C_65  and  C_66 
REMARK   61  A    between atoms: C_66  and  C_67 
REMARK   62  A    between atoms: C_67  and  C_68 
REMARK   63  A    between atoms: C_68  and  C_69 
REMARK   64  A    between atoms: C_69  and  C_70 
ROOT
HETATM    1 CL   UNL     2     -34.916  -7.335  -9.730  1.00  0.00     0.000 Cl
ENDROOT
TORSDOF 64
ENDMDL
MODEL 6
REMARK VINA RESULT:      -1.0     14.602     14.602
REMARK WARNING: 32 MAX_TORS EXCEEDED!!!
REMARK  64 active torsions:
REMARK  status: ('A' for Active; 'I' for Inactive)
REMARK    1  A    between atoms: C_2  and  C_3 
REMARK    2  A    between atoms: C_3  and  C_4 
REMARK    3  A    between atoms: C_4  and  C_5 
REMARK    4  A    between atoms: C_5  and  C_6 
REMARK    5  A    between atoms: C_6  and  C_7 
REMARK    6  A    between atoms: C_7  and  C_8 
REMARK    7  A    between atoms: C_8  and  C_9 
REMARK    8  A    between atoms: C_9  and  C_10 
REMARK    9  A    between atoms: C_10  and  C_11 
REMARK   10  A    between atoms: C_11  and  C_12 
REMARK   11  A    between atoms: C_12  and  C_13 
REMARK   12  A    between atoms: C_13  and  C_14 
REMARK   13  A    between atoms: C_14  and  C_15 
REMARK   14  A    between atoms: C_15  and  C_16 
REMARK   15  A    between atoms: C_16  and  C_17 
REMARK   16  A    between atoms: C_17  and  C_18 
REMARK   17  A    between atoms: C_18  and  C_19 
REMARK   18  A    between atoms: C_19  and  C_20 
REMARK   19  A    between atoms: C_19  and  N_35 
REMARK   20  A    between atoms: C_20  and  C_21 
REMARK   21  A    between atoms: C_21  and  C_22 
REMARK   22  A    between atoms: C_22  and  C_23 
REMARK   23  A    between atoms: C_23  and  C_24 
REMARK   24  A    between atoms: C_24  and  C_25 
REMARK   25  A    between atoms: C_25  and  C_26 
REMARK   26  A    between atoms: C_26  and  C_27 
REMARK   27  A    between atoms: C_27  and  C_28 
REMARK   28  A    between atoms: C_28  and  C_29 
REMARK   29  A    between atoms: C_29  and  C_30 
REMARK   30  A    between atoms: C_30  and  C_31 
REMARK   31  A    between atoms: C_31  and  C_32 
REMARK   32  A    between atoms: C_32  and  C_33 
REMARK   33  A    between atoms: N_35  and  C_38 
REMARK   34  A    between atoms: C_38  and  C_39 
REMARK   35  A    between atoms: C_38  and  C_54 
REMARK   36  A    between atoms: C_39  and  C_40 
REMARK   37  A    between atoms: C_40  and  C_41 
REMARK   38  A    between atoms: C_41  and  C_42 
REMARK   39  A    between atoms: C_42  and  C_43 
REMARK   40  A    between atoms: C_43  and  C_44 
REMARK   41  A    between atoms: C_44  and  C_45 
REMARK   42  A    between atoms: C_45  and  C_46 
REMARK   43  A    between atoms: C_46  and  C_47 
REMARK   44  A    between atoms: C_47  and  C_48 
REMARK   45  A    between atoms: C_48  and  C_49 
REMARK   46  A    between atoms: C_49  and  C_50 
REMARK   47  A    between atoms: C_50  and  C_51 
REMARK   48  A    between atoms: C_51  and  C_52 
REMARK   49  A    between atoms: C_54  and  C_55 
REMARK   50  A    between atoms: C_55  and  C_56 
REMARK   51  A    between atoms: C_56  and  C_57 
REMARK   52  A    between atoms: C_57  and  C_58 
REMARK   53  A    between atoms: C_58  and  C_59 
REMARK   54  A    between atoms: C_59  and  C_60 
REMARK   55  A    between atoms: C_60  and  C_61 
REMARK   56  A    between atoms: C_61  and  C_62 
REMARK   57  A    between atoms: C_62  and  C_63 
REMARK   58  A    between atoms: C_63  and  C_64 
REMARK   59  A    between atoms: C_64  and  C_65 
REMARK   60  A    between atoms: C_65  and  C_66 
REMARK   61  A    between atoms: C_66  and  C_67 
REMARK   62  A    between atoms: C_67  and  C_68 
REMARK   63  A    between atoms: C_68  and  C_69 
REMARK   64  A    between atoms: C_69  and  C_70 
ROOT
HETATM    1 CL   UNL     2     -22.240  -6.151  -1.885  1.00  0.00     0.000 Cl
ENDROOT
TORSDOF 64
ENDMDL
MODEL 7
REMARK VINA RESULT:      -0.9      1.520      1.520
REMARK WARNING: 32 MAX_TORS EXCEEDED!!!
REMARK  64 active torsions:
REMARK  status: ('A' for Active; 'I' for Inactive)
REMARK    1  A    between atoms: C_2  and  C_3 
REMARK    2  A    between atoms: C_3  and  C_4 
REMARK    3  A    between atoms: C_4  and  C_5 
REMARK    4  A    between atoms: C_5  and  C_6 
REMARK    5  A    between atoms: C_6  and  C_7 
REMARK    6  A    between atoms: C_7  and  C_8 
REMARK    7  A    between atoms: C_8  and  C_9 
REMARK    8  A    between atoms: C_9  and  C_10 
REMARK    9  A    between atoms: C_10  and  C_11 
REMARK   10  A    between atoms: C_11  and  C_12 
REMARK   11  A    between atoms: C_12  and  C_13 
REMARK   12  A    between atoms: C_13  and  C_14 
REMARK   13  A    between atoms: C_14  and  C_15 
REMARK   14  A    between atoms: C_15  and  C_16 
REMARK   15  A    between atoms: C_16  and  C_17 
REMARK   16  A    between atoms: C_17  and  C_18 
REMARK   17  A    between atoms: C_18  and  C_19 
REMARK   18  A    between atoms: C_19  and  C_20 
REMARK   19  A    between atoms: C_19  and  N_35 
REMARK   20  A    between atoms: C_20  and  C_21 
REMARK   21  A    between atoms: C_21  and  C_22 
REMARK   22  A    between atoms: C_22  and  C_23 
REMARK   23  A    between atoms: C_23  and  C_24 
REMARK   24  A    between atoms: C_24  and  C_25 
REMARK   25  A    between atoms: C_25  and  C_26 
REMARK   26  A    between atoms: C_26  and  C_27 
REMARK   27  A    between atoms: C_27  and  C_28 
REMARK   28  A    between atoms: C_28  and  C_29 
REMARK   29  A    between atoms: C_29  and  C_30 
REMARK   30  A    between atoms: C_30  and  C_31 
REMARK   31  A    between atoms: C_31  and  C_32 
REMARK   32  A    between atoms: C_32  and  C_33 
REMARK   33  A    between atoms: N_35  and  C_38 
REMARK   34  A    between atoms: C_38  and  C_39 
REMARK   35  A    between atoms: C_38  and  C_54 
REMARK   36  A    between atoms: C_39  and  C_40 
REMARK   37  A    between atoms: C_40  and  C_41 
REMARK   38  A    between atoms: C_41  and  C_42 
REMARK   39  A    between atoms: C_42  and  C_43 
REMARK   40  A    between atoms: C_43  and  C_44 
REMARK   41  A    between atoms: C_44  and  C_45 
REMARK   42  A    between atoms: C_45  and  C_46 
REMARK   43  A    between atoms: C_46  and  C_47 
REMARK   44  A    between atoms: C_47  and  C_48 
REMARK   45  A    between atoms: C_48  and  C_49 
REMARK   46  A    between atoms: C_49  and  C_50 
REMARK   47  A    between atoms: C_50  and  C_51 
REMARK   48  A    between atoms: C_51  and  C_52 
REMARK   49  A    between atoms: C_54  and  C_55 
REMARK   50  A    between atoms: C_55  and  C_56 
REMARK   51  A    between atoms: C_56  and  C_57 
REMARK   52  A    between atoms: C_57  and  C_58 
REMARK   53  A    between atoms: C_58  and  C_59 
REMARK   54  A    between atoms: C_59  and  C_60 
REMARK   55  A    between atoms: C_60  and  C_61 
REMARK   56  A    between atoms: C_61  and  C_62 
REMARK   57  A    between atoms: C_62  and  C_63 
REMARK   58  A    between atoms: C_63  and  C_64 
REMARK   59  A    between atoms: C_64  and  C_65 
REMARK   60  A    between atoms: C_65  and  C_66 
REMARK   61  A    between atoms: C_66  and  C_67 
REMARK   62  A    between atoms: C_67  and  C_68 
REMARK   63  A    between atoms: C_68  and  C_69 
REMARK   64  A    between atoms: C_69  and  C_70 
ROOT
HETATM    1 CL   UNL     2     -33.822  -4.177 -10.505  1.00  0.00     0.000 Cl
ENDROOT
TORSDOF 64
ENDMDL
MODEL 8
REMARK VINA RESULT:      -0.9     12.032     12.032
REMARK WARNING: 32 MAX_TORS EXCEEDED!!!
REMARK  64 active torsions:
REMARK  status: ('A' for Active; 'I' for Inactive)
REMARK    1  A    between atoms: C_2  and  C_3 
REMARK    2  A    between atoms: C_3  and  C_4 
REMARK    3  A    between atoms: C_4  and  C_5 
REMARK    4  A    between atoms: C_5  and  C_6 
REMARK    5  A    between atoms: C_6  and  C_7 
REMARK    6  A    between atoms: C_7  and  C_8 
REMARK    7  A    between atoms: C_8  and  C_9 
REMARK    8  A    between atoms: C_9  and  C_10 
REMARK    9  A    between atoms: C_10  and  C_11 
REMARK   10  A    between atoms: C_11  and  C_12 
REMARK   11  A    between atoms: C_12  and  C_13 
REMARK   12  A    between atoms: C_13  and  C_14 
REMARK   13  A    between atoms: C_14  and  C_15 
REMARK   14  A    between atoms: C_15  and  C_16 
REMARK   15  A    between atoms: C_16  and  C_17 
REMARK   16  A    between atoms: C_17  and  C_18 
REMARK   17  A    between atoms: C_18  and  C_19 
REMARK   18  A    between atoms: C_19  and  C_20 
REMARK   19  A    between atoms: C_19  and  N_35 
REMARK   20  A    between atoms: C_20  and  C_21 
REMARK   21  A    between atoms: C_21  and  C_22 
REMARK   22  A    between atoms: C_22  and  C_23 
REMARK   23  A    between atoms: C_23  and  C_24 
REMARK   24  A    between atoms: C_24  and  C_25 
REMARK   25  A    between atoms: C_25  and  C_26 
REMARK   26  A    between atoms: C_26  and  C_27 
REMARK   27  A    between atoms: C_27  and  C_28 
REMARK   28  A    between atoms: C_28  and  C_29 
REMARK   29  A    between atoms: C_29  and  C_30 
REMARK   30  A    between atoms: C_30  and  C_31 
REMARK   31  A    between atoms: C_31  and  C_32 
REMARK   32  A    between atoms: C_32  and  C_33 
REMARK   33  A    between atoms: N_35  and  C_38 
REMARK   34  A    between atoms: C_38  and  C_39 
REMARK   35  A    between atoms: C_38  and  C_54 
REMARK   36  A    between atoms: C_39  and  C_40 
REMARK   37  A    between atoms: C_40  and  C_41 
REMARK   38  A    between atoms: C_41  and  C_42 
REMARK   39  A    between atoms: C_42  and  C_43 
REMARK   40  A    between atoms: C_43  and  C_44 
REMARK   41  A    between atoms: C_44  and  C_45 
REMARK   42  A    between atoms: C_45  and  C_46 
REMARK   43  A    between atoms: C_46  and  C_47 
REMARK   44  A    between atoms: C_47  and  C_48 
REMARK   45  A    between atoms: C_48  and  C_49 
REMARK   46  A    between atoms: C_49  and  C_50 
REMARK   47  A    between atoms: C_50  and  C_51 
REMARK   48  A    between atoms: C_51  and  C_52 
REMARK   49  A    between atoms: C_54  and  C_55 
REMARK   50  A    between atoms: C_55  and  C_56 
REMARK   51  A    between atoms: C_56  and  C_57 
REMARK   52  A    between atoms: C_57  and  C_58 
REMARK   53  A    between atoms: C_58  and  C_59 
REMARK   54  A    between atoms: C_59  and  C_60 
REMARK   55  A    between atoms: C_60  and  C_61 
REMARK   56  A    between atoms: C_61  and  C_62 
REMARK   57  A    between atoms: C_62  and  C_63 
REMARK   58  A    between atoms: C_63  and  C_64 
REMARK   59  A    between atoms: C_64  and  C_65 
REMARK   60  A    between atoms: C_65  and  C_66 
REMARK   61  A    between atoms: C_66  and  C_67 
REMARK   62  A    between atoms: C_67  and  C_68 
REMARK   63  A    between atoms: C_68  and  C_69 
REMARK   64  A    between atoms: C_69  and  C_70 
ROOT
HETATM    1 CL   UNL     2     -27.117   7.219 -11.166  1.00  0.00     0.000 Cl
ENDROOT
TORSDOF 64
ENDMDL
MODEL 9
REMARK VINA RESULT:      -0.9     16.134     16.134
REMARK WARNING: 32 MAX_TORS EXCEEDED!!!
REMARK  64 active torsions:
REMARK  status: ('A' for Active; 'I' for Inactive)
REMARK    1  A    between atoms: C_2  and  C_3 
REMARK    2  A    between atoms: C_3  and  C_4 
REMARK    3  A    between atoms: C_4  and  C_5 
REMARK    4  A    between atoms: C_5  and  C_6 
REMARK    5  A    between atoms: C_6  and  C_7 
REMARK    6  A    between atoms: C_7  and  C_8 
REMARK    7  A    between atoms: C_8  and  C_9 
REMARK    8  A    between atoms: C_9  and  C_10 
REMARK    9  A    between atoms: C_10  and  C_11 
REMARK   10  A    between atoms: C_11  and  C_12 
REMARK   11  A    between atoms: C_12  and  C_13 
REMARK   12  A    between atoms: C_13  and  C_14 
REMARK   13  A    between atoms: C_14  and  C_15 
REMARK   14  A    between atoms: C_15  and  C_16 
REMARK   15  A    between atoms: C_16  and  C_17 
REMARK   16  A    between atoms: C_17  and  C_18 
REMARK   17  A    between atoms: C_18  and  C_19 
REMARK   18  A    between atoms: C_19  and  C_20 
REMARK   19  A    between atoms: C_19  and  N_35 
REMARK   20  A    between atoms: C_20  and  C_21 
REMARK   21  A    between atoms: C_21  and  C_22 
REMARK   22  A    between atoms: C_22  and  C_23 
REMARK   23  A    between atoms: C_23  and  C_24 
REMARK   24  A    between atoms: C_24  and  C_25 
REMARK   25  A    between atoms: C_25  and  C_26 
REMARK   26  A    between atoms: C_26  and  C_27 
REMARK   27  A    between atoms: C_27  and  C_28 
REMARK   28  A    between atoms: C_28  and  C_29 
REMARK   29  A    between atoms: C_29  and  C_30 
REMARK   30  A    between atoms: C_30  and  C_31 
REMARK   31  A    between atoms: C_31  and  C_32 
REMARK   32  A    between atoms: C_32  and  C_33 
REMARK   33  A    between atoms: N_35  and  C_38 
REMARK   34  A    between atoms: C_38  and  C_39 
REMARK   35  A    between atoms: C_38  and  C_54 
REMARK   36  A    between atoms: C_39  and  C_40 
REMARK   37  A    between atoms: C_40  and  C_41 
REMARK   38  A    between atoms: C_41  and  C_42 
REMARK   39  A    between atoms: C_42  and  C_43 
REMARK   40  A    between atoms: C_43  and  C_44 
REMARK   41  A    between atoms: C_44  and  C_45 
REMARK   42  A    between atoms: C_45  and  C_46 
REMARK   43  A    between atoms: C_46  and  C_47 
REMARK   44  A    between atoms: C_47  and  C_48 
REMARK   45  A    between atoms: C_48  and  C_49 
REMARK   46  A    between atoms: C_49  and  C_50 
REMARK   47  A    between atoms: C_50  and  C_51 
REMARK   48  A    between atoms: C_51  and  C_52 
REMARK   49  A    between atoms: C_54  and  C_55 
REMARK   50  A    between atoms: C_55  and  C_56 
REMARK   51  A    between atoms: C_56  and  C_57 
REMARK   52  A    between atoms: C_57  and  C_58 
REMARK   53  A    between atoms: C_58  and  C_59 
REMARK   54  A    between atoms: C_59  and  C_60 
REMARK   55  A    between atoms: C_60  and  C_61 
REMARK   56  A    between atoms: C_61  and  C_62 
REMARK   57  A    between atoms: C_62  and  C_63 
REMARK   58  A    between atoms: C_63  and  C_64 
REMARK   59  A    between atoms: C_64  and  C_65 
REMARK   60  A    between atoms: C_65  and  C_66 
REMARK   61  A    between atoms: C_66  and  C_67 
REMARK   62  A    between atoms: C_67  and  C_68 
REMARK   63  A    between atoms: C_68  and  C_69 
REMARK   64  A    between atoms: C_69  and  C_70 
ROOT
HETATM    1 CL   UNL     2     -23.252  -8.078   0.584  1.00  0.00     0.000 Cl
ENDROOT
TORSDOF 64
ENDMDL
