MODEL 1
REMARK VINA RESULT:      -5.5      0.000      0.000
REMARK  6 active torsions:
REMARK  status: ('A' for Active; 'I' for Inactive)
REMARK       I    between atoms: C_2  and  N_4 
REMARK    1  A    between atoms: N_4  and  CA_5 
REMARK    2  A    between atoms: CA_5  and  CB_6 
REMARK    3  A    between atoms: CA_5  and  C_10 
REMARK    4  A    between atoms: CB_6  and  CG_7 
REMARK    5  A    between atoms: CG_7  and  SD_8 
REMARK    6  A    between atoms: C_10  and  OXT_12 
ROOT
ATOM      1  CA  MET A   1     -22.894  -3.329 -12.353  1.00  0.00     0.183 C 
ENDROOT
BRANCH   1   2
ATOM      2  N   MET A   1     -23.419  -2.195 -13.112  1.00  0.00    -0.347 N 
HETATM    3  C   UNK A   0     -23.280  -2.104 -14.473  1.00  0.00     0.214 C 
HETATM    4  C   UNK A   0     -23.913  -0.878 -15.067  1.00  0.00     0.117 C 
HETATM    5  O   UNK A   0     -22.710  -2.954 -15.150  1.00  0.00    -0.274 OA
ATOM      6  H   MET A   1     -23.945  -1.493 -12.597  1.00  0.00     0.163 HD
ENDBRANCH   1   2
BRANCH   1   7
ATOM      7  CB  MET A   1     -21.724  -2.880 -11.468  1.00  0.00     0.046 C 
BRANCH   7   8
ATOM      8  CG  MET A   1     -20.638  -3.934 -11.240  1.00  0.00     0.076 C 
BRANCH   8   9
ATOM      9  SD  MET A   1     -20.359  -4.347  -9.487  1.00  0.00    -0.173 SA
ATOM     10  CE  MET A   1     -21.900  -3.692  -8.783  1.00  0.00     0.089 C 
ENDBRANCH   8   9
ENDBRANCH   7   8
ENDBRANCH   1   7
BRANCH   1  11
ATOM     11  C   MET A   1     -24.038  -3.886 -11.504  1.00  0.00     0.163 C 
ATOM     12  O   MET A   1     -24.992  -3.212 -11.128  1.00  0.00    -0.648 OA
BRANCH  11  13
ATOM     13  OXT MET A   1     -23.898  -5.189 -11.170  1.00  0.00    -0.775 OA
ATOM     14  HXT MET A   1     -24.316  -5.817 -11.797  1.00  0.00     0.167 HD
ENDBRANCH  11  13
ENDBRANCH   1  11
TORSDOF 6
ENDMDL
MODEL 2
REMARK VINA RESULT:      -5.3      1.728      2.021
REMARK  6 active torsions:
REMARK  status: ('A' for Active; 'I' for Inactive)
REMARK       I    between atoms: C_2  and  N_4 
REMARK    1  A    between atoms: N_4  and  CA_5 
REMARK    2  A    between atoms: CA_5  and  CB_6 
REMARK    3  A    between atoms: CA_5  and  C_10 
REMARK    4  A    between atoms: CB_6  and  CG_7 
REMARK    5  A    between atoms: CG_7  and  SD_8 
REMARK    6  A    between atoms: C_10  and  OXT_12 
ROOT
ATOM      1  CA  MET A   1     -23.864  -4.211 -10.777  1.00  0.00     0.183 C 
ENDROOT
BRANCH   1   2
ATOM      2  N   MET A   1     -23.517  -3.159 -11.730  1.00  0.00    -0.347 N 
HETATM    3  C   UNK A   0     -23.864  -3.234 -13.055  1.00  0.00     0.214 C 
HETATM    4  C   UNK A   0     -23.439  -2.040 -13.863  1.00  0.00     0.117 C 
HETATM    5  O   UNK A   0     -24.482  -4.178 -13.536  1.00  0.00    -0.274 OA
ATOM      6  H   MET A   1     -23.050  -2.333 -11.364  1.00  0.00     0.163 HD
ENDBRANCH   1   2
BRANCH   1   7
ATOM      7  CB  MET A   1     -22.594  -4.815 -10.165  1.00  0.00     0.046 C 
BRANCH   7   8
ATOM      8  CG  MET A   1     -21.342  -3.940 -10.267  1.00  0.00     0.076 C 
BRANCH   8   9
ATOM      9  SD  MET A   1     -20.166  -4.160  -8.892  1.00  0.00    -0.173 SA
ATOM     10  CE  MET A   1     -21.130  -5.305  -7.863  1.00  0.00     0.089 C 
ENDBRANCH   8   9
ENDBRANCH   7   8
ENDBRANCH   1   7
BRANCH   1  11
ATOM     11  C   MET A   1     -24.745  -3.582  -9.696  1.00  0.00     0.163 C 
ATOM     12  O   MET A   1     -25.834  -3.066  -9.926  1.00  0.00    -0.648 OA
BRANCH  11  13
ATOM     13  OXT MET A   1     -24.207  -3.612  -8.456  1.00  0.00    -0.775 OA
ATOM     14  HXT MET A   1     -24.709  -3.107  -7.782  1.00  0.00     0.167 HD
ENDBRANCH  11  13
ENDBRANCH   1  11
TORSDOF 6
ENDMDL
MODEL 3
REMARK VINA RESULT:      -5.3      3.070      5.413
REMARK  6 active torsions:
REMARK  status: ('A' for Active; 'I' for Inactive)
REMARK       I    between atoms: C_2  and  N_4 
REMARK    1  A    between atoms: N_4  and  CA_5 
REMARK    2  A    between atoms: CA_5  and  CB_6 
REMARK    3  A    between atoms: CA_5  and  C_10 
REMARK    4  A    between atoms: CB_6  and  CG_7 
REMARK    5  A    between atoms: CG_7  and  SD_8 
REMARK    6  A    between atoms: C_10  and  OXT_12 
ROOT
ATOM      1  CA  MET A   1     -22.301  -3.966  -9.673  1.00  0.00     0.183 C 
ENDROOT
BRANCH   1   2
ATOM      2  N   MET A   1     -21.461  -4.841  -8.857  1.00  0.00    -0.347 N 
HETATM    3  C   UNK A   0     -21.008  -4.467  -7.618  1.00  0.00     0.214 C 
HETATM    4  C   UNK A   0     -20.182  -5.517  -6.931  1.00  0.00     0.117 C 
HETATM    5  O   UNK A   0     -21.267  -3.383  -7.106  1.00  0.00    -0.274 OA
ATOM      6  H   MET A   1     -21.265  -5.770  -9.221  1.00  0.00     0.163 HD
ENDBRANCH   1   2
BRANCH   1   7
ATOM      7  CB  MET A   1     -22.004  -4.179 -11.162  1.00  0.00     0.046 C 
BRANCH   7   8
ATOM      8  CG  MET A   1     -22.144  -2.933 -12.039  1.00  0.00     0.076 C 
BRANCH   8   9
ATOM      9  SD  MET A   1     -23.677  -2.886 -13.025  1.00  0.00    -0.173 SA
ATOM     10  CE  MET A   1     -22.961  -2.575 -14.665  1.00  0.00     0.089 C 
ENDBRANCH   8   9
ENDBRANCH   7   8
ENDBRANCH   1   7
BRANCH   1  11
ATOM     11  C   MET A   1     -23.760  -4.299  -9.354  1.00  0.00     0.163 C 
ATOM     12  O   MET A   1     -24.500  -4.904 -10.122  1.00  0.00    -0.648 OA
BRANCH  11  13
ATOM     13  OXT MET A   1     -24.184  -3.840  -8.154  1.00  0.00    -0.775 OA
ATOM     14  HXT MET A   1     -24.987  -3.278  -8.194  1.00  0.00     0.167 HD
ENDBRANCH  11  13
ENDBRANCH   1  11
TORSDOF 6
ENDMDL
MODEL 4
REMARK VINA RESULT:      -4.9      2.704      4.448
REMARK  6 active torsions:
REMARK  status: ('A' for Active; 'I' for Inactive)
REMARK       I    between atoms: C_2  and  N_4 
REMARK    1  A    between atoms: N_4  and  CA_5 
REMARK    2  A    between atoms: CA_5  and  CB_6 
REMARK    3  A    between atoms: CA_5  and  C_10 
REMARK    4  A    between atoms: CB_6  and  CG_7 
REMARK    5  A    between atoms: CG_7  and  SD_8 
REMARK    6  A    between atoms: C_10  and  OXT_12 
ROOT
ATOM      1  CA  MET A   1     -23.346  -3.861 -10.721  1.00  0.00     0.183 C 
ENDROOT
BRANCH   1   2
ATOM      2  N   MET A   1     -22.289  -4.345  -9.834  1.00  0.00    -0.347 N 
HETATM    3  C   UNK A   0     -20.963  -4.092 -10.078  1.00  0.00     0.214 C 
HETATM    4  C   UNK A   0     -20.037  -4.652  -9.036  1.00  0.00     0.117 C 
HETATM    5  O   UNK A   0     -20.567  -3.451 -11.046  1.00  0.00    -0.274 OA
ATOM      6  H   MET A   1     -22.576  -4.836  -8.992  1.00  0.00     0.163 HD
ENDBRANCH   1   2
BRANCH   1   7
ATOM      7  CB  MET A   1     -23.548  -4.834 -11.889  1.00  0.00     0.046 C 
BRANCH   7   8
ATOM      8  CG  MET A   1     -23.768  -4.177 -13.253  1.00  0.00     0.076 C 
BRANCH   8   9
ATOM      9  SD  MET A   1     -23.465  -2.379 -13.272  1.00  0.00    -0.173 SA
ATOM     10  CE  MET A   1     -23.021  -2.176 -15.021  1.00  0.00     0.089 C 
ENDBRANCH   8   9
ENDBRANCH   7   8
ENDBRANCH   1   7
BRANCH   1  11
ATOM     11  C   MET A   1     -24.623  -3.733  -9.889  1.00  0.00     0.163 C 
ATOM     12  O   MET A   1     -25.135  -2.658  -9.594  1.00  0.00    -0.648 OA
BRANCH  11  13
ATOM     13  OXT MET A   1     -25.134  -4.914  -9.472  1.00  0.00    -0.775 OA
ATOM     14  HXT MET A   1     -25.755  -5.335 -10.103  1.00  0.00     0.167 HD
ENDBRANCH  11  13
ENDBRANCH   1  11
TORSDOF 6
ENDMDL
MODEL 5
REMARK VINA RESULT:      -4.6      3.966      6.528
REMARK  6 active torsions:
REMARK  status: ('A' for Active; 'I' for Inactive)
REMARK       I    between atoms: C_2  and  N_4 
REMARK    1  A    between atoms: N_4  and  CA_5 
REMARK    2  A    between atoms: CA_5  and  CB_6 
REMARK    3  A    between atoms: CA_5  and  C_10 
REMARK    4  A    between atoms: CB_6  and  CG_7 
REMARK    5  A    between atoms: CG_7  and  SD_8 
REMARK    6  A    between atoms: C_10  and  OXT_12 
ROOT
ATOM      1  CA  MET A   1     -21.652  -4.933  -8.380  1.00  0.00     0.183 C 
ENDROOT
BRANCH   1   2
ATOM      2  N   MET A   1     -21.593  -4.939  -6.919  1.00  0.00    -0.347 N 
HETATM    3  C   UNK A   0     -21.235  -6.058  -6.211  1.00  0.00     0.214 C 
HETATM    4  C   UNK A   0     -21.209  -5.850  -4.723  1.00  0.00     0.117 C 
HETATM    5  O   UNK A   0     -20.943  -7.125  -6.740  1.00  0.00    -0.274 OA
ATOM      6  H   MET A   1     -21.776  -4.061  -6.442  1.00  0.00     0.163 HD
ENDBRANCH   1   2
BRANCH   1   7
ATOM      7  CB  MET A   1     -22.800  -4.038  -8.862  1.00  0.00     0.046 C 
BRANCH   7   8
ATOM      8  CG  MET A   1     -23.588  -4.577 -10.058  1.00  0.00     0.076 C 
BRANCH   8   9
ATOM      9  SD  MET A   1     -24.075  -3.300 -11.266  1.00  0.00    -0.173 SA
ATOM     10  CE  MET A   1     -22.432  -2.861 -11.904  1.00  0.00     0.089 C 
ENDBRANCH   8   9
ENDBRANCH   7   8
ENDBRANCH   1   7
BRANCH   1  11
ATOM     11  C   MET A   1     -20.306  -4.420  -8.894  1.00  0.00     0.163 C 
ATOM     12  O   MET A   1     -19.561  -3.698  -8.238  1.00  0.00    -0.648 OA
BRANCH  11  13
ATOM     13  OXT MET A   1     -20.011  -4.804 -10.157  1.00  0.00    -0.775 OA
ATOM     14  HXT MET A   1     -19.452  -5.607 -10.218  1.00  0.00     0.167 HD
ENDBRANCH  11  13
ENDBRANCH   1  11
TORSDOF 6
ENDMDL
MODEL 6
REMARK VINA RESULT:      -4.6      2.846      4.615
REMARK  6 active torsions:
REMARK  status: ('A' for Active; 'I' for Inactive)
REMARK       I    between atoms: C_2  and  N_4 
REMARK    1  A    between atoms: N_4  and  CA_5 
REMARK    2  A    between atoms: CA_5  and  CB_6 
REMARK    3  A    between atoms: CA_5  and  C_10 
REMARK    4  A    between atoms: CB_6  and  CG_7 
REMARK    5  A    between atoms: CG_7  and  SD_8 
REMARK    6  A    between atoms: C_10  and  OXT_12 
ROOT
ATOM      1  CA  MET A   1     -23.549  -3.745 -10.092  1.00  0.00     0.183 C 
ENDROOT
BRANCH   1   2
ATOM      2  N   MET A   1     -23.717  -4.436  -8.815  1.00  0.00    -0.347 N 
HETATM    3  C   UNK A   0     -22.844  -4.258  -7.772  1.00  0.00     0.214 C 
HETATM    4  C   UNK A   0     -23.207  -5.036  -6.538  1.00  0.00     0.117 C 
HETATM    5  O   UNK A   0     -21.868  -3.518  -7.830  1.00  0.00    -0.274 OA
ATOM      6  H   MET A   1     -24.542  -5.019  -8.706  1.00  0.00     0.163 HD
ENDBRANCH   1   2
BRANCH   1   7
ATOM      7  CB  MET A   1     -22.908  -4.682 -11.123  1.00  0.00     0.046 C 
BRANCH   7   8
ATOM      8  CG  MET A   1     -21.871  -4.030 -12.040  1.00  0.00     0.076 C 
BRANCH   8   9
ATOM      9  SD  MET A   1     -20.436  -3.328 -11.161  1.00  0.00    -0.173 SA
ATOM     10  CE  MET A   1     -19.870  -4.818 -10.290  1.00  0.00     0.089 C 
ENDBRANCH   8   9
ENDBRANCH   7   8
ENDBRANCH   1   7
BRANCH   1  11
ATOM     11  C   MET A   1     -24.934  -3.289 -10.556  1.00  0.00     0.163 C 
ATOM     12  O   MET A   1     -25.203  -3.018 -11.721  1.00  0.00    -0.648 OA
BRANCH  11  13
ATOM     13  OXT MET A   1     -25.842  -3.177  -9.560  1.00  0.00    -0.775 OA
ATOM     14  HXT MET A   1     -26.765  -3.042  -9.864  1.00  0.00     0.167 HD
ENDBRANCH  11  13
ENDBRANCH   1  11
TORSDOF 6
ENDMDL
MODEL 7
REMARK VINA RESULT:      -4.5     15.784     17.054
REMARK  6 active torsions:
REMARK  status: ('A' for Active; 'I' for Inactive)
REMARK       I    between atoms: C_2  and  N_4 
REMARK    1  A    between atoms: N_4  and  CA_5 
REMARK    2  A    between atoms: CA_5  and  CB_6 
REMARK    3  A    between atoms: CA_5  and  C_10 
REMARK    4  A    between atoms: CB_6  and  CG_7 
REMARK    5  A    between atoms: CG_7  and  SD_8 
REMARK    6  A    between atoms: C_10  and  OXT_12 
ROOT
ATOM      1  CA  MET A   1     -11.126   5.824 -20.012  1.00  0.00     0.183 C 
ENDROOT
BRANCH   1   2
ATOM      2  N   MET A   1     -11.403   7.089 -20.691  1.00  0.00    -0.347 N 
HETATM    3  C   UNK A   0     -12.378   7.949 -20.256  1.00  0.00     0.214 C 
HETATM    4  C   UNK A   0     -12.488   9.206 -21.072  1.00  0.00     0.117 C 
HETATM    5  O   UNK A   0     -13.085   7.727 -19.278  1.00  0.00    -0.274 OA
ATOM      6  H   MET A   1     -10.806   7.338 -21.475  1.00  0.00     0.163 HD
ENDBRANCH   1   2
BRANCH   1   7
ATOM      7  CB  MET A   1     -11.201   4.659 -21.007  1.00  0.00     0.046 C 
BRANCH   7   8
ATOM      8  CG  MET A   1     -11.912   3.407 -20.490  1.00  0.00     0.076 C 
BRANCH   8   9
ATOM      9  SD  MET A   1     -13.344   2.895 -21.497  1.00  0.00    -0.173 SA
ATOM     10  CE  MET A   1     -14.190   4.496 -21.637  1.00  0.00     0.089 C 
ENDBRANCH   8   9
ENDBRANCH   7   8
ENDBRANCH   1   7
BRANCH   1  11
ATOM     11  C   MET A   1      -9.729   5.928 -19.397  1.00  0.00     0.163 C 
ATOM     12  O   MET A   1      -8.714   6.137 -20.053  1.00  0.00    -0.648 OA
BRANCH  11  13
ATOM     13  OXT MET A   1      -9.698   5.738 -18.058  1.00  0.00    -0.775 OA
ATOM     14  HXT MET A   1      -8.796   5.697 -17.674  1.00  0.00     0.167 HD
ENDBRANCH  11  13
ENDBRANCH   1  11
TORSDOF 6
ENDMDL
MODEL 8
REMARK VINA RESULT:      -4.4      4.962      7.776
REMARK  6 active torsions:
REMARK  status: ('A' for Active; 'I' for Inactive)
REMARK       I    between atoms: C_2  and  N_4 
REMARK    1  A    between atoms: N_4  and  CA_5 
REMARK    2  A    between atoms: CA_5  and  CB_6 
REMARK    3  A    between atoms: CA_5  and  C_10 
REMARK    4  A    between atoms: CB_6  and  CG_7 
REMARK    5  A    between atoms: CG_7  and  SD_8 
REMARK    6  A    between atoms: C_10  and  OXT_12 
ROOT
ATOM      1  CA  MET A   1     -21.448  -5.442  -6.650  1.00  0.00     0.183 C 
ENDROOT
BRANCH   1   2
ATOM      2  N   MET A   1     -21.421  -5.398  -5.189  1.00  0.00    -0.347 N 
HETATM    3  C   UNK A   0     -21.766  -6.481  -4.422  1.00  0.00     0.214 C 
HETATM    4  C   UNK A   0     -21.647  -6.241  -2.944  1.00  0.00     0.117 C 
HETATM    5  O   UNK A   0     -22.121  -7.556  -4.896  1.00  0.00    -0.274 OA
ATOM      6  H   MET A   1     -21.083  -4.543  -4.755  1.00  0.00     0.163 HD
ENDBRANCH   1   2
BRANCH   1   7
ATOM      7  CB  MET A   1     -21.942  -4.105  -7.214  1.00  0.00     0.046 C 
BRANCH   7   8
ATOM      8  CG  MET A   1     -23.073  -4.208  -8.240  1.00  0.00     0.076 C 
BRANCH   8   9
ATOM      9  SD  MET A   1     -22.504  -4.263  -9.971  1.00  0.00    -0.173 SA
ATOM     10  CE  MET A   1     -23.909  -3.431 -10.767  1.00  0.00     0.089 C 
ENDBRANCH   8   9
ENDBRANCH   7   8
ENDBRANCH   1   7
BRANCH   1  11
ATOM     11  C   MET A   1     -20.027  -5.745  -7.129  1.00  0.00     0.163 C 
ATOM     12  O   MET A   1     -19.504  -6.851  -7.039  1.00  0.00    -0.648 OA
BRANCH  11  13
ATOM     13  OXT MET A   1     -19.373  -4.676  -7.636  1.00  0.00    -0.775 OA
ATOM     14  HXT MET A   1     -19.164  -4.742  -8.592  1.00  0.00     0.167 HD
ENDBRANCH  11  13
ENDBRANCH   1  11
TORSDOF 6
ENDMDL
MODEL 9
REMARK VINA RESULT:      -4.3     10.664     12.187
REMARK  6 active torsions:
REMARK  status: ('A' for Active; 'I' for Inactive)
REMARK       I    between atoms: C_2  and  N_4 
REMARK    1  A    between atoms: N_4  and  CA_5 
REMARK    2  A    between atoms: CA_5  and  CB_6 
REMARK    3  A    between atoms: CA_5  and  C_10 
REMARK    4  A    between atoms: CB_6  and  CG_7 
REMARK    5  A    between atoms: CG_7  and  SD_8 
REMARK    6  A    between atoms: C_10  and  OXT_12 
ROOT
ATOM      1  CA  MET A   1     -21.712  -7.746  -1.725  1.00  0.00     0.183 C 
ENDROOT
BRANCH   1   2
ATOM      2  N   MET A   1     -20.310  -8.061  -1.991  1.00  0.00    -0.347 N 
HETATM    3  C   UNK A   0     -19.935  -9.186  -2.680  1.00  0.00     0.214 C 
HETATM    4  C   UNK A   0     -18.450  -9.314  -2.871  1.00  0.00     0.117 C 
HETATM    5  O   UNK A   0     -20.736 -10.005  -3.119  1.00  0.00    -0.274 OA
ATOM      6  H   MET A   1     -19.615  -7.383  -1.690  1.00  0.00     0.163 HD
ENDBRANCH   1   2
BRANCH   1   7
ATOM      7  CB  MET A   1     -21.960  -7.654  -0.214  1.00  0.00     0.046 C 
BRANCH   7   8
ATOM      8  CG  MET A   1     -23.100  -8.528   0.314  1.00  0.00     0.076 C 
BRANCH   8   9
ATOM      9  SD  MET A   1     -23.140 -10.207  -0.396  1.00  0.00    -0.173 SA
ATOM     10  CE  MET A   1     -21.614 -10.869   0.334  1.00  0.00     0.089 C 
ENDBRANCH   8   9
ENDBRANCH   7   8
ENDBRANCH   1   7
BRANCH   1  11
ATOM     11  C   MET A   1     -22.024  -6.415  -2.412  1.00  0.00     0.163 C 
ATOM     12  O   MET A   1     -21.927  -6.238  -3.622  1.00  0.00    -0.648 OA
BRANCH  11  13
ATOM     13  OXT MET A   1     -22.391  -5.427  -1.565  1.00  0.00    -0.775 OA
ATOM     14  HXT MET A   1     -22.235  -5.623  -0.617  1.00  0.00     0.167 HD
ENDBRANCH  11  13
ENDBRANCH   1  11
TORSDOF 6
ENDMDL
