MODEL 1
REMARK VINA RESULT:      -4.6      0.000      0.000
REMARK  9 active torsions:
REMARK  status: ('A' for Active; 'I' for Inactive)
REMARK    1  A    between atoms: C_2  and  C_4 
REMARK    2  A    between atoms: C_4  and  O_6 
REMARK    3  A    between atoms: C_9  and  C_11 
REMARK    4  A    between atoms: C_11  and  O_13 
REMARK    5  A    between atoms: O_13  and  C_14 
REMARK    6  A    between atoms: C_14  and  C_15 
REMARK    7  A    between atoms: C_15  and  O_16 
REMARK    8  A    between atoms: O_16  and  C_17 
REMARK    9  A    between atoms: C_17  and  C_19 
ROOT
HETATM    1  C   UNL     1     -34.631  -2.708 -12.752  1.00  0.00     0.287 C 
HETATM    2  O   UNL     1     -34.511  -3.002 -13.933  1.00  0.00    -0.260 OA
ENDROOT
BRANCH   1   3
HETATM    3  C   UNL     1     -33.625  -3.080 -11.722  1.00  0.00     0.004 C 
HETATM    4  C   UNL     1     -32.703  -4.251 -11.876  1.00  0.00     0.054 C 
HETATM    5  C   UNL     1     -33.611  -2.314 -10.618  1.00  0.00     0.024 C 
ENDBRANCH   1   3
BRANCH   1   6
HETATM    6  O   UNL     1     -35.718  -2.091 -12.218  1.00  0.00    -0.323 OA
HETATM    7  C   UNL     1     -36.028  -0.864 -12.888  1.00  0.00     0.213 C 
ENDBRANCH   1   6
TORSDOF 9
ENDMDL
MODEL 2
REMARK VINA RESULT:      -4.2      9.875     10.758
REMARK  9 active torsions:
REMARK  status: ('A' for Active; 'I' for Inactive)
REMARK    1  A    between atoms: C_2  and  C_4 
REMARK    2  A    between atoms: C_4  and  O_6 
REMARK    3  A    between atoms: C_9  and  C_11 
REMARK    4  A    between atoms: C_11  and  O_13 
REMARK    5  A    between atoms: O_13  and  C_14 
REMARK    6  A    between atoms: C_14  and  C_15 
REMARK    7  A    between atoms: C_15  and  O_16 
REMARK    8  A    between atoms: O_16  and  C_17 
REMARK    9  A    between atoms: C_17  and  C_19 
ROOT
HETATM    1  C   UNL     1     -24.230  -3.008 -12.250  1.00  0.00     0.287 C 
HETATM    2  O   UNL     1     -25.370  -2.895 -12.678  1.00  0.00    -0.260 OA
ENDROOT
BRANCH   1   3
HETATM    3  C   UNL     1     -23.918  -3.656 -10.948  1.00  0.00     0.004 C 
HETATM    4  C   UNL     1     -24.663  -3.342  -9.688  1.00  0.00     0.054 C 
HETATM    5  C   UNL     1     -22.894  -4.527 -10.962  1.00  0.00     0.024 C 
ENDBRANCH   1   3
BRANCH   1   6
HETATM    6  O   UNL     1     -23.126  -2.491 -12.852  1.00  0.00    -0.323 OA
HETATM    7  C   UNL     1     -23.118  -2.730 -14.264  1.00  0.00     0.213 C 
ENDBRANCH   1   6
TORSDOF 9
ENDMDL
MODEL 3
REMARK VINA RESULT:      -4.2      9.947     11.096
REMARK  9 active torsions:
REMARK  status: ('A' for Active; 'I' for Inactive)
REMARK    1  A    between atoms: C_2  and  C_4 
REMARK    2  A    between atoms: C_4  and  O_6 
REMARK    3  A    between atoms: C_9  and  C_11 
REMARK    4  A    between atoms: C_11  and  O_13 
REMARK    5  A    between atoms: O_13  and  C_14 
REMARK    6  A    between atoms: C_14  and  C_15 
REMARK    7  A    between atoms: C_15  and  O_16 
REMARK    8  A    between atoms: O_16  and  C_17 
REMARK    9  A    between atoms: C_17  and  C_19 
ROOT
HETATM    1  C   UNL     1     -24.323  -3.570 -10.437  1.00  0.00     0.287 C 
HETATM    2  O   UNL     1     -25.423  -3.171 -10.078  1.00  0.00    -0.260 OA
ENDROOT
BRANCH   1   3
HETATM    3  C   UNL     1     -23.662  -3.099 -11.684  1.00  0.00     0.004 C 
HETATM    4  C   UNL     1     -22.187  -2.856 -11.776  1.00  0.00     0.054 C 
HETATM    5  C   UNL     1     -24.479  -2.872 -12.726  1.00  0.00     0.024 C 
ENDBRANCH   1   3
BRANCH   1   6
HETATM    6  O   UNL     1     -23.612  -4.541  -9.805  1.00  0.00    -0.323 OA
HETATM    7  C   UNL     1     -23.253  -4.167  -8.470  1.00  0.00     0.213 C 
ENDBRANCH   1   6
TORSDOF 9
ENDMDL
MODEL 4
REMARK VINA RESULT:      -4.2      9.985     11.048
REMARK  9 active torsions:
REMARK  status: ('A' for Active; 'I' for Inactive)
REMARK    1  A    between atoms: C_2  and  C_4 
REMARK    2  A    between atoms: C_4  and  O_6 
REMARK    3  A    between atoms: C_9  and  C_11 
REMARK    4  A    between atoms: C_11  and  O_13 
REMARK    5  A    between atoms: O_13  and  C_14 
REMARK    6  A    between atoms: C_14  and  C_15 
REMARK    7  A    between atoms: C_15  and  O_16 
REMARK    8  A    between atoms: O_16  and  C_17 
REMARK    9  A    between atoms: C_17  and  C_19 
ROOT
HETATM    1  C   UNL     1     -24.120  -3.294 -10.508  1.00  0.00     0.287 C 
HETATM    2  O   UNL     1     -25.288  -3.254 -10.148  1.00  0.00    -0.260 OA
ENDROOT
BRANCH   1   3
HETATM    3  C   UNL     1     -23.037  -3.874  -9.670  1.00  0.00     0.004 C 
HETATM    4  C   UNL     1     -21.664  -4.154 -10.199  1.00  0.00     0.054 C 
HETATM    5  C   UNL     1     -23.375  -4.165  -8.402  1.00  0.00     0.024 C 
ENDBRANCH   1   3
BRANCH   1   6
HETATM    6  O   UNL     1     -23.649  -2.747 -11.660  1.00  0.00    -0.323 OA
HETATM    7  C   UNL     1     -24.486  -3.048 -12.783  1.00  0.00     0.213 C 
ENDBRANCH   1   6
TORSDOF 9
ENDMDL
MODEL 5
REMARK VINA RESULT:      -4.2      9.988     11.097
REMARK  9 active torsions:
REMARK  status: ('A' for Active; 'I' for Inactive)
REMARK    1  A    between atoms: C_2  and  C_4 
REMARK    2  A    between atoms: C_4  and  O_6 
REMARK    3  A    between atoms: C_9  and  C_11 
REMARK    4  A    between atoms: C_11  and  O_13 
REMARK    5  A    between atoms: O_13  and  C_14 
REMARK    6  A    between atoms: C_14  and  C_15 
REMARK    7  A    between atoms: C_15  and  O_16 
REMARK    8  A    between atoms: O_16  and  C_17 
REMARK    9  A    between atoms: C_17  and  C_19 
ROOT
HETATM    1  C   UNL     1     -24.115  -3.310 -10.483  1.00  0.00     0.287 C 
HETATM    2  O   UNL     1     -25.284  -3.246 -10.131  1.00  0.00    -0.260 OA
ENDROOT
BRANCH   1   3
HETATM    3  C   UNL     1     -23.050  -3.912  -9.638  1.00  0.00     0.004 C 
HETATM    4  C   UNL     1     -23.242  -4.213  -8.183  1.00  0.00     0.054 C 
HETATM    5  C   UNL     1     -21.879  -4.146 -10.255  1.00  0.00     0.024 C 
ENDBRANCH   1   3
BRANCH   1   6
HETATM    6  O   UNL     1     -23.626  -2.772 -11.631  1.00  0.00    -0.323 OA
HETATM    7  C   UNL     1     -24.481  -3.021 -12.753  1.00  0.00     0.213 C 
ENDBRANCH   1   6
TORSDOF 9
ENDMDL
MODEL 6
REMARK VINA RESULT:      -3.8     11.870     12.621
REMARK  9 active torsions:
REMARK  status: ('A' for Active; 'I' for Inactive)
REMARK    1  A    between atoms: C_2  and  C_4 
REMARK    2  A    between atoms: C_4  and  O_6 
REMARK    3  A    between atoms: C_9  and  C_11 
REMARK    4  A    between atoms: C_11  and  O_13 
REMARK    5  A    between atoms: O_13  and  C_14 
REMARK    6  A    between atoms: C_14  and  C_15 
REMARK    7  A    between atoms: C_15  and  O_16 
REMARK    8  A    between atoms: O_16  and  C_17 
REMARK    9  A    between atoms: C_17  and  C_19 
ROOT
HETATM    1  C   UNL     1     -22.760  -4.185 -10.130  1.00  0.00     0.287 C 
HETATM    2  O   UNL     1     -23.563  -5.102 -10.233  1.00  0.00    -0.260 OA
ENDROOT
BRANCH   1   3
HETATM    3  C   UNL     1     -21.856  -3.776 -11.238  1.00  0.00     0.004 C 
HETATM    4  C   UNL     1     -22.355  -3.134 -12.495  1.00  0.00     0.054 C 
HETATM    5  C   UNL     1     -20.552  -4.048 -11.056  1.00  0.00     0.024 C 
ENDBRANCH   1   3
BRANCH   1   6
HETATM    6  O   UNL     1     -22.529  -3.488  -8.986  1.00  0.00    -0.323 OA
HETATM    7  C   UNL     1     -22.561  -4.327  -7.825  1.00  0.00     0.213 C 
ENDBRANCH   1   6
TORSDOF 9
ENDMDL
MODEL 7
REMARK VINA RESULT:      -3.8     17.087     18.071
REMARK  9 active torsions:
REMARK  status: ('A' for Active; 'I' for Inactive)
REMARK    1  A    between atoms: C_2  and  C_4 
REMARK    2  A    between atoms: C_4  and  O_6 
REMARK    3  A    between atoms: C_9  and  C_11 
REMARK    4  A    between atoms: C_11  and  O_13 
REMARK    5  A    between atoms: O_13  and  C_14 
REMARK    6  A    between atoms: C_14  and  C_15 
REMARK    7  A    between atoms: C_15  and  O_16 
REMARK    8  A    between atoms: O_16  and  C_17 
REMARK    9  A    between atoms: C_17  and  C_19 
ROOT
HETATM    1  C   UNL     1     -21.475  -7.677  -0.876  1.00  0.00     0.287 C 
HETATM    2  O   UNL     1     -20.510  -8.145  -1.464  1.00  0.00    -0.260 OA
ENDROOT
BRANCH   1   3
HETATM    3  C   UNL     1     -21.944  -8.189   0.440  1.00  0.00     0.004 C 
HETATM    4  C   UNL     1     -21.010  -8.729   1.478  1.00  0.00     0.054 C 
HETATM    5  C   UNL     1     -23.274  -8.167   0.633  1.00  0.00     0.024 C 
ENDBRANCH   1   3
BRANCH   1   6
HETATM    6  O   UNL     1     -22.284  -6.705  -1.374  1.00  0.00    -0.323 OA
HETATM    7  C   UNL     1     -21.787  -6.165  -2.604  1.00  0.00     0.213 C 
ENDBRANCH   1   6
TORSDOF 9
ENDMDL
MODEL 8
REMARK VINA RESULT:      -3.8     10.797     11.941
REMARK  9 active torsions:
REMARK  status: ('A' for Active; 'I' for Inactive)
REMARK    1  A    between atoms: C_2  and  C_4 
REMARK    2  A    between atoms: C_4  and  O_6 
REMARK    3  A    between atoms: C_9  and  C_11 
REMARK    4  A    between atoms: C_11  and  O_13 
REMARK    5  A    between atoms: O_13  and  C_14 
REMARK    6  A    between atoms: C_14  and  C_15 
REMARK    7  A    between atoms: C_15  and  O_16 
REMARK    8  A    between atoms: O_16  and  C_17 
REMARK    9  A    between atoms: C_17  and  C_19 
ROOT
HETATM    1  C   UNL     1     -22.264  -3.352 -11.327  1.00  0.00     0.287 C 
HETATM    2  O   UNL     1     -21.234  -3.917 -11.672  1.00  0.00    -0.260 OA
ENDROOT
BRANCH   1   3
HETATM    3  C   UNL     1     -22.972  -3.671 -10.059  1.00  0.00     0.004 C 
HETATM    4  C   UNL     1     -24.436  -3.424  -9.865  1.00  0.00     0.054 C 
HETATM    5  C   UNL     1     -22.206  -4.170  -9.074  1.00  0.00     0.024 C 
ENDBRANCH   1   3
BRANCH   1   6
HETATM    6  O   UNL     1     -22.931  -2.440 -12.082  1.00  0.00    -0.323 OA
HETATM    7  C   UNL     1     -23.107  -2.879 -13.434  1.00  0.00     0.213 C 
ENDBRANCH   1   6
TORSDOF 9
ENDMDL
MODEL 9
REMARK VINA RESULT:      -3.7     13.557     13.984
REMARK  9 active torsions:
REMARK  status: ('A' for Active; 'I' for Inactive)
REMARK    1  A    between atoms: C_2  and  C_4 
REMARK    2  A    between atoms: C_4  and  O_6 
REMARK    3  A    between atoms: C_9  and  C_11 
REMARK    4  A    between atoms: C_11  and  O_13 
REMARK    5  A    between atoms: O_13  and  C_14 
REMARK    6  A    between atoms: C_14  and  C_15 
REMARK    7  A    between atoms: C_15  and  O_16 
REMARK    8  A    between atoms: O_16  and  C_17 
REMARK    9  A    between atoms: C_17  and  C_19 
ROOT
HETATM    1  C   UNL     1     -24.837   7.748 -11.579  1.00  0.00     0.287 C 
HETATM    2  O   UNL     1     -24.086   7.282 -12.424  1.00  0.00    -0.260 OA
ENDROOT
BRANCH   1   3
HETATM    3  C   UNL     1     -25.900   6.947 -10.916  1.00  0.00     0.004 C 
HETATM    4  C   UNL     1     -25.599   5.801 -10.001  1.00  0.00     0.054 C 
HETATM    5  C   UNL     1     -27.164   7.298 -11.212  1.00  0.00     0.024 C 
ENDBRANCH   1   3
BRANCH   1   6
HETATM    6  O   UNL     1     -24.859   9.055 -11.204  1.00  0.00    -0.323 OA
HETATM    7  C   UNL     1     -24.394   9.924 -12.243  1.00  0.00     0.213 C 
ENDBRANCH   1   6
TORSDOF 9
ENDMDL
