MODEL 1
REMARK VINA RESULT:      -7.2      0.000      0.000
REMARK  6 active torsions:
REMARK  status: ('A' for Active; 'I' for Inactive)
REMARK    1  A    between atoms: C_1  and  O_13 
REMARK    2  A    between atoms: C_2  and  O_12 
REMARK    3  A    between atoms: C_3  and  C_9 
REMARK    4  A    between atoms: C_5  and  O_8 
REMARK    5  A    between atoms: C_6  and  O_7 
REMARK    6  A    between atoms: C_9  and  O_11 
ROOT
HETATM    1  C   UNL     1     -22.628  -4.442 -10.275  1.00  0.00     0.183 C 
HETATM    2  C   UNL     1     -22.781  -4.277 -11.782  1.00  0.00     0.188 C 
HETATM    3  C   UNL     1     -23.522  -2.974 -12.023  1.00  0.00     0.258 C 
HETATM    4  O   UNL     1     -24.831  -2.934 -11.418  1.00  0.00    -0.341 OA
HETATM    5  C   UNL     1     -24.825  -3.215 -10.027  1.00  0.00     0.289 C 
HETATM    6  C   UNL     1     -24.016  -4.473  -9.622  1.00  0.00     0.204 C 
ENDROOT
BRANCH   3   7
HETATM    7  C   UNL     1     -23.640  -2.578 -13.492  1.00  0.00     0.321 C 
HETATM    8  O   UNL     1     -22.670  -2.865 -14.252  1.00  0.00    -0.260 OA
BRANCH   7   9
HETATM    9  O   UNL     1     -24.754  -2.001 -13.735  1.00  0.00    -0.147 OA
HETATM   10 NA   UNL     2     -24.876  -0.074 -14.221  1.00  0.00     0.000 Na
ENDBRANCH   7   9
ENDBRANCH   3   7
BRANCH   2  11
HETATM   11  O   UNL     1     -23.508  -5.398 -12.308  1.00  0.00    -0.390 OA
HETATM   12  H   UNL     1     -23.420  -6.111 -11.626  1.00  0.00     0.210 HD
ENDBRANCH   2  11
BRANCH   1  13
HETATM   13  O   UNL     1     -21.894  -3.330  -9.709  1.00  0.00    -0.390 OA
HETATM   14  H   UNL     1     -21.702  -2.716 -10.443  1.00  0.00     0.210 HD
ENDBRANCH   1  13
BRANCH   5  15
HETATM   15  O   UNL     1     -26.180  -3.303  -9.606  1.00  0.00    -0.368 OA
HETATM   16  H   UNL     1     -26.359  -2.486  -9.099  1.00  0.00     0.212 HD
ENDBRANCH   5  15
BRANCH   6  17
HETATM   17  O   UNL     1     -23.865  -4.528  -8.194  1.00  0.00    -0.388 OA
HETATM   18  H   UNL     1     -23.525  -3.650  -7.932  1.00  0.00     0.210 HD
ENDBRANCH   6  17
TORSDOF 6
ENDMDL
MODEL 2
REMARK VINA RESULT:      -6.4      1.712      1.888
REMARK  6 active torsions:
REMARK  status: ('A' for Active; 'I' for Inactive)
REMARK    1  A    between atoms: C_1  and  O_13 
REMARK    2  A    between atoms: C_2  and  O_12 
REMARK    3  A    between atoms: C_3  and  C_9 
REMARK    4  A    between atoms: C_5  and  O_8 
REMARK    5  A    between atoms: C_6  and  O_7 
REMARK    6  A    between atoms: C_9  and  O_11 
ROOT
HETATM    1  C   UNL     1     -21.625  -4.421 -11.029  1.00  0.00     0.183 C 
HETATM    2  C   UNL     1     -22.606  -4.229 -12.179  1.00  0.00     0.188 C 
HETATM    3  C   UNL     1     -23.428  -2.990 -11.872  1.00  0.00     0.258 C 
HETATM    4  O   UNL     1     -24.173  -3.083 -10.640  1.00  0.00    -0.341 OA
HETATM    5  C   UNL     1     -23.372  -3.399  -9.513  1.00  0.00     0.289 C 
HETATM    6  C   UNL     1     -22.404  -4.592  -9.718  1.00  0.00     0.204 C 
ENDROOT
BRANCH   3   7
HETATM    7  C   UNL     1     -24.372  -2.567 -12.995  1.00  0.00     0.321 C 
HETATM    8  O   UNL     1     -23.867  -1.953 -13.979  1.00  0.00    -0.260 OA
BRANCH   7   9
HETATM    9  O   UNL     1     -25.576  -2.924 -12.756  1.00  0.00    -0.147 OA
HETATM   10 NA   UNL     2     -26.267  -3.181 -10.907  1.00  0.00     0.000 Na
ENDBRANCH   7   9
ENDBRANCH   3   7
BRANCH   2  11
HETATM   11  O   UNL     1     -23.436  -5.395 -12.290  1.00  0.00    -0.390 OA
HETATM   12  H   UNL     1     -23.371  -5.849 -11.412  1.00  0.00     0.210 HD
ENDBRANCH   2  11
BRANCH   1  13
HETATM   13  O   UNL     1     -20.766  -3.265 -10.889  1.00  0.00    -0.390 OA
HETATM   14  H   UNL     1     -20.793  -3.005  -9.949  1.00  0.00     0.210 HD
ENDBRANCH   1  13
BRANCH   5  15
HETATM   15  O   UNL     1     -24.250  -3.618  -8.417  1.00  0.00    -0.368 OA
HETATM   16  H   UNL     1     -25.113  -3.243  -8.683  1.00  0.00     0.212 HD
ENDBRANCH   5  15
BRANCH   6  17
HETATM   17  O   UNL     1     -21.475  -4.673  -8.624  1.00  0.00    -0.388 OA
HETATM   18  H   UNL     1     -20.587  -4.664  -9.033  1.00  0.00     0.210 HD
ENDBRANCH   6  17
TORSDOF 6
ENDMDL
MODEL 3
REMARK VINA RESULT:      -6.4      2.552      4.285
REMARK  6 active torsions:
REMARK  status: ('A' for Active; 'I' for Inactive)
REMARK    1  A    between atoms: C_1  and  O_13 
REMARK    2  A    between atoms: C_2  and  O_12 
REMARK    3  A    between atoms: C_3  and  C_9 
REMARK    4  A    between atoms: C_5  and  O_8 
REMARK    5  A    between atoms: C_6  and  O_7 
REMARK    6  A    between atoms: C_9  and  O_11 
ROOT
HETATM    1  C   UNL     1     -23.047  -3.899 -12.353  1.00  0.00     0.183 C 
HETATM    2  C   UNL     1     -21.767  -3.902 -11.526  1.00  0.00     0.188 C 
HETATM    3  C   UNL     1     -22.114  -4.450 -10.154  1.00  0.00     0.258 C 
HETATM    4  O   UNL     1     -23.111  -3.673  -9.458  1.00  0.00    -0.341 OA
HETATM    5  C   UNL     1     -24.307  -3.486 -10.199  1.00  0.00     0.289 C 
HETATM    6  C   UNL     1     -24.097  -3.019 -11.662  1.00  0.00     0.204 C 
ENDROOT
BRANCH   3   7
HETATM    7  C   UNL     1     -20.912  -4.656  -9.235  1.00  0.00     0.321 C 
HETATM    8  O   UNL     1     -19.784  -4.825  -9.782  1.00  0.00    -0.260 OA
BRANCH   7   9
HETATM    9  O   UNL     1     -21.250  -4.615  -8.003  1.00  0.00    -0.147 OA
HETATM   10 NA   UNL     2     -22.469  -3.220  -7.276  1.00  0.00     0.000 Na
ENDBRANCH   7   9
ENDBRANCH   3   7
BRANCH   2  11
HETATM   11  O   UNL     1     -21.256  -2.563 -11.443  1.00  0.00    -0.390 OA
HETATM   12  H   UNL     1     -21.272  -2.336 -10.478  1.00  0.00     0.210 HD
ENDBRANCH   2  11
BRANCH   1  13
HETATM   13  O   UNL     1     -23.590  -5.236 -12.463  1.00  0.00    -0.390 OA
HETATM   14  H   UNL     1     -22.829  -5.846 -12.514  1.00  0.00     0.210 HD
ENDBRANCH   1  13
BRANCH   5  15
HETATM   15  O   UNL     1     -25.119  -2.578  -9.468  1.00  0.00    -0.368 OA
HETATM   16  H   UNL     1     -25.933  -3.069  -9.236  1.00  0.00     0.212 HD
ENDBRANCH   5  15
BRANCH   6  17
HETATM   17  O   UNL     1     -25.334  -3.098 -12.390  1.00  0.00    -0.388 OA
HETATM   18  H   UNL     1     -25.788  -3.894 -12.049  1.00  0.00     0.210 HD
ENDBRANCH   6  17
TORSDOF 6
ENDMDL
MODEL 4
REMARK VINA RESULT:      -6.0      2.928      5.035
REMARK  6 active torsions:
REMARK  status: ('A' for Active; 'I' for Inactive)
REMARK    1  A    between atoms: C_1  and  O_13 
REMARK    2  A    between atoms: C_2  and  O_12 
REMARK    3  A    between atoms: C_3  and  C_9 
REMARK    4  A    between atoms: C_5  and  O_8 
REMARK    5  A    between atoms: C_6  and  O_7 
REMARK    6  A    between atoms: C_9  and  O_11 
ROOT
HETATM    1  C   UNL     1     -23.765  -3.616 -11.876  1.00  0.00     0.183 C 
HETATM    2  C   UNL     1     -23.870  -4.182 -10.465  1.00  0.00     0.188 C 
HETATM    3  C   UNL     1     -22.791  -3.518  -9.628  1.00  0.00     0.258 C 
HETATM    4  O   UNL     1     -21.456  -3.749 -10.120  1.00  0.00    -0.341 OA
HETATM    5  C   UNL     1     -21.278  -3.385 -11.480  1.00  0.00     0.289 C 
HETATM    6  C   UNL     1     -22.371  -3.917 -12.442  1.00  0.00     0.204 C 
ENDROOT
BRANCH   3   7
HETATM    7  C   UNL     1     -22.843  -3.865  -8.142  1.00  0.00     0.321 C 
HETATM    8  O   UNL     1     -21.811  -3.626  -7.452  1.00  0.00    -0.260 OA
BRANCH   7   9
HETATM    9  O   UNL     1     -23.977  -4.357  -7.815  1.00  0.00    -0.147 OA
HETATM   10 NA   UNL     2     -24.527  -4.605  -5.918  1.00  0.00     0.000 Na
ENDBRANCH   7   9
ENDBRANCH   3   7
BRANCH   2  11
HETATM   11  O   UNL     1     -23.694  -5.606 -10.513  1.00  0.00    -0.390 OA
HETATM   12  H   UNL     1     -23.720  -5.906  -9.568  1.00  0.00     0.210 HD
ENDBRANCH   2  11
BRANCH   1  13
HETATM   13  O   UNL     1     -23.943  -2.180 -11.867  1.00  0.00    -0.390 OA
HETATM   14  H   UNL     1     -23.052  -1.786 -11.820  1.00  0.00     0.210 HD
ENDBRANCH   1  13
BRANCH   5  15
HETATM   15  O   UNL     1     -19.981  -3.817 -11.868  1.00  0.00    -0.368 OA
HETATM   16  H   UNL     1     -19.381  -3.065 -11.690  1.00  0.00     0.212 HD
ENDBRANCH   5  15
BRANCH   6  17
HETATM   17  O   UNL     1     -22.241  -3.296 -13.732  1.00  0.00    -0.388 OA
HETATM   18  H   UNL     1     -22.242  -2.334 -13.561  1.00  0.00     0.210 HD
ENDBRANCH   6  17
TORSDOF 6
ENDMDL
MODEL 5
REMARK VINA RESULT:      -5.3      2.232      3.684
REMARK  6 active torsions:
REMARK  status: ('A' for Active; 'I' for Inactive)
REMARK    1  A    between atoms: C_1  and  O_13 
REMARK    2  A    between atoms: C_2  and  O_12 
REMARK    3  A    between atoms: C_3  and  C_9 
REMARK    4  A    between atoms: C_5  and  O_8 
REMARK    5  A    between atoms: C_6  and  O_7 
REMARK    6  A    between atoms: C_9  and  O_11 
ROOT
HETATM    1  C   UNL     1     -24.091  -3.504 -11.409  1.00  0.00     0.183 C 
HETATM    2  C   UNL     1     -22.581  -3.349 -11.541  1.00  0.00     0.188 C 
HETATM    3  C   UNL     1     -21.937  -4.364 -10.613  1.00  0.00     0.258 C 
HETATM    4  O   UNL     1     -22.300  -4.190  -9.228  1.00  0.00    -0.341 OA
HETATM    5  C   UNL     1     -23.701  -4.179  -9.003  1.00  0.00     0.289 C 
HETATM    6  C   UNL     1     -24.503  -3.252  -9.952  1.00  0.00     0.204 C 
ENDROOT
BRANCH   3   7
HETATM    7  C   UNL     1     -20.416  -4.444 -10.725  1.00  0.00     0.321 C 
HETATM    8  O   UNL     1     -19.796  -5.051  -9.805  1.00  0.00    -0.260 OA
BRANCH   7   9
HETATM    9  O   UNL     1     -19.993  -3.866 -11.783  1.00  0.00    -0.147 OA
HETATM   10 NA   UNL     2     -20.952  -3.986 -13.523  1.00  0.00     0.000 Na
ENDBRANCH   7   9
ENDBRANCH   3   7
BRANCH   2  11
HETATM   11  O   UNL     1     -22.211  -2.007 -11.187  1.00  0.00    -0.390 OA
HETATM   12  H   UNL     1     -22.854  -1.734 -10.483  1.00  0.00     0.210 HD
ENDBRANCH   2  11
BRANCH   1  13
HETATM   13  O   UNL     1     -24.501  -4.845 -11.763  1.00  0.00    -0.390 OA
HETATM   14  H   UNL     1     -24.543  -5.356 -10.933  1.00  0.00     0.210 HD
ENDBRANCH   1  13
BRANCH   5  15
HETATM   15  O   UNL     1     -23.908  -3.839  -7.639  1.00  0.00    -0.368 OA
HETATM   16  H   UNL     1     -23.200  -4.291  -7.137  1.00  0.00     0.212 HD
ENDBRANCH   5  15
BRANCH   6  17
HETATM   17  O   UNL     1     -25.912  -3.498  -9.811  1.00  0.00    -0.388 OA
HETATM   18  H   UNL     1     -26.039  -4.437 -10.050  1.00  0.00     0.210 HD
ENDBRANCH   6  17
TORSDOF 6
ENDMDL
MODEL 6
REMARK VINA RESULT:      -5.1      2.141      4.372
REMARK  6 active torsions:
REMARK  status: ('A' for Active; 'I' for Inactive)
REMARK    1  A    between atoms: C_1  and  O_13 
REMARK    2  A    between atoms: C_2  and  O_12 
REMARK    3  A    between atoms: C_3  and  C_9 
REMARK    4  A    between atoms: C_5  and  O_8 
REMARK    5  A    between atoms: C_6  and  O_7 
REMARK    6  A    between atoms: C_9  and  O_11 
ROOT
HETATM    1  C   UNL     1     -22.901  -4.515 -12.765  1.00  0.00     0.183 C 
HETATM    2  C   UNL     1     -22.912  -4.110 -11.296  1.00  0.00     0.188 C 
HETATM    3  C   UNL     1     -24.327  -3.677 -10.955  1.00  0.00     0.258 C 
HETATM    4  O   UNL     1     -24.795  -2.565 -11.744  1.00  0.00    -0.341 OA
HETATM    5  C   UNL     1     -24.700  -2.778 -13.144  1.00  0.00     0.289 C 
HETATM    6  C   UNL     1     -23.330  -3.319 -13.626  1.00  0.00     0.204 C 
ENDROOT
BRANCH   3   7
HETATM    7  C   UNL     1     -24.552  -3.371  -9.476  1.00  0.00     0.321 C 
HETATM    8  O   UNL     1     -25.542  -2.643  -9.177  1.00  0.00    -0.260 OA
BRANCH   7   9
HETATM    9  O   UNL     1     -23.669  -3.931  -8.741  1.00  0.00    -0.147 OA
HETATM   10 NA   UNL     2     -21.807  -3.243  -8.595  1.00  0.00     0.000 Na
ENDBRANCH   7   9
ENDBRANCH   3   7
BRANCH   2  11
HETATM   11  O   UNL     1     -21.974  -3.043 -11.094  1.00  0.00    -0.390 OA
HETATM   12  H   UNL     1     -22.524  -2.226 -10.987  1.00  0.00     0.210 HD
ENDBRANCH   2  11
BRANCH   1  13
HETATM   13  O   UNL     1     -23.834  -5.595 -13.006  1.00  0.00    -0.390 OA
HETATM   14  H   UNL     1     -23.697  -5.886 -13.928  1.00  0.00     0.210 HD
ENDBRANCH   1  13
BRANCH   5  15
HETATM   15  O   UNL     1     -25.037  -1.555 -13.783  1.00  0.00    -0.368 OA
HETATM   16  H   UNL     1     -26.012  -1.542 -13.847  1.00  0.00     0.212 HD
ENDBRANCH   5  15
BRANCH   6  17
HETATM   17  O   UNL     1     -23.416  -3.733 -15.000  1.00  0.00    -0.388 OA
HETATM   18  H   UNL     1     -24.209  -4.302 -15.053  1.00  0.00     0.210 HD
ENDBRANCH   6  17
TORSDOF 6
ENDMDL
MODEL 7
REMARK VINA RESULT:      -5.1      1.767      3.001
REMARK  6 active torsions:
REMARK  status: ('A' for Active; 'I' for Inactive)
REMARK    1  A    between atoms: C_1  and  O_13 
REMARK    2  A    between atoms: C_2  and  O_12 
REMARK    3  A    between atoms: C_3  and  C_9 
REMARK    4  A    between atoms: C_5  and  O_8 
REMARK    5  A    between atoms: C_6  and  O_7 
REMARK    6  A    between atoms: C_9  and  O_11 
ROOT
HETATM    1  C   UNL     1     -21.398  -4.578 -10.440  1.00  0.00     0.183 C 
HETATM    2  C   UNL     1     -22.820  -4.475 -10.978  1.00  0.00     0.188 C 
HETATM    3  C   UNL     1     -23.565  -3.481 -10.105  1.00  0.00     0.258 C 
HETATM    4  O   UNL     1     -23.623  -3.865  -8.715  1.00  0.00    -0.341 OA
HETATM    5  C   UNL     1     -22.352  -4.124  -8.142  1.00  0.00     0.289 C 
HETATM    6  C   UNL     1     -21.439  -5.054  -8.982  1.00  0.00     0.204 C 
ENDROOT
BRANCH   3   7
HETATM    7  C   UNL     1     -24.974  -3.149 -10.590  1.00  0.00     0.321 C 
HETATM    8  O   UNL     1     -25.880  -3.037  -9.715  1.00  0.00    -0.260 OA
BRANCH   7   9
HETATM    9  O   UNL     1     -25.014  -3.022 -11.861  1.00  0.00    -0.147 OA
HETATM   10 NA   UNL     2     -23.915  -1.679 -12.836  1.00  0.00     0.000 Na
ENDBRANCH   7   9
ENDBRANCH   3   7
BRANCH   2  11
HETATM   11  O   UNL     1     -23.435  -5.772 -10.938  1.00  0.00    -0.390 OA
HETATM   12  H   UNL     1     -24.113  -5.763 -11.660  1.00  0.00     0.210 HD
ENDBRANCH   2  11
BRANCH   1  13
HETATM   13  O   UNL     1     -20.744  -3.287 -10.470  1.00  0.00    -0.390 OA
HETATM   14  H   UNL     1     -20.709  -3.010 -11.405  1.00  0.00     0.210 HD
ENDBRANCH   1  13
BRANCH   5  15
HETATM   15  O   UNL     1     -22.573  -4.644  -6.838  1.00  0.00    -0.368 OA
HETATM   16  H   UNL     1     -21.873  -5.311  -6.690  1.00  0.00     0.212 HD
ENDBRANCH   5  15
BRANCH   6  17
HETATM   17  O   UNL     1     -20.104  -5.053  -8.447  1.00  0.00    -0.388 OA
HETATM   18  H   UNL     1     -19.544  -5.451  -9.142  1.00  0.00     0.210 HD
ENDBRANCH   6  17
TORSDOF 6
ENDMDL
MODEL 8
REMARK VINA RESULT:      -5.1      5.481      7.755
REMARK  6 active torsions:
REMARK  status: ('A' for Active; 'I' for Inactive)
REMARK    1  A    between atoms: C_1  and  O_13 
REMARK    2  A    between atoms: C_2  and  O_12 
REMARK    3  A    between atoms: C_3  and  C_9 
REMARK    4  A    between atoms: C_5  and  O_8 
REMARK    5  A    between atoms: C_6  and  O_7 
REMARK    6  A    between atoms: C_9  and  O_11 
ROOT
HETATM    1  C   UNL     1     -20.129  -4.947  -7.204  1.00  0.00     0.183 C 
HETATM    2  C   UNL     1     -20.145  -5.414  -5.754  1.00  0.00     0.188 C 
HETATM    3  C   UNL     1     -21.402  -6.242  -5.557  1.00  0.00     0.258 C 
HETATM    4  O   UNL     1     -22.619  -5.515  -5.821  1.00  0.00    -0.341 OA
HETATM    5  C   UNL     1     -22.656  -4.913  -7.106  1.00  0.00     0.289 C 
HETATM    6  C   UNL     1     -21.385  -4.111  -7.483  1.00  0.00     0.204 C 
ENDROOT
BRANCH   3   7
HETATM    7  C   UNL     1     -21.507  -6.911  -4.189  1.00  0.00     0.321 C 
HETATM    8  O   UNL     1     -21.714  -8.159  -4.165  1.00  0.00    -0.260 OA
BRANCH   7   9
HETATM    9  O   UNL     1     -21.354  -6.068  -3.241  1.00  0.00    -0.147 OA
HETATM   10 NA   UNL     2     -22.890  -5.299  -2.235  1.00  0.00     0.000 Na
ENDBRANCH   7   9
ENDBRANCH   3   7
BRANCH   2  11
HETATM   11  O   UNL     1     -20.132  -4.268  -4.889  1.00  0.00    -0.390 OA
HETATM   12  H   UNL     1     -19.193  -4.180  -4.584  1.00  0.00     0.210 HD
ENDBRANCH   2  11
BRANCH   1  13
HETATM   13  O   UNL     1     -20.137  -6.078  -8.107  1.00  0.00    -0.390 OA
HETATM   14  H   UNL     1     -20.964  -6.568  -7.939  1.00  0.00     0.210 HD
ENDBRANCH   1  13
BRANCH   5  15
HETATM   15  O   UNL     1     -23.824  -4.106  -7.161  1.00  0.00    -0.368 OA
HETATM   16  H   UNL     1     -23.694  -3.396  -6.501  1.00  0.00     0.212 HD
ENDBRANCH   5  15
BRANCH   6  17
HETATM   17  O   UNL     1     -21.417  -3.757  -8.876  1.00  0.00    -0.388 OA
HETATM   18  H   UNL     1     -21.125  -2.825  -8.917  1.00  0.00     0.210 HD
ENDBRANCH   6  17
TORSDOF 6
ENDMDL
MODEL 9
REMARK VINA RESULT:      -4.8      3.207      4.837
REMARK  6 active torsions:
REMARK  status: ('A' for Active; 'I' for Inactive)
REMARK    1  A    between atoms: C_1  and  O_13 
REMARK    2  A    between atoms: C_2  and  O_12 
REMARK    3  A    between atoms: C_3  and  C_9 
REMARK    4  A    between atoms: C_5  and  O_8 
REMARK    5  A    between atoms: C_6  and  O_7 
REMARK    6  A    between atoms: C_9  and  O_11 
ROOT
HETATM    1  C   UNL     1     -21.764  -5.106  -7.003  1.00  0.00     0.183 C 
HETATM    2  C   UNL     1     -22.405  -4.579  -8.281  1.00  0.00     0.188 C 
HETATM    3  C   UNL     1     -21.410  -4.786  -9.408  1.00  0.00     0.258 C 
HETATM    4  O   UNL     1     -20.157  -4.102  -9.203  1.00  0.00    -0.341 OA
HETATM    5  C   UNL     1     -19.532  -4.414  -7.968  1.00  0.00     0.289 C 
HETATM    6  C   UNL     1     -20.464  -4.339  -6.732  1.00  0.00     0.204 C 
ENDROOT
BRANCH   3   7
HETATM    7  C   UNL     1     -21.947  -4.440 -10.794  1.00  0.00     0.321 C 
HETATM    8  O   UNL     1     -23.197  -4.514 -10.970  1.00  0.00    -0.260 OA
BRANCH   7   9
HETATM    9  O   UNL     1     -21.005  -4.107 -11.592  1.00  0.00    -0.147 OA
HETATM   10 NA   UNL     2     -21.281  -3.929 -13.556  1.00  0.00     0.000 Na
ENDBRANCH   7   9
ENDBRANCH   3   7
BRANCH   2  11
HETATM   11  O   UNL     1     -22.723  -3.189  -8.110  1.00  0.00    -0.390 OA
HETATM   12  H   UNL     1     -21.889  -2.700  -8.330  1.00  0.00     0.210 HD
ENDBRANCH   2  11
BRANCH   1  13
HETATM   13  O   UNL     1     -21.435  -6.509  -7.136  1.00  0.00    -0.390 OA
HETATM   14  H   UNL     1     -21.158  -6.819  -6.253  1.00  0.00     0.210 HD
ENDBRANCH   1  13
BRANCH   5  15
HETATM   15  O   UNL     1     -18.408  -3.555  -7.833  1.00  0.00    -0.368 OA
HETATM   16  H   UNL     1     -18.354  -3.047  -8.667  1.00  0.00     0.212 HD
ENDBRANCH   5  15
BRANCH   6  17
HETATM   17  O   UNL     1     -19.811  -4.906  -5.583  1.00  0.00    -0.388 OA
HETATM   18  H   UNL     1     -19.783  -4.191  -4.918  1.00  0.00     0.210 HD
ENDBRANCH   6  17
TORSDOF 6
ENDMDL
