MODEL 1
REMARK VINA RESULT:      -7.8      0.000      0.000
REMARK  4 active torsions:
REMARK  status: ('A' for Active; 'I' for Inactive)
REMARK    1  A    between atoms: C_4  and  O_10 
REMARK    2  A    between atoms: O_10  and  C_11 
REMARK    3  A    between atoms: C_11  and  C_13 
REMARK    4  A    between atoms: C_18  and  O_19 
ROOT
HETATM    1  O   UNL     1     -21.819  -5.716  -5.247  1.00  0.00    -0.312 OA
ENDROOT
BRANCH   1   2
HETATM    2  C   UNL     1     -21.274  -6.824  -4.511  1.00  0.00     0.133 C 
HETATM    3  C   UNL     1     -21.673  -8.128  -5.206  1.00  0.00     0.037 C 
HETATM    4  C   UNL     1     -21.267  -9.375  -4.418  1.00  0.00    -0.015 C 
HETATM    5  C   UNL     1     -19.774  -9.674  -4.550  1.00  0.00     0.010 C 
HETATM    6  C   UNL     1     -21.750  -9.284  -2.962  1.00  0.00     0.013 C 
HETATM    7  C   UNL     1     -21.419  -7.970  -2.212  1.00  0.00    -0.045 C 
HETATM    8  C   UNL     1     -21.841  -6.765  -3.083  1.00  0.00     0.041 C 
HETATM    9  C   UNL     1     -19.928  -7.875  -1.834  1.00  0.00     0.015 C 
HETATM   10  C   UNL     1     -22.215  -7.962  -0.890  1.00  0.00     0.015 C 
ENDBRANCH   1   2
BRANCH   1  11
HETATM   11  C   UNL     1     -20.917  -4.884  -5.819  1.00  0.00     0.296 C 
HETATM   12  O   UNL     1     -19.898  -4.447  -5.297  1.00  0.00    -0.259 OA
BRANCH  11  13
HETATM   13  C   UNL     1     -21.266  -4.631  -7.234  1.00  0.00     0.072 A 
HETATM   14  C   UNL     1     -20.210  -4.562  -8.158  1.00  0.00     0.020 A 
HETATM   15  C   UNL     1     -20.471  -4.319  -9.506  1.00  0.00     0.001 A 
HETATM   16  C   UNL     1     -21.784  -4.144  -9.941  1.00  0.00     0.003 A 
HETATM   17  C   UNL     1     -22.837  -4.197  -9.027  1.00  0.00     0.037 A 
HETATM   18  C   UNL     1     -22.579  -4.428  -7.674  1.00  0.00     0.082 A 
BRANCH  18  19
HETATM   19  O   UNL     1     -23.615  -4.414  -6.788  1.00  0.00    -0.360 OA
HETATM   20  H   UNL     1     -24.085  -5.260  -6.821  1.00  0.00     0.217 HD
ENDBRANCH  18  19
ENDBRANCH  11  13
ENDBRANCH   1  11
TORSDOF 4
ENDMDL
MODEL 2
REMARK VINA RESULT:      -7.7      1.608      6.715
REMARK  4 active torsions:
REMARK  status: ('A' for Active; 'I' for Inactive)
REMARK    1  A    between atoms: C_4  and  O_10 
REMARK    2  A    between atoms: O_10  and  C_11 
REMARK    3  A    between atoms: C_11  and  C_13 
REMARK    4  A    between atoms: C_18  and  O_19 
ROOT
HETATM    1  O   UNL     1     -21.427  -5.156  -6.796  1.00  0.00    -0.312 OA
ENDROOT
BRANCH   1   2
HETATM    2  C   UNL     1     -21.706  -4.954  -8.192  1.00  0.00     0.133 C 
HETATM    3  C   UNL     1     -20.675  -3.981  -8.770  1.00  0.00     0.037 C 
HETATM    4  C   UNL     1     -20.972  -3.583 -10.217  1.00  0.00    -0.015 C 
HETATM    5  C   UNL     1     -20.593  -4.688 -11.203  1.00  0.00     0.010 C 
HETATM    6  C   UNL     1     -22.423  -3.097 -10.364  1.00  0.00     0.013 C 
HETATM    7  C   UNL     1     -23.515  -4.013  -9.760  1.00  0.00    -0.045 C 
HETATM    8  C   UNL     1     -23.128  -4.383  -8.311  1.00  0.00     0.041 C 
HETATM    9  C   UNL     1     -23.744  -5.282 -10.604  1.00  0.00     0.015 C 
HETATM   10  C   UNL     1     -24.847  -3.232  -9.761  1.00  0.00     0.015 C 
ENDBRANCH   1   2
BRANCH   1  11
HETATM   11  C   UNL     1     -20.657  -6.229  -6.495  1.00  0.00     0.296 C 
HETATM   12  O   UNL     1     -19.744  -6.682  -7.176  1.00  0.00    -0.259 OA
BRANCH  11  13
HETATM   13  C   UNL     1     -20.992  -6.750  -5.152  1.00  0.00     0.072 A 
HETATM   14  C   UNL     1     -21.112  -5.819  -4.108  1.00  0.00     0.020 A 
HETATM   15  C   UNL     1     -21.419  -6.248  -2.816  1.00  0.00     0.001 A 
HETATM   16  C   UNL     1     -21.609  -7.605  -2.560  1.00  0.00     0.003 A 
HETATM   17  C   UNL     1     -21.478  -8.538  -3.590  1.00  0.00     0.037 A 
HETATM   18  C   UNL     1     -21.159  -8.114  -4.881  1.00  0.00     0.082 A 
BRANCH  18  19
HETATM   19  O   UNL     1     -20.974  -9.045  -5.860  1.00  0.00    -0.360 OA
HETATM   20  H   UNL     1     -21.672  -8.960  -6.527  1.00  0.00     0.217 HD
ENDBRANCH  18  19
ENDBRANCH  11  13
ENDBRANCH   1  11
TORSDOF 4
ENDMDL
MODEL 3
REMARK VINA RESULT:      -7.6      1.451      2.790
REMARK  4 active torsions:
REMARK  status: ('A' for Active; 'I' for Inactive)
REMARK    1  A    between atoms: C_4  and  O_10 
REMARK    2  A    between atoms: O_10  and  C_11 
REMARK    3  A    between atoms: C_11  and  C_13 
REMARK    4  A    between atoms: C_18  and  O_19 
ROOT
HETATM    1  O   UNL     1     -21.340  -7.460  -4.922  1.00  0.00    -0.312 OA
ENDROOT
BRANCH   1   2
HETATM    2  C   UNL     1     -21.603  -8.025  -3.626  1.00  0.00     0.133 C 
HETATM    3  C   UNL     1     -20.867  -7.201  -2.566  1.00  0.00     0.037 C 
HETATM    4  C   UNL     1     -20.961  -7.808  -1.164  1.00  0.00    -0.015 C 
HETATM    5  C   UNL     1     -22.325  -7.555  -0.522  1.00  0.00     0.010 C 
HETATM    6  C   UNL     1     -20.553  -9.290  -1.181  1.00  0.00     0.013 C 
HETATM    7  C   UNL     1     -21.226 -10.172  -2.261  1.00  0.00    -0.045 C 
HETATM    8  C   UNL     1     -21.105  -9.480  -3.636  1.00  0.00     0.041 C 
HETATM    9  C   UNL     1     -22.701 -10.473  -1.929  1.00  0.00     0.015 C 
HETATM   10  C   UNL     1     -20.492 -11.529  -2.293  1.00  0.00     0.015 C 
ENDBRANCH   1   2
BRANCH   1  11
HETATM   11  C   UNL     1     -22.166  -6.459  -5.310  1.00  0.00     0.296 C 
HETATM   12  O   UNL     1     -23.302  -6.254  -4.899  1.00  0.00    -0.259 OA
BRANCH  11  13
HETATM   13  C   UNL     1     -21.476  -5.550  -6.250  1.00  0.00     0.072 A 
HETATM   14  C   UNL     1     -20.077  -5.643  -6.330  1.00  0.00     0.020 A 
HETATM   15  C   UNL     1     -19.366  -4.808  -7.193  1.00  0.00     0.001 A 
HETATM   16  C   UNL     1     -20.045  -3.878  -7.979  1.00  0.00     0.003 A 
HETATM   17  C   UNL     1     -21.434  -3.770  -7.895  1.00  0.00     0.037 A 
HETATM   18  C   UNL     1     -22.148  -4.596  -7.024  1.00  0.00     0.082 A 
BRANCH  18  19
HETATM   19  O   UNL     1     -23.497  -4.433  -6.910  1.00  0.00    -0.360 OA
HETATM   20  H   UNL     1     -23.838  -5.017  -6.216  1.00  0.00     0.217 HD
ENDBRANCH  18  19
ENDBRANCH  11  13
ENDBRANCH   1  11
TORSDOF 4
ENDMDL
MODEL 4
REMARK VINA RESULT:      -7.6      0.962      2.444
REMARK  4 active torsions:
REMARK  status: ('A' for Active; 'I' for Inactive)
REMARK    1  A    between atoms: C_4  and  O_10 
REMARK    2  A    between atoms: O_10  and  C_11 
REMARK    3  A    between atoms: C_11  and  C_13 
REMARK    4  A    between atoms: C_18  and  O_19 
ROOT
HETATM    1  O   UNL     1     -21.311  -5.465  -5.405  1.00  0.00    -0.312 OA
ENDROOT
BRANCH   1   2
HETATM    2  C   UNL     1     -21.436  -6.513  -4.430  1.00  0.00     0.133 C 
HETATM    3  C   UNL     1     -21.012  -5.974  -3.061  1.00  0.00     0.037 C 
HETATM    4  C   UNL     1     -20.967  -7.055  -1.979  1.00  0.00    -0.015 C 
HETATM    5  C   UNL     1     -22.365  -7.426  -1.483  1.00  0.00     0.010 C 
HETATM    6  C   UNL     1     -20.139  -8.262  -2.446  1.00  0.00     0.013 C 
HETATM    7  C   UNL     1     -20.485  -8.831  -3.844  1.00  0.00    -0.045 C 
HETATM    8  C   UNL     1     -20.530  -7.676  -4.868  1.00  0.00     0.041 C 
HETATM    9  C   UNL     1     -21.814  -9.610  -3.842  1.00  0.00     0.015 C 
HETATM   10  C   UNL     1     -19.381  -9.835  -4.237  1.00  0.00     0.015 C 
ENDBRANCH   1   2
BRANCH   1  11
HETATM   11  C   UNL     1     -22.363  -5.306  -6.242  1.00  0.00     0.296 C 
HETATM   12  O   UNL     1     -23.548  -5.422  -5.951  1.00  0.00    -0.259 OA
BRANCH  11  13
HETATM   13  C   UNL     1     -21.905  -4.862  -7.577  1.00  0.00     0.072 A 
HETATM   14  C   UNL     1     -20.559  -5.090  -7.907  1.00  0.00     0.020 A 
HETATM   15  C   UNL     1     -20.062  -4.689  -9.147  1.00  0.00     0.001 A 
HETATM   16  C   UNL     1     -20.903  -4.060 -10.064  1.00  0.00     0.003 A 
HETATM   17  C   UNL     1     -22.238  -3.818  -9.738  1.00  0.00     0.037 A 
HETATM   18  C   UNL     1     -22.736  -4.208  -8.493  1.00  0.00     0.082 A 
BRANCH  18  19
HETATM   19  O   UNL     1     -24.026  -3.907  -8.169  1.00  0.00    -0.360 OA
HETATM   20  H   UNL     1     -24.047  -3.104  -7.626  1.00  0.00     0.217 HD
ENDBRANCH  18  19
ENDBRANCH  11  13
ENDBRANCH   1  11
TORSDOF 4
ENDMDL
MODEL 5
REMARK VINA RESULT:      -7.1      3.424      7.531
REMARK  4 active torsions:
REMARK  status: ('A' for Active; 'I' for Inactive)
REMARK    1  A    between atoms: C_4  and  O_10 
REMARK    2  A    between atoms: O_10  and  C_11 
REMARK    3  A    between atoms: C_11  and  C_13 
REMARK    4  A    between atoms: C_18  and  O_19 
ROOT
HETATM    1  O   UNL     1     -21.326  -7.892  -0.837  1.00  0.00    -0.312 OA
ENDROOT
BRANCH   1   2
HETATM    2  C   UNL     1     -21.387  -8.015  -2.268  1.00  0.00     0.133 C 
HETATM    3  C   UNL     1     -20.304  -8.994  -2.729  1.00  0.00     0.037 C 
HETATM    4  C   UNL     1     -20.186  -9.083  -4.252  1.00  0.00    -0.015 C 
HETATM    5  C   UNL     1     -21.310  -9.920  -4.864  1.00  0.00     0.010 C 
HETATM    6  C   UNL     1     -20.053  -7.684  -4.873  1.00  0.00     0.013 C 
HETATM    7  C   UNL     1     -21.090  -6.630  -4.415  1.00  0.00    -0.045 C 
HETATM    8  C   UNL     1     -21.161  -6.619  -2.872  1.00  0.00     0.041 C 
HETATM    9  C   UNL     1     -22.484  -6.882  -5.023  1.00  0.00     0.015 C 
HETATM   10  C   UNL     1     -20.626  -5.249  -4.925  1.00  0.00     0.015 C 
ENDBRANCH   1   2
BRANCH   1  11
HETATM   11  C   UNL     1     -22.451  -8.235  -0.165  1.00  0.00     0.296 C 
HETATM   12  O   UNL     1     -23.350  -7.478   0.182  1.00  0.00    -0.259 OA
BRANCH  11  13
HETATM   13  C   UNL     1     -22.518  -9.700   0.025  1.00  0.00     0.072 A 
HETATM   14  C   UNL     1     -23.709 -10.346  -0.344  1.00  0.00     0.020 A 
HETATM   15  C   UNL     1     -23.839 -11.726  -0.184  1.00  0.00     0.001 A 
HETATM   16  C   UNL     1     -22.783 -12.468   0.344  1.00  0.00     0.003 A 
HETATM   17  C   UNL     1     -21.601 -11.831   0.725  1.00  0.00     0.037 A 
HETATM   18  C   UNL     1     -21.472 -10.449   0.577  1.00  0.00     0.082 A 
BRANCH  18  19
HETATM   19  O   UNL     1     -20.334  -9.837   1.014  1.00  0.00    -0.360 OA
HETATM   20  H   UNL     1     -19.602 -10.044   0.414  1.00  0.00     0.217 HD
ENDBRANCH  18  19
ENDBRANCH  11  13
ENDBRANCH   1  11
TORSDOF 4
ENDMDL
MODEL 6
REMARK VINA RESULT:      -7.1      2.463      4.008
REMARK  4 active torsions:
REMARK  status: ('A' for Active; 'I' for Inactive)
REMARK    1  A    between atoms: C_4  and  O_10 
REMARK    2  A    between atoms: O_10  and  C_11 
REMARK    3  A    between atoms: C_11  and  C_13 
REMARK    4  A    between atoms: C_18  and  O_19 
ROOT
HETATM    1  O   UNL     1     -21.065  -7.846  -3.111  1.00  0.00    -0.312 OA
ENDROOT
BRANCH   1   2
HETATM    2  C   UNL     1     -21.728  -8.453  -1.989  1.00  0.00     0.133 C 
HETATM    3  C   UNL     1     -21.172  -7.849  -0.697  1.00  0.00     0.037 C 
HETATM    4  C   UNL     1     -21.707  -8.534   0.563  1.00  0.00    -0.015 C 
HETATM    5  C   UNL     1     -23.136  -8.100   0.887  1.00  0.00     0.010 C 
HETATM    6  C   UNL     1     -21.532 -10.058   0.474  1.00  0.00     0.013 C 
HETATM    7  C   UNL     1     -22.031 -10.729  -0.829  1.00  0.00    -0.045 C 
HETATM    8  C   UNL     1     -21.464  -9.966  -2.047  1.00  0.00     0.041 C 
HETATM    9  C   UNL     1     -23.570 -10.796  -0.896  1.00  0.00     0.015 C 
HETATM   10  C   UNL     1     -21.521 -12.185  -0.842  1.00  0.00     0.015 C 
ENDBRANCH   1   2
BRANCH   1  11
HETATM   11  C   UNL     1     -21.605  -6.690  -3.564  1.00  0.00     0.296 C 
HETATM   12  O   UNL     1     -22.479  -6.031  -3.012  1.00  0.00    -0.259 OA
BRANCH  11  13
HETATM   13  C   UNL     1     -20.924  -6.245  -4.799  1.00  0.00     0.072 A 
HETATM   14  C   UNL     1     -20.446  -4.924  -4.834  1.00  0.00     0.020 A 
HETATM   15  C   UNL     1     -19.801  -4.441  -5.973  1.00  0.00     0.001 A 
HETATM   16  C   UNL     1     -19.628  -5.271  -7.080  1.00  0.00     0.003 A 
HETATM   17  C   UNL     1     -20.112  -6.579  -7.057  1.00  0.00     0.037 A 
HETATM   18  C   UNL     1     -20.768  -7.063  -5.924  1.00  0.00     0.082 A 
BRANCH  18  19
HETATM   19  O   UNL     1     -21.289  -8.323  -5.944  1.00  0.00    -0.360 OA
HETATM   20  H   UNL     1     -20.982  -8.816  -5.168  1.00  0.00     0.217 HD
ENDBRANCH  18  19
ENDBRANCH  11  13
ENDBRANCH   1  11
TORSDOF 4
ENDMDL
MODEL 7
REMARK VINA RESULT:      -6.9      3.673      5.827
REMARK  4 active torsions:
REMARK  status: ('A' for Active; 'I' for Inactive)
REMARK    1  A    between atoms: C_4  and  O_10 
REMARK    2  A    between atoms: O_10  and  C_11 
REMARK    3  A    between atoms: C_11  and  C_13 
REMARK    4  A    between atoms: C_18  and  O_19 
ROOT
HETATM    1  O   UNL     1     -20.136  -9.841  -4.124  1.00  0.00    -0.312 OA
ENDROOT
BRANCH   1   2
HETATM    2  C   UNL     1     -18.701  -9.881  -4.202  1.00  0.00     0.133 C 
HETATM    3  C   UNL     1     -18.290 -10.781  -5.369  1.00  0.00     0.037 C 
HETATM    4  C   UNL     1     -16.779 -11.010  -5.447  1.00  0.00    -0.015 C 
HETATM    5  C   UNL     1     -16.047  -9.798  -6.025  1.00  0.00     0.010 C 
HETATM    6  C   UNL     1     -16.225 -11.473  -4.091  1.00  0.00     0.013 C 
HETATM    7  C   UNL     1     -16.640 -10.633  -2.858  1.00  0.00    -0.045 C 
HETATM    8  C   UNL     1     -18.171 -10.433  -2.868  1.00  0.00     0.041 C 
HETATM    9  C   UNL     1     -15.913  -9.275  -2.809  1.00  0.00     0.015 C 
HETATM   10  C   UNL     1     -16.222 -11.407  -1.590  1.00  0.00     0.015 C 
ENDBRANCH   1   2
BRANCH   1  11
HETATM   11  C   UNL     1     -20.714  -8.658  -4.441  1.00  0.00     0.296 C 
HETATM   12  O   UNL     1     -20.847  -8.192  -5.566  1.00  0.00    -0.259 OA
BRANCH  11  13
HETATM   13  C   UNL     1     -21.274  -8.013  -3.233  1.00  0.00     0.072 A 
HETATM   14  C   UNL     1     -21.450  -8.815  -2.094  1.00  0.00     0.020 A 
HETATM   15  C   UNL     1     -21.981  -8.269  -0.925  1.00  0.00     0.001 A 
HETATM   16  C   UNL     1     -22.339  -6.921  -0.887  1.00  0.00     0.003 A 
HETATM   17  C   UNL     1     -22.180  -6.121  -2.019  1.00  0.00     0.037 A 
HETATM   18  C   UNL     1     -21.659  -6.667  -3.194  1.00  0.00     0.082 A 
BRANCH  18  19
HETATM   19  O   UNL     1     -21.570  -5.886  -4.308  1.00  0.00    -0.360 OA
HETATM   20  H   UNL     1     -22.304  -5.254  -4.323  1.00  0.00     0.217 HD
ENDBRANCH  18  19
ENDBRANCH  11  13
ENDBRANCH   1  11
TORSDOF 4
ENDMDL
MODEL 8
REMARK VINA RESULT:      -6.8      2.748      4.373
REMARK  4 active torsions:
REMARK  status: ('A' for Active; 'I' for Inactive)
REMARK    1  A    between atoms: C_4  and  O_10 
REMARK    2  A    between atoms: O_10  and  C_11 
REMARK    3  A    between atoms: C_11  and  C_13 
REMARK    4  A    between atoms: C_18  and  O_19 
ROOT
HETATM    1  O   UNL     1     -21.588  -9.778  -3.675  1.00  0.00    -0.312 OA
ENDROOT
BRANCH   1   2
HETATM    2  C   UNL     1     -21.867 -10.228  -2.338  1.00  0.00     0.133 C 
HETATM    3  C   UNL     1     -23.110 -11.121  -2.363  1.00  0.00     0.037 C 
HETATM    4  C   UNL     1     -23.581 -11.532  -0.967  1.00  0.00    -0.015 C 
HETATM    5  C   UNL     1     -22.708 -12.637  -0.371  1.00  0.00     0.010 C 
HETATM    6  C   UNL     1     -23.727 -10.304  -0.054  1.00  0.00     0.013 C 
HETATM    7  C   UNL     1     -22.522  -9.333  -0.017  1.00  0.00    -0.045 C 
HETATM    8  C   UNL     1     -22.099  -8.986  -1.462  1.00  0.00     0.041 C 
HETATM    9  C   UNL     1     -21.333  -9.911   0.775  1.00  0.00     0.015 C 
HETATM   10  C   UNL     1     -22.965  -8.051   0.719  1.00  0.00     0.015 C 
ENDBRANCH   1   2
BRANCH   1  11
HETATM   11  C   UNL     1     -20.456  -9.050  -3.830  1.00  0.00     0.296 C 
HETATM   12  O   UNL     1     -19.348  -9.326  -3.385  1.00  0.00    -0.259 OA
BRANCH  11  13
HETATM   13  C   UNL     1     -20.700  -7.891  -4.715  1.00  0.00     0.072 A 
HETATM   14  C   UNL     1     -21.846  -7.117  -4.465  1.00  0.00     0.020 A 
HETATM   15  C   UNL     1     -22.137  -6.014  -5.268  1.00  0.00     0.001 A 
HETATM   16  C   UNL     1     -21.289  -5.677  -6.323  1.00  0.00     0.003 A 
HETATM   17  C   UNL     1     -20.157  -6.450  -6.585  1.00  0.00     0.037 A 
HETATM   18  C   UNL     1     -19.868  -7.561  -5.791  1.00  0.00     0.082 A 
BRANCH  18  19
HETATM   19  O   UNL     1     -18.792  -8.339  -6.102  1.00  0.00    -0.360 OA
HETATM   20  H   UNL     1     -19.058  -9.271  -6.120  1.00  0.00     0.217 HD
ENDBRANCH  18  19
ENDBRANCH  11  13
ENDBRANCH   1  11
TORSDOF 4
ENDMDL
MODEL 9
REMARK VINA RESULT:      -6.6      3.810      6.369
REMARK  4 active torsions:
REMARK  status: ('A' for Active; 'I' for Inactive)
REMARK    1  A    between atoms: C_4  and  O_10 
REMARK    2  A    between atoms: O_10  and  C_11 
REMARK    3  A    between atoms: C_11  and  C_13 
REMARK    4  A    between atoms: C_18  and  O_19 
ROOT
HETATM    1  O   UNL     1     -19.253  -8.660  -4.225  1.00  0.00    -0.312 OA
ENDROOT
BRANCH   1   2
HETATM    2  C   UNL     1     -18.341  -9.733  -3.937  1.00  0.00     0.133 C 
HETATM    3  C   UNL     1     -17.387  -9.291  -2.825  1.00  0.00     0.037 C 
HETATM    4  C   UNL     1     -16.278 -10.308  -2.546  1.00  0.00    -0.015 C 
HETATM    5  C   UNL     1     -16.788 -11.501  -1.737  1.00  0.00     0.010 C 
HETATM    6  C   UNL     1     -15.562 -10.707  -3.846  1.00  0.00     0.013 C 
HETATM    7  C   UNL     1     -16.471 -11.123  -5.029  1.00  0.00    -0.045 C 
HETATM    8  C   UNL     1     -17.570 -10.055  -5.228  1.00  0.00     0.041 C 
HETATM    9  C   UNL     1     -17.095 -12.516  -4.821  1.00  0.00     0.015 C 
HETATM   10  C   UNL     1     -15.595 -11.212  -6.296  1.00  0.00     0.015 C 
ENDBRANCH   1   2
BRANCH   1  11
HETATM   11  C   UNL     1     -20.570  -8.959  -4.122  1.00  0.00     0.296 C 
HETATM   12  O   UNL     1     -21.179  -9.795  -4.780  1.00  0.00    -0.259 OA
BRANCH  11  13
HETATM   13  C   UNL     1     -21.192  -8.200  -3.015  1.00  0.00     0.072 A 
HETATM   14  C   UNL     1     -21.530  -8.912  -1.853  1.00  0.00     0.020 A 
HETATM   15  C   UNL     1     -22.126  -8.257  -0.775  1.00  0.00     0.001 A 
HETATM   16  C   UNL     1     -22.387  -6.889  -0.851  1.00  0.00     0.003 A 
HETATM   17  C   UNL     1     -22.066  -6.177  -2.008  1.00  0.00     0.037 A 
HETATM   18  C   UNL     1     -21.480  -6.832  -3.092  1.00  0.00     0.082 A 
BRANCH  18  19
HETATM   19  O   UNL     1     -21.232  -6.133  -4.237  1.00  0.00    -0.360 OA
HETATM   20  H   UNL     1     -21.939  -6.297  -4.879  1.00  0.00     0.217 HD
ENDBRANCH  18  19
ENDBRANCH  11  13
ENDBRANCH   1  11
TORSDOF 4
ENDMDL
