MODEL 1
REMARK VINA RESULT:     -10.0      0.000      0.000
REMARK  5 active torsions:
REMARK  status: ('A' for Active; 'I' for Inactive)
REMARK    1  A    between atoms: C_5  and  C_6 
REMARK    2  A    between atoms: C_5  and  C_14 
REMARK    3  A    between atoms: C_9  and  N_12 
REMARK    4  A    between atoms: C_17  and  N_20 
REMARK    5  A    between atoms: N_25  and  H_31 
ROOT
HETATM    1  C   UNL     1     -20.595  -9.842   0.217  1.00  0.00     0.050 C 
HETATM    2  C   UNL     1     -21.087  -8.815  -0.760  1.00  0.00    -0.035 C 
HETATM    3  C   UNL     1     -20.583  -8.708  -2.006  1.00  0.00     0.021 C 
HETATM    4  C   UNL     1     -21.064  -7.709  -2.968  1.00  0.00    -0.024 C 
HETATM    5  C   UNL     1     -20.765  -7.810  -4.301  1.00  0.00    -0.005 C 
HETATM    6  C   UNL     1     -21.807  -6.572  -2.406  1.00  0.00     0.014 C 
HETATM    7  C   UNL     1     -22.338  -6.626  -1.166  1.00  0.00     0.030 C 
HETATM    8  C   UNL     1     -22.195  -7.885  -0.399  1.00  0.00     0.032 C 
HETATM    9  N   UNL     1     -23.068  -8.184   0.500  1.00  0.00    -0.387 N 
HETATM   10  H   UNL     1     -23.900  -7.628   0.657  1.00  0.00     0.157 HD
ENDROOT
BRANCH   5  11
HETATM   11  C   UNL     1     -21.138  -6.726  -5.256  1.00  0.00    -0.024 A 
HETATM   12  C   UNL     1     -20.141  -6.071  -5.992  1.00  0.00     0.021 A 
HETATM   13  C   UNL     1     -20.453  -5.015  -6.868  1.00  0.00    -0.040 A 
HETATM   14  C   UNL     1     -21.796  -4.651  -7.062  1.00  0.00     0.011 A 
HETATM   15  C   UNL     1     -19.333  -4.308  -7.585  1.00  0.00     0.050 C 
HETATM   16  C   UNL     1     -22.787  -5.302  -6.315  1.00  0.00     0.024 A 
HETATM   17  C   UNL     1     -22.467  -6.339  -5.430  1.00  0.00     0.014 A 
BRANCH  14  18
HETATM   18  N   UNL     1     -22.146  -3.503  -7.793  1.00  0.00    -0.302 NA
HETATM   19  H   UNL     1     -22.139  -3.629  -8.799  1.00  0.00     0.124 HD
HETATM   20  H   UNL     1     -23.003  -3.062  -7.471  1.00  0.00     0.124 HD
ENDBRANCH  14  18
ENDBRANCH   5  11
BRANCH   5  21
HETATM   21  C   UNL     1     -20.116  -9.043  -4.836  1.00  0.00    -0.024 A 
HETATM   22  C   UNL     1     -18.723  -9.135  -4.969  1.00  0.00     0.021 A 
HETATM   23  C   UNL     1     -18.119 -10.300  -5.492  1.00  0.00    -0.040 A 
HETATM   24  C   UNL     1     -18.922 -11.396  -5.851  1.00  0.00     0.011 A 
HETATM   25  C   UNL     1     -16.621 -10.346  -5.635  1.00  0.00     0.050 C 
HETATM   26  C   UNL     1     -20.313 -11.283  -5.746  1.00  0.00     0.024 A 
HETATM   27  C   UNL     1     -20.906 -10.127  -5.225  1.00  0.00     0.014 A 
BRANCH  24  28
HETATM   28  N   UNL     1     -18.390 -12.507  -6.526  1.00  0.00    -0.302 NA
HETATM   29  H   UNL     1     -18.369 -12.413  -7.536  1.00  0.00     0.124 HD
HETATM   30  H   UNL     1     -17.501 -12.824  -6.152  1.00  0.00     0.124 HD
ENDBRANCH  24  28
ENDBRANCH   5  21
BRANCH   9  31
HETATM   31  H   UNL     1     -23.209  -9.182   0.726  1.00  0.00     0.269 HD
HETATM   32 CL   UNL     2     -24.014 -10.794  -0.804  1.00  0.00    -0.127 Cl
ENDBRANCH   9  31
TORSDOF 5
ENDMDL
MODEL 2
REMARK VINA RESULT:      -8.5      2.352      5.224
REMARK  5 active torsions:
REMARK  status: ('A' for Active; 'I' for Inactive)
REMARK    1  A    between atoms: C_5  and  C_6 
REMARK    2  A    between atoms: C_5  and  C_14 
REMARK    3  A    between atoms: C_9  and  N_12 
REMARK    4  A    between atoms: C_17  and  N_20 
REMARK    5  A    between atoms: N_25  and  H_31 
ROOT
HETATM    1  C   UNL     1     -17.979 -11.803  -2.709  1.00  0.00     0.050 C 
HETATM    2  C   UNL     1     -18.276 -10.655  -3.629  1.00  0.00    -0.035 C 
HETATM    3  C   UNL     1     -19.410  -9.933  -3.534  1.00  0.00     0.021 C 
HETATM    4  C   UNL     1     -19.703  -8.805  -4.428  1.00  0.00    -0.024 C 
HETATM    5  C   UNL     1     -20.693  -7.906  -4.130  1.00  0.00    -0.005 C 
HETATM    6  C   UNL     1     -18.931  -8.749  -5.677  1.00  0.00     0.014 C 
HETATM    7  C   UNL     1     -17.785  -9.447  -5.825  1.00  0.00     0.030 C 
HETATM    8  C   UNL     1     -17.295 -10.238  -4.672  1.00  0.00     0.032 C 
HETATM    9  N   UNL     1     -16.035 -10.478  -4.556  1.00  0.00    -0.387 N 
HETATM   10  H   UNL     1     -15.345 -10.082  -5.183  1.00  0.00     0.157 HD
ENDROOT
BRANCH   5  11
HETATM   11  C   UNL     1     -21.081  -6.841  -5.100  1.00  0.00    -0.024 A 
HETATM   12  C   UNL     1     -20.090  -6.158  -5.819  1.00  0.00     0.021 A 
HETATM   13  C   UNL     1     -20.418  -5.118  -6.708  1.00  0.00    -0.040 A 
HETATM   14  C   UNL     1     -21.768  -4.799  -6.933  1.00  0.00     0.011 A 
HETATM   15  C   UNL     1     -19.307  -4.378  -7.406  1.00  0.00     0.050 C 
HETATM   16  C   UNL     1     -22.753  -5.479  -6.203  1.00  0.00     0.024 A 
HETATM   17  C   UNL     1     -22.418  -6.500  -5.305  1.00  0.00     0.014 A 
BRANCH  14  18
HETATM   18  N   UNL     1     -22.141  -3.668  -7.679  1.00  0.00    -0.302 NA
HETATM   19  H   UNL     1     -21.871  -2.784  -7.262  1.00  0.00     0.124 HD
HETATM   20  H   UNL     1     -21.877  -3.724  -8.658  1.00  0.00     0.124 HD
ENDBRANCH  14  18
ENDBRANCH   5  11
BRANCH   5  21
HETATM   21  C   UNL     1     -21.361  -7.936  -2.795  1.00  0.00    -0.024 A 
HETATM   22  C   UNL     1     -21.754  -9.145  -2.203  1.00  0.00     0.021 A 
HETATM   23  C   UNL     1     -22.400  -9.162  -0.947  1.00  0.00    -0.040 A 
HETATM   24  C   UNL     1     -22.620  -7.953  -0.264  1.00  0.00     0.011 A 
HETATM   25  C   UNL     1     -22.822 -10.482  -0.359  1.00  0.00     0.050 C 
HETATM   26  C   UNL     1     -22.254  -6.749  -0.877  1.00  0.00     0.024 A 
HETATM   27  C   UNL     1     -21.612  -6.739  -2.121  1.00  0.00     0.014 A 
BRANCH  24  28
HETATM   28  N   UNL     1     -23.401  -7.899   0.902  1.00  0.00    -0.302 NA
HETATM   29  H   UNL     1     -23.639  -6.961   1.205  1.00  0.00     0.124 HD
HETATM   30  H   UNL     1     -24.211  -8.511   0.879  1.00  0.00     0.124 HD
ENDBRANCH  24  28
ENDBRANCH   5  21
BRANCH   9  31
HETATM   31  H   UNL     1     -15.660 -10.647  -3.608  1.00  0.00     0.269 HD
HETATM   32 CL   UNL     2     -14.432 -12.568  -2.984  1.00  0.00    -0.127 Cl
ENDBRANCH   9  31
TORSDOF 5
ENDMDL
MODEL 3
REMARK VINA RESULT:      -8.0      1.975      6.338
REMARK  5 active torsions:
REMARK  status: ('A' for Active; 'I' for Inactive)
REMARK    1  A    between atoms: C_5  and  C_6 
REMARK    2  A    between atoms: C_5  and  C_14 
REMARK    3  A    between atoms: C_9  and  N_12 
REMARK    4  A    between atoms: C_17  and  N_20 
REMARK    5  A    between atoms: N_25  and  H_31 
ROOT
HETATM    1  C   UNL     1     -16.955  -9.728  -6.678  1.00  0.00     0.050 C 
HETATM    2  C   UNL     1     -17.828  -9.830  -5.461  1.00  0.00    -0.035 C 
HETATM    3  C   UNL     1     -18.639  -8.826  -5.073  1.00  0.00     0.021 C 
HETATM    4  C   UNL     1     -19.500  -8.922  -3.886  1.00  0.00    -0.024 C 
HETATM    5  C   UNL     1     -20.524  -8.036  -3.682  1.00  0.00    -0.005 C 
HETATM    6  C   UNL     1     -19.148  -9.965  -2.912  1.00  0.00     0.014 C 
HETATM    7  C   UNL     1     -18.344 -10.996  -3.249  1.00  0.00     0.030 C 
HETATM    8  C   UNL     1     -17.862 -11.078  -4.647  1.00  0.00     0.032 C 
HETATM    9  N   UNL     1     -17.560 -12.226  -5.148  1.00  0.00    -0.387 N 
HETATM   10  H   UNL     1     -17.711 -13.095  -4.650  1.00  0.00     0.157 HD
ENDROOT
BRANCH   5  11
HETATM   11  C   UNL     1     -21.311  -8.050  -2.415  1.00  0.00    -0.024 A 
HETATM   12  C   UNL     1     -21.839  -9.256  -1.935  1.00  0.00     0.021 A 
HETATM   13  C   UNL     1     -22.623  -9.298  -0.767  1.00  0.00    -0.040 A 
HETATM   14  C   UNL     1     -22.828  -8.120  -0.029  1.00  0.00     0.011 A 
HETATM   15  C   UNL     1     -23.215 -10.613  -0.334  1.00  0.00     0.050 C 
HETATM   16  C   UNL     1     -22.306  -6.915  -0.520  1.00  0.00     0.024 A 
HETATM   17  C   UNL     1     -21.543  -6.878  -1.693  1.00  0.00     0.014 A 
BRANCH  14  18
HETATM   18  N   UNL     1     -23.733  -8.076   1.045  1.00  0.00    -0.302 NA
HETATM   19  H   UNL     1     -23.335  -7.739   1.915  1.00  0.00     0.124 HD
HETATM   20  H   UNL     1     -24.607  -7.609   0.821  1.00  0.00     0.124 HD
ENDBRANCH  14  18
ENDBRANCH   5  11
BRANCH   5  21
HETATM   21  C   UNL     1     -20.916  -7.077  -4.757  1.00  0.00    -0.024 A 
HETATM   22  C   UNL     1     -19.952  -6.396  -5.515  1.00  0.00     0.021 A 
HETATM   23  C   UNL     1     -20.331  -5.479  -6.519  1.00  0.00    -0.040 A 
HETATM   24  C   UNL     1     -21.695  -5.271  -6.788  1.00  0.00     0.011 A 
HETATM   25  C   UNL     1     -19.262  -4.757  -7.294  1.00  0.00     0.050 C 
HETATM   26  C   UNL     1     -22.651  -5.929  -6.005  1.00  0.00     0.024 A 
HETATM   27  C   UNL     1     -22.267  -6.839  -5.012  1.00  0.00     0.014 A 
BRANCH  24  28
HETATM   28  N   UNL     1     -22.127  -4.254  -7.655  1.00  0.00    -0.302 NA
HETATM   29  H   UNL     1     -23.067  -3.920  -7.474  1.00  0.00     0.124 HD
HETATM   30  H   UNL     1     -21.463  -3.493  -7.753  1.00  0.00     0.124 HD
ENDBRANCH  24  28
ENDBRANCH   5  21
BRANCH   9  31
HETATM   31  H   UNL     1     -17.626 -12.339  -6.173  1.00  0.00     0.269 HD
HETATM   32 CL   UNL     2     -19.654 -12.331  -7.387  1.00  0.00    -0.127 Cl
ENDBRANCH   9  31
TORSDOF 5
ENDMDL
MODEL 4
REMARK VINA RESULT:      -7.9      3.656      7.992
REMARK  5 active torsions:
REMARK  status: ('A' for Active; 'I' for Inactive)
REMARK    1  A    between atoms: C_5  and  C_6 
REMARK    2  A    between atoms: C_5  and  C_14 
REMARK    3  A    between atoms: C_9  and  N_12 
REMARK    4  A    between atoms: C_17  and  N_20 
REMARK    5  A    between atoms: N_25  and  H_31 
ROOT
HETATM    1  C   UNL     1     -16.297  -9.532  -2.969  1.00  0.00     0.050 C 
HETATM    2  C   UNL     1     -17.316 -10.590  -2.661  1.00  0.00    -0.035 C 
HETATM    3  C   UNL     1     -18.474 -10.310  -2.031  1.00  0.00     0.021 C 
HETATM    4  C   UNL     1     -19.478 -11.340  -1.731  1.00  0.00    -0.024 C 
HETATM    5  C   UNL     1     -20.756 -10.999  -1.375  1.00  0.00    -0.005 C 
HETATM    6  C   UNL     1     -19.008 -12.732  -1.764  1.00  0.00     0.014 C 
HETATM    7  C   UNL     1     -17.859 -13.070  -2.386  1.00  0.00     0.030 C 
HETATM    8  C   UNL     1     -17.102 -12.004  -3.082  1.00  0.00     0.032 C 
HETATM    9  N   UNL     1     -16.343 -12.310  -4.077  1.00  0.00    -0.387 N 
HETATM   10  H   UNL     1     -16.297 -13.247  -4.459  1.00  0.00     0.157 HD
ENDROOT
BRANCH   5  11
HETATM   11  C   UNL     1     -21.735 -12.038  -0.941  1.00  0.00    -0.024 A 
HETATM   12  C   UNL     1     -21.722 -12.499   0.382  1.00  0.00     0.021 A 
HETATM   13  C   UNL     1     -22.603 -13.509   0.813  1.00  0.00    -0.040 A 
HETATM   14  C   UNL     1     -23.559 -14.021  -0.080  1.00  0.00     0.011 A 
HETATM   15  C   UNL     1     -22.501 -14.008   2.230  1.00  0.00     0.050 C 
HETATM   16  C   UNL     1     -23.559 -13.563  -1.405  1.00  0.00     0.024 A 
HETATM   17  C   UNL     1     -22.667 -12.571  -1.832  1.00  0.00     0.014 A 
BRANCH  14  18
HETATM   18  N   UNL     1     -24.345 -15.139   0.248  1.00  0.00    -0.302 NA
HETATM   19  H   UNL     1     -23.893 -16.031   0.084  1.00  0.00     0.124 HD
HETATM   20  H   UNL     1     -24.759 -15.085   1.174  1.00  0.00     0.124 HD
ENDBRANCH  14  18
ENDBRANCH   5  11
BRANCH   5  21
HETATM   21  C   UNL     1     -21.214  -9.582  -1.477  1.00  0.00    -0.024 A 
HETATM   22  C   UNL     1     -21.270  -8.921  -2.713  1.00  0.00     0.021 A 
HETATM   23  C   UNL     1     -21.688  -7.575  -2.799  1.00  0.00    -0.040 A 
HETATM   24  C   UNL     1     -22.089  -6.899  -1.634  1.00  0.00     0.011 A 
HETATM   25  C   UNL     1     -21.714  -6.901  -4.144  1.00  0.00     0.050 C 
HETATM   26  C   UNL     1     -21.999  -7.555  -0.401  1.00  0.00     0.024 A 
HETATM   27  C   UNL     1     -21.585  -8.890  -0.323  1.00  0.00     0.014 A 
BRANCH  24  28
HETATM   28  N   UNL     1     -22.354  -5.519  -1.639  1.00  0.00    -0.302 NA
HETATM   29  H   UNL     1     -23.082  -5.229  -0.995  1.00  0.00     0.124 HD
HETATM   30  H   UNL     1     -21.522  -4.944  -1.559  1.00  0.00     0.124 HD
ENDBRANCH  24  28
ENDBRANCH   5  21
BRANCH   9  31
HETATM   31  H   UNL     1     -16.158 -11.582  -4.786  1.00  0.00     0.269 HD
HETATM   32 CL   UNL     2     -17.784 -10.721  -6.269  1.00  0.00    -0.127 Cl
ENDBRANCH   9  31
TORSDOF 5
ENDMDL
MODEL 5
REMARK VINA RESULT:      -7.7      3.730      7.780
REMARK  5 active torsions:
REMARK  status: ('A' for Active; 'I' for Inactive)
REMARK    1  A    between atoms: C_5  and  C_6 
REMARK    2  A    between atoms: C_5  and  C_14 
REMARK    3  A    between atoms: C_9  and  N_12 
REMARK    4  A    between atoms: C_17  and  N_20 
REMARK    5  A    between atoms: N_25  and  H_31 
ROOT
HETATM    1  C   UNL     1     -15.680  -9.547  -4.299  1.00  0.00     0.050 C 
HETATM    2  C   UNL     1     -16.574 -10.448  -3.498  1.00  0.00    -0.035 C 
HETATM    3  C   UNL     1     -17.759 -10.032  -3.007  1.00  0.00     0.021 C 
HETATM    4  C   UNL     1     -18.641 -10.910  -2.227  1.00  0.00    -0.024 C 
HETATM    5  C   UNL     1     -19.950 -10.576  -2.001  1.00  0.00    -0.005 C 
HETATM    6  C   UNL     1     -18.018 -12.110  -1.651  1.00  0.00     0.014 C 
HETATM    7  C   UNL     1     -16.836 -12.574  -2.108  1.00  0.00     0.030 C 
HETATM    8  C   UNL     1     -16.201 -11.869  -3.246  1.00  0.00     0.032 C 
HETATM    9  N   UNL     1     -15.409 -12.515  -4.031  1.00  0.00    -0.387 N 
HETATM   10  H   UNL     1     -15.258 -13.513  -3.951  1.00  0.00     0.157 HD
ENDROOT
BRANCH   5  11
HETATM   11  C   UNL     1     -20.808 -11.398  -1.099  1.00  0.00    -0.024 A 
HETATM   12  C   UNL     1     -21.790 -12.237  -1.644  1.00  0.00     0.021 A 
HETATM   13  C   UNL     1     -22.645 -12.993  -0.820  1.00  0.00    -0.040 A 
HETATM   14  C   UNL     1     -22.472 -12.958   0.574  1.00  0.00     0.011 A 
HETATM   15  C   UNL     1     -23.722 -13.828  -1.460  1.00  0.00     0.050 C 
HETATM   16  C   UNL     1     -21.496 -12.109   1.112  1.00  0.00     0.024 A 
HETATM   17  C   UNL     1     -20.660 -11.345   0.287  1.00  0.00     0.014 A 
BRANCH  14  18
HETATM   18  N   UNL     1     -23.398 -13.559   1.443  1.00  0.00    -0.302 NA
HETATM   19  H   UNL     1     -24.305 -13.107   1.466  1.00  0.00     0.124 HD
HETATM   20  H   UNL     1     -23.477 -14.564   1.320  1.00  0.00     0.124 HD
ENDBRANCH  14  18
ENDBRANCH   5  11
BRANCH   5  21
HETATM   21  C   UNL     1     -20.564  -9.415  -2.710  1.00  0.00    -0.024 A 
HETATM   22  C   UNL     1     -20.973  -8.268  -2.013  1.00  0.00     0.021 A 
HETATM   23  C   UNL     1     -21.569  -7.181  -2.689  1.00  0.00    -0.040 A 
HETATM   24  C   UNL     1     -21.721  -7.233  -4.086  1.00  0.00     0.011 A 
HETATM   25  C   UNL     1     -22.010  -5.979  -1.898  1.00  0.00     0.050 C 
HETATM   26  C   UNL     1     -21.341  -8.394  -4.769  1.00  0.00     0.024 A 
HETATM   27  C   UNL     1     -20.750  -9.467  -4.093  1.00  0.00     0.014 A 
BRANCH  24  28
HETATM   28  N   UNL     1     -22.453  -6.256  -4.782  1.00  0.00    -0.302 NA
HETATM   29  H   UNL     1     -21.978  -5.876  -5.593  1.00  0.00     0.124 HD
HETATM   30  H   UNL     1     -23.406  -6.534  -4.993  1.00  0.00     0.124 HD
ENDBRANCH  24  28
ENDBRANCH   5  21
BRANCH   9  31
HETATM   31  H   UNL     1     -15.305 -12.173  -5.000  1.00  0.00     0.269 HD
HETATM   32 CL   UNL     2     -13.417 -12.581  -6.362  1.00  0.00    -0.127 Cl
ENDBRANCH   9  31
TORSDOF 5
ENDMDL
MODEL 6
REMARK VINA RESULT:      -7.5     17.630     20.571
REMARK  5 active torsions:
REMARK  status: ('A' for Active; 'I' for Inactive)
REMARK    1  A    between atoms: C_5  and  C_6 
REMARK    2  A    between atoms: C_5  and  C_14 
REMARK    3  A    between atoms: C_9  and  N_12 
REMARK    4  A    between atoms: C_17  and  N_20 
REMARK    5  A    between atoms: N_25  and  H_31 
ROOT
HETATM    1  C   UNL     1     -31.422  12.336   2.005  1.00  0.00     0.050 C 
HETATM    2  C   UNL     1     -30.273  11.717   1.264  1.00  0.00    -0.035 C 
HETATM    3  C   UNL     1     -29.350  10.952   1.880  1.00  0.00     0.021 C 
HETATM    4  C   UNL     1     -28.227  10.338   1.160  1.00  0.00    -0.024 C 
HETATM    5  C   UNL     1     -27.487   9.334   1.727  1.00  0.00    -0.005 C 
HETATM    6  C   UNL     1     -27.906  10.914  -0.154  1.00  0.00     0.014 C 
HETATM    7  C   UNL     1     -28.794  11.684  -0.818  1.00  0.00     0.030 C 
HETATM    8  C   UNL     1     -30.129  11.893  -0.209  1.00  0.00     0.032 C 
HETATM    9  N   UNL     1     -31.140  12.144  -0.967  1.00  0.00    -0.387 N 
HETATM   10  H   UNL     1     -31.080  12.129  -1.978  1.00  0.00     0.157 HD
ENDROOT
BRANCH   5  11
HETATM   11  C   UNL     1     -26.266   8.805   1.052  1.00  0.00    -0.024 A 
HETATM   12  C   UNL     1     -24.998   9.104   1.570  1.00  0.00     0.021 A 
HETATM   13  C   UNL     1     -23.825   8.658   0.934  1.00  0.00    -0.040 A 
HETATM   14  C   UNL     1     -23.923   7.841  -0.205  1.00  0.00     0.011 A 
HETATM   15  C   UNL     1     -22.490   9.062   1.501  1.00  0.00     0.050 C 
HETATM   16  C   UNL     1     -25.193   7.555  -0.724  1.00  0.00     0.024 A 
HETATM   17  C   UNL     1     -26.357   8.018  -0.097  1.00  0.00     0.014 A 
BRANCH  14  18
HETATM   18  N   UNL     1     -22.791   7.508  -0.969  1.00  0.00    -0.302 NA
HETATM   19  H   UNL     1     -21.957   8.034  -0.732  1.00  0.00     0.124 HD
HETATM   20  H   UNL     1     -22.612   6.509  -1.014  1.00  0.00     0.124 HD
ENDBRANCH  14  18
ENDBRANCH   5  11
BRANCH   5  21
HETATM   21  C   UNL     1     -27.929   8.703   3.005  1.00  0.00    -0.024 A 
HETATM   22  C   UNL     1     -27.523   9.210   4.248  1.00  0.00     0.021 A 
HETATM   23  C   UNL     1     -27.933   8.597   5.452  1.00  0.00    -0.040 A 
HETATM   24  C   UNL     1     -28.789   7.483   5.406  1.00  0.00     0.011 A 
HETATM   25  C   UNL     1     -27.456   9.165   6.762  1.00  0.00     0.050 C 
HETATM   26  C   UNL     1     -29.162   6.963   4.161  1.00  0.00     0.024 A 
HETATM   27  C   UNL     1     -28.754   7.577   2.971  1.00  0.00     0.014 A 
BRANCH  24  28
HETATM   28  N   UNL     1     -29.090   6.739   6.559  1.00  0.00    -0.302 NA
HETATM   29  H   UNL     1     -28.360   6.744   7.263  1.00  0.00     0.124 HD
HETATM   30  H   UNL     1     -30.003   6.948   6.952  1.00  0.00     0.124 HD
ENDBRANCH  24  28
ENDBRANCH   5  21
BRANCH   9  31
HETATM   31  H   UNL     1     -32.079  11.889  -0.620  1.00  0.00     0.269 HD
HETATM   32 CL   UNL     2     -34.103  12.509  -1.672  1.00  0.00    -0.127 Cl
ENDBRANCH   9  31
TORSDOF 5
ENDMDL
MODEL 7
REMARK VINA RESULT:      -7.4      3.551      8.505
REMARK  5 active torsions:
REMARK  status: ('A' for Active; 'I' for Inactive)
REMARK    1  A    between atoms: C_5  and  C_6 
REMARK    2  A    between atoms: C_5  and  C_14 
REMARK    3  A    between atoms: C_9  and  N_12 
REMARK    4  A    between atoms: C_17  and  N_20 
REMARK    5  A    between atoms: N_25  and  H_31 
ROOT
HETATM    1  C   UNL     1     -19.667  -8.274  -5.400  1.00  0.00     0.050 C 
HETATM    2  C   UNL     1     -19.151  -9.464  -4.647  1.00  0.00    -0.035 C 
HETATM    3  C   UNL     1     -19.354  -9.621  -3.324  1.00  0.00     0.021 C 
HETATM    4  C   UNL     1     -18.857 -10.787  -2.582  1.00  0.00    -0.024 C 
HETATM    5  C   UNL     1     -19.324 -11.079  -1.328  1.00  0.00    -0.005 C 
HETATM    6  C   UNL     1     -17.788 -11.560  -3.230  1.00  0.00     0.014 C 
HETATM    7  C   UNL     1     -17.544 -11.447  -4.553  1.00  0.00     0.030 C 
HETATM    8  C   UNL     1     -18.418 -10.556  -5.350  1.00  0.00     0.032 C 
HETATM    9  N   UNL     1     -18.585 -10.788  -6.607  1.00  0.00    -0.387 N 
HETATM   10  H   UNL     1     -18.203 -11.607  -7.065  1.00  0.00     0.157 HD
ENDROOT
BRANCH   5  11
HETATM   11  C   UNL     1     -18.723 -12.182  -0.522  1.00  0.00    -0.024 A 
HETATM   12  C   UNL     1     -17.548 -11.953   0.206  1.00  0.00     0.021 A 
HETATM   13  C   UNL     1     -16.930 -12.982   0.941  1.00  0.00    -0.040 A 
HETATM   14  C   UNL     1     -17.537 -14.248   1.002  1.00  0.00     0.011 A 
HETATM   15  C   UNL     1     -15.635 -12.694   1.652  1.00  0.00     0.050 C 
HETATM   16  C   UNL     1     -18.707 -14.473   0.264  1.00  0.00     0.024 A 
HETATM   17  C   UNL     1     -19.306 -13.449  -0.481  1.00  0.00     0.014 A 
BRANCH  14  18
HETATM   18  N   UNL     1     -16.882 -15.348   1.581  1.00  0.00    -0.302 NA
HETATM   19  H   UNL     1     -17.297 -16.246   1.359  1.00  0.00     0.124 HD
HETATM   20  H   UNL     1     -15.877 -15.345   1.434  1.00  0.00     0.124 HD
ENDBRANCH  14  18
ENDBRANCH   5  11
BRANCH   5  21
HETATM   21  C   UNL     1     -20.493 -10.338  -0.768  1.00  0.00    -0.024 A 
HETATM   22  C   UNL     1     -21.769 -10.919  -0.718  1.00  0.00     0.021 A 
HETATM   23  C   UNL     1     -22.872 -10.205  -0.203  1.00  0.00    -0.040 A 
HETATM   24  C   UNL     1     -22.683  -8.907   0.301  1.00  0.00     0.011 A 
HETATM   25  C   UNL     1     -24.226 -10.862  -0.186  1.00  0.00     0.050 C 
HETATM   26  C   UNL     1     -21.414  -8.322   0.216  1.00  0.00     0.024 A 
HETATM   27  C   UNL     1     -20.324  -9.036  -0.294  1.00  0.00     0.014 A 
BRANCH  24  28
HETATM   28  N   UNL     1     -23.770  -8.096   0.670  1.00  0.00    -0.302 NA
HETATM   29  H   UNL     1     -23.586  -7.480   1.455  1.00  0.00     0.124 HD
HETATM   30  H   UNL     1     -24.195  -7.605  -0.110  1.00  0.00     0.124 HD
ENDBRANCH  24  28
ENDBRANCH   5  21
BRANCH   9  31
HETATM   31  H   UNL     1     -19.459 -10.457  -7.048  1.00  0.00     0.269 HD
HETATM   32 CL   UNL     2     -21.559 -11.512  -6.801  1.00  0.00    -0.127 Cl
ENDBRANCH   9  31
TORSDOF 5
ENDMDL
MODEL 8
REMARK VINA RESULT:      -7.1     17.183     20.257
REMARK  5 active torsions:
REMARK  status: ('A' for Active; 'I' for Inactive)
REMARK    1  A    between atoms: C_5  and  C_6 
REMARK    2  A    between atoms: C_5  and  C_14 
REMARK    3  A    between atoms: C_9  and  N_12 
REMARK    4  A    between atoms: C_17  and  N_20 
REMARK    5  A    between atoms: N_25  and  H_31 
ROOT
HETATM    1  C   UNL     1     -31.138  12.344   0.530  1.00  0.00     0.050 C 
HETATM    2  C   UNL     1     -30.014  11.570  -0.095  1.00  0.00    -0.035 C 
HETATM    3  C   UNL     1     -29.032  11.012   0.640  1.00  0.00     0.021 C 
HETATM    4  C   UNL     1     -27.932  10.249   0.035  1.00  0.00    -0.024 C 
HETATM    5  C   UNL     1     -27.127   9.445   0.798  1.00  0.00    -0.005 C 
HETATM    6  C   UNL     1     -27.708  10.461  -1.402  1.00  0.00     0.014 C 
HETATM    7  C   UNL     1     -28.660  11.010  -2.186  1.00  0.00     0.030 C 
HETATM    8  C   UNL     1     -29.962  11.351  -1.568  1.00  0.00     0.032 C 
HETATM    9  N   UNL     1     -31.024  11.374  -2.298  1.00  0.00    -0.387 N 
HETATM   10  H   UNL     1     -31.023  11.091  -3.270  1.00  0.00     0.157 HD
ENDROOT
BRANCH   5  11
HETATM   11  C   UNL     1     -25.930   8.777   0.209  1.00  0.00    -0.024 A 
HETATM   12  C   UNL     1     -26.059   8.024  -0.966  1.00  0.00     0.021 A 
HETATM   13  C   UNL     1     -24.960   7.344  -1.523  1.00  0.00    -0.040 A 
HETATM   14  C   UNL     1     -23.692   7.474  -0.930  1.00  0.00     0.011 A 
HETATM   15  C   UNL     1     -25.172   6.500  -2.752  1.00  0.00     0.050 C 
HETATM   16  C   UNL     1     -23.573   8.219   0.251  1.00  0.00     0.024 A 
HETATM   17  C   UNL     1     -24.675   8.878   0.811  1.00  0.00     0.014 A 
BRANCH  14  18
HETATM   18  N   UNL     1     -22.604   6.689  -1.346  1.00  0.00    -0.302 NA
HETATM   19  H   UNL     1     -22.267   6.036  -0.648  1.00  0.00     0.124 HD
HETATM   20  H   UNL     1     -22.746   6.243  -2.248  1.00  0.00     0.124 HD
ENDBRANCH  14  18
ENDBRANCH   5  11
BRANCH   5  21
HETATM   21  C   UNL     1     -27.472   9.169   2.224  1.00  0.00    -0.024 A 
HETATM   22  C   UNL     1     -28.277   8.077   2.582  1.00  0.00     0.021 A 
HETATM   23  C   UNL     1     -28.612   7.833   3.931  1.00  0.00    -0.040 A 
HETATM   24  C   UNL     1     -28.102   8.675   4.935  1.00  0.00     0.011 A 
HETATM   25  C   UNL     1     -29.494   6.661   4.266  1.00  0.00     0.050 C 
HETATM   26  C   UNL     1     -27.327   9.781   4.567  1.00  0.00     0.024 A 
HETATM   27  C   UNL     1     -26.997  10.016   3.227  1.00  0.00     0.014 A 
BRANCH  24  28
HETATM   28  N   UNL     1     -28.536   8.576   6.268  1.00  0.00    -0.302 NA
HETATM   29  H   UNL     1     -27.800   8.682   6.957  1.00  0.00     0.124 HD
HETATM   30  H   UNL     1     -29.343   9.156   6.477  1.00  0.00     0.124 HD
ENDBRANCH  24  28
ENDBRANCH   5  21
BRANCH   9  31
HETATM   31  H   UNL     1     -31.933  11.203  -1.835  1.00  0.00     0.269 HD
HETATM   32 CL   UNL     2     -33.849  12.556  -2.122  1.00  0.00    -0.127 Cl
ENDBRANCH   9  31
TORSDOF 5
ENDMDL
