MODEL 1
REMARK VINA RESULT:      -6.6      0.000      0.000
REMARK  13 active torsions:
REMARK  status: ('A' for Active; 'I' for Inactive)
REMARK    1  A    between atoms: C_2  and  C_3 
REMARK    2  A    between atoms: C_3  and  C_4 
REMARK    3  A    between atoms: C_4  and  C_5 
REMARK    4  A    between atoms: C_5  and  C_6 
REMARK    5  A    between atoms: C_6  and  C_7 
REMARK    6  A    between atoms: C_7  and  C_8 
REMARK    7  A    between atoms: C_8  and  C_9 
REMARK    8  A    between atoms: C_9  and  C_10 
REMARK    9  A    between atoms: C_10  and  C_11 
REMARK   10  A    between atoms: C_11  and  C_12 
REMARK       I    between atoms: C_12  and  N_14 
REMARK   11  A    between atoms: N_14  and  C_15 
REMARK   12  A    between atoms: C_15  and  C_16 
REMARK   13  A    between atoms: C_16  and  O_17 
ROOT
HETATM    1  C   UNL     1     -21.579  -4.296 -11.431  1.00  0.00     0.009 C 
ENDROOT
BRANCH   1   2
HETATM    2  C   UNL     1     -20.544  -4.005 -10.349  1.00  0.00     0.000 C 
BRANCH   2   3
HETATM    3  C   UNL     1     -21.021  -4.559  -9.007  1.00  0.00     0.000 C 
BRANCH   3   4
HETATM    4  C   UNL     1     -20.368  -3.821  -7.846  1.00  0.00     0.000 C 
BRANCH   4   5
HETATM    5  C   UNL     1     -20.579  -4.577  -6.537  1.00  0.00     0.000 C 
BRANCH   5   6
HETATM    6  C   UNL     1     -21.116  -5.979  -6.805  1.00  0.00     0.000 C 
BRANCH   6   7
HETATM    7  C   UNL     1     -21.799  -6.549  -5.566  1.00  0.00     0.000 C 
BRANCH   7   8
HETATM    8  C   UNL     1     -21.109  -6.060  -4.295  1.00  0.00    -0.000 C 
BRANCH   8   9
HETATM    9  C   UNL     1     -21.474  -6.933  -3.099  1.00  0.00    -0.005 C 
HETATM   10  C   UNL     1     -22.120  -6.108  -1.999  1.00  0.00     0.005 C 
ENDBRANCH   8   9
ENDBRANCH   7   8
ENDBRANCH   6   7
ENDBRANCH   5   6
ENDBRANCH   4   5
ENDBRANCH   3   4
ENDBRANCH   2   3
ENDBRANCH   1   2
BRANCH   1  11
HETATM   11  C   UNL     1     -22.902  -3.583 -11.178  1.00  0.00     0.103 C 
BRANCH  11  12
HETATM   12  C   UNL     1     -23.547  -3.185 -12.490  1.00  0.00     0.217 C 
HETATM   13  O   UNL     1     -24.761  -3.097 -12.651  1.00  0.00    -0.274 OA
HETATM   14  N   UNL     1     -22.648  -2.926 -13.498  1.00  0.00    -0.359 N 
HETATM   15  H   UNL     1     -21.654  -2.973 -13.318  1.00  0.00     0.162 HD
BRANCH  14  16
HETATM   16  C   UNL     1     -23.109  -2.576 -14.834  1.00  0.00     0.148 C 
BRANCH  16  17
HETATM   17  C   UNL     1     -23.385  -1.080 -14.971  1.00  0.00     0.183 C 
BRANCH  17  18
HETATM   18  O   UNL     1     -24.741  -0.801 -14.623  1.00  0.00    -0.399 OA
HETATM   19  H   UNL     1     -24.765  -0.764 -13.652  1.00  0.00     0.209 HD
ENDBRANCH  17  18
ENDBRANCH  16  17
ENDBRANCH  14  16
ENDBRANCH  11  12
ENDBRANCH   1  11
TORSDOF 13
ENDMDL
MODEL 2
REMARK VINA RESULT:      -6.5      1.589      2.118
REMARK  13 active torsions:
REMARK  status: ('A' for Active; 'I' for Inactive)
REMARK    1  A    between atoms: C_2  and  C_3 
REMARK    2  A    between atoms: C_3  and  C_4 
REMARK    3  A    between atoms: C_4  and  C_5 
REMARK    4  A    between atoms: C_5  and  C_6 
REMARK    5  A    between atoms: C_6  and  C_7 
REMARK    6  A    between atoms: C_7  and  C_8 
REMARK    7  A    between atoms: C_8  and  C_9 
REMARK    8  A    between atoms: C_9  and  C_10 
REMARK    9  A    between atoms: C_10  and  C_11 
REMARK   10  A    between atoms: C_11  and  C_12 
REMARK       I    between atoms: C_12  and  N_14 
REMARK   11  A    between atoms: N_14  and  C_15 
REMARK   12  A    between atoms: C_15  and  C_16 
REMARK   13  A    between atoms: C_16  and  O_17 
ROOT
HETATM    1  C   UNL     1     -22.119  -4.163  -9.410  1.00  0.00     0.009 C 
ENDROOT
BRANCH   1   2
HETATM    2  C   UNL     1     -21.394  -5.041  -8.395  1.00  0.00     0.000 C 
BRANCH   2   3
HETATM    3  C   UNL     1     -20.433  -4.193  -7.562  1.00  0.00     0.000 C 
BRANCH   3   4
HETATM    4  C   UNL     1     -20.467  -4.605  -6.096  1.00  0.00     0.000 C 
BRANCH   4   5
HETATM    5  C   UNL     1     -20.682  -6.110  -5.960  1.00  0.00     0.000 C 
BRANCH   5   6
HETATM    6  C   UNL     1     -21.884  -6.404  -5.068  1.00  0.00     0.000 C 
BRANCH   6   7
HETATM    7  C   UNL     1     -21.802  -7.813  -4.489  1.00  0.00     0.000 C 
BRANCH   7   8
HETATM    8  C   UNL     1     -21.215  -7.784  -3.080  1.00  0.00    -0.000 C 
BRANCH   8   9
HETATM    9  C   UNL     1     -21.559  -6.481  -2.366  1.00  0.00    -0.005 C 
HETATM   10  C   UNL     1     -22.317  -6.750  -1.077  1.00  0.00     0.005 C 
ENDBRANCH   8   9
ENDBRANCH   7   8
ENDBRANCH   6   7
ENDBRANCH   5   6
ENDBRANCH   4   5
ENDBRANCH   3   4
ENDBRANCH   2   3
ENDBRANCH   1   2
BRANCH   1  11
HETATM   11  C   UNL     1     -23.528  -3.796  -8.960  1.00  0.00     0.103 C 
BRANCH  11  12
HETATM   12  C   UNL     1     -24.379  -3.409 -10.153  1.00  0.00     0.217 C 
HETATM   13  O   UNL     1     -25.591  -3.223 -10.090  1.00  0.00    -0.274 OA
HETATM   14  N   UNL     1     -23.672  -3.282 -11.325  1.00  0.00    -0.359 N 
HETATM   15  H   UNL     1     -22.669  -3.407 -11.331  1.00  0.00     0.162 HD
BRANCH  14  16
HETATM   16  C   UNL     1     -24.351  -2.961 -12.573  1.00  0.00     0.148 C 
BRANCH  16  17
HETATM   17  C   UNL     1     -23.365  -2.646 -13.696  1.00  0.00     0.183 C 
BRANCH  17  18
HETATM   18  O   UNL     1     -23.604  -3.506 -14.809  1.00  0.00    -0.399 OA
HETATM   19  H   UNL     1     -23.681  -4.403 -14.442  1.00  0.00     0.209 HD
ENDBRANCH  17  18
ENDBRANCH  16  17
ENDBRANCH  14  16
ENDBRANCH  11  12
ENDBRANCH   1  11
TORSDOF 13
ENDMDL
MODEL 3
REMARK VINA RESULT:      -6.5     12.461     14.017
REMARK  13 active torsions:
REMARK  status: ('A' for Active; 'I' for Inactive)
REMARK    1  A    between atoms: C_2  and  C_3 
REMARK    2  A    between atoms: C_3  and  C_4 
REMARK    3  A    between atoms: C_4  and  C_5 
REMARK    4  A    between atoms: C_5  and  C_6 
REMARK    5  A    between atoms: C_6  and  C_7 
REMARK    6  A    between atoms: C_7  and  C_8 
REMARK    7  A    between atoms: C_8  and  C_9 
REMARK    8  A    between atoms: C_9  and  C_10 
REMARK    9  A    between atoms: C_10  and  C_11 
REMARK   10  A    between atoms: C_11  and  C_12 
REMARK       I    between atoms: C_12  and  N_14 
REMARK   11  A    between atoms: N_14  and  C_15 
REMARK   12  A    between atoms: C_15  and  C_16 
REMARK   13  A    between atoms: C_16  and  O_17 
ROOT
HETATM    1  C   UNL     1     -35.984  -0.459 -11.637  1.00  0.00     0.009 C 
ENDROOT
BRANCH   1   2
HETATM    2  C   UNL     1     -36.019  -1.422 -10.455  1.00  0.00     0.000 C 
BRANCH   2   3
HETATM    3  C   UNL     1     -35.177  -2.660 -10.764  1.00  0.00     0.000 C 
BRANCH   3   4
HETATM    4  C   UNL     1     -33.709  -2.295 -10.944  1.00  0.00     0.000 C 
BRANCH   4   5
HETATM    5  C   UNL     1     -32.907  -3.500 -11.428  1.00  0.00     0.000 C 
BRANCH   5   6
HETATM    6  C   UNL     1     -33.837  -4.627 -11.862  1.00  0.00     0.000 C 
BRANCH   6   7
HETATM    7  C   UNL     1     -33.546  -5.907 -11.083  1.00  0.00     0.000 C 
BRANCH   7   8
HETATM    8  C   UNL     1     -34.575  -6.110  -9.975  1.00  0.00    -0.000 C 
BRANCH   8   9
HETATM    9  C   UNL     1     -35.002  -7.571  -9.881  1.00  0.00    -0.005 C 
HETATM   10  C   UNL     1     -33.800  -8.497  -9.962  1.00  0.00     0.005 C 
ENDBRANCH   8   9
ENDBRANCH   7   8
ENDBRANCH   6   7
ENDBRANCH   5   6
ENDBRANCH   4   5
ENDBRANCH   3   4
ENDBRANCH   2   3
ENDBRANCH   1   2
BRANCH   1  11
HETATM   11  C   UNL     1     -37.369  -0.199 -12.218  1.00  0.00     0.103 C 
BRANCH  11  12
HETATM   12  C   UNL     1     -37.302  -0.120 -13.729  1.00  0.00     0.217 C 
HETATM   13  O   UNL     1     -38.074  -0.716 -14.475  1.00  0.00    -0.274 OA
HETATM   14  N   UNL     1     -36.292   0.684 -14.202  1.00  0.00    -0.359 N 
HETATM   15  H   UNL     1     -35.698   1.188 -13.557  1.00  0.00     0.162 HD
BRANCH  14  16
HETATM   16  C   UNL     1     -36.063   0.829 -15.632  1.00  0.00     0.148 C 
BRANCH  16  17
HETATM   17  C   UNL     1     -35.695  -0.498 -16.290  1.00  0.00     0.183 C 
BRANCH  17  18
HETATM   18  O   UNL     1     -36.676  -0.847 -17.266  1.00  0.00    -0.399 OA
HETATM   19  H   UNL     1     -36.898  -1.780 -17.101  1.00  0.00     0.209 HD
ENDBRANCH  17  18
ENDBRANCH  16  17
ENDBRANCH  14  16
ENDBRANCH  11  12
ENDBRANCH   1  11
TORSDOF 13
ENDMDL
MODEL 4
REMARK VINA RESULT:      -6.4     12.217     13.777
REMARK  13 active torsions:
REMARK  status: ('A' for Active; 'I' for Inactive)
REMARK    1  A    between atoms: C_2  and  C_3 
REMARK    2  A    between atoms: C_3  and  C_4 
REMARK    3  A    between atoms: C_4  and  C_5 
REMARK    4  A    between atoms: C_5  and  C_6 
REMARK    5  A    between atoms: C_6  and  C_7 
REMARK    6  A    between atoms: C_7  and  C_8 
REMARK    7  A    between atoms: C_8  and  C_9 
REMARK    8  A    between atoms: C_9  and  C_10 
REMARK    9  A    between atoms: C_10  and  C_11 
REMARK   10  A    between atoms: C_11  and  C_12 
REMARK       I    between atoms: C_12  and  N_14 
REMARK   11  A    between atoms: N_14  and  C_15 
REMARK   12  A    between atoms: C_15  and  C_16 
REMARK   13  A    between atoms: C_16  and  O_17 
ROOT
HETATM    1  C   UNL     1     -34.780   0.774 -14.493  1.00  0.00     0.009 C 
ENDROOT
BRANCH   1   2
HETATM    2  C   UNL     1     -35.037   0.720 -12.991  1.00  0.00     0.000 C 
BRANCH   2   3
HETATM    3  C   UNL     1     -35.842  -0.531 -12.642  1.00  0.00     0.000 C 
BRANCH   3   4
HETATM    4  C   UNL     1     -34.936  -1.750 -12.517  1.00  0.00     0.000 C 
BRANCH   4   5
HETATM    5  C   UNL     1     -34.599  -2.026 -11.054  1.00  0.00     0.000 C 
BRANCH   5   6
HETATM    6  C   UNL     1     -33.201  -2.623 -10.927  1.00  0.00     0.000 C 
BRANCH   6   7
HETATM    7  C   UNL     1     -33.194  -4.091 -11.340  1.00  0.00     0.000 C 
BRANCH   7   8
HETATM    8  C   UNL     1     -34.193  -4.891 -10.508  1.00  0.00    -0.000 C 
BRANCH   8   9
HETATM    9  C   UNL     1     -34.120  -6.378 -10.839  1.00  0.00    -0.005 C 
HETATM   10  C   UNL     1     -34.824  -7.208  -9.780  1.00  0.00     0.005 C 
ENDBRANCH   8   9
ENDBRANCH   7   8
ENDBRANCH   6   7
ENDBRANCH   5   6
ENDBRANCH   4   5
ENDBRANCH   3   4
ENDBRANCH   2   3
ENDBRANCH   1   2
BRANCH   1  11
HETATM   11  C   UNL     1     -36.067   0.700 -15.307  1.00  0.00     0.103 C 
BRANCH  11  12
HETATM   12  C   UNL     1     -36.028  -0.485 -16.249  1.00  0.00     0.217 C 
HETATM   13  O   UNL     1     -36.937  -0.765 -17.026  1.00  0.00    -0.274 OA
HETATM   14  N   UNL     1     -34.876  -1.231 -16.161  1.00  0.00    -0.359 N 
HETATM   15  H   UNL     1     -34.134  -0.949 -15.535  1.00  0.00     0.162 HD
BRANCH  14  16
HETATM   16  C   UNL     1     -34.703  -2.431 -16.967  1.00  0.00     0.148 C 
BRANCH  16  17
HETATM   17  C   UNL     1     -34.305  -3.637 -16.120  1.00  0.00     0.183 C 
BRANCH  17  18
HETATM   18  O   UNL     1     -33.080  -4.189 -16.601  1.00  0.00    -0.399 OA
HETATM   19  H   UNL     1     -33.170  -4.237 -17.568  1.00  0.00     0.209 HD
ENDBRANCH  17  18
ENDBRANCH  16  17
ENDBRANCH  14  16
ENDBRANCH  11  12
ENDBRANCH   1  11
TORSDOF 13
ENDMDL
MODEL 5
REMARK VINA RESULT:      -6.2      1.716      2.926
REMARK  13 active torsions:
REMARK  status: ('A' for Active; 'I' for Inactive)
REMARK    1  A    between atoms: C_2  and  C_3 
REMARK    2  A    between atoms: C_3  and  C_4 
REMARK    3  A    between atoms: C_4  and  C_5 
REMARK    4  A    between atoms: C_5  and  C_6 
REMARK    5  A    between atoms: C_6  and  C_7 
REMARK    6  A    between atoms: C_7  and  C_8 
REMARK    7  A    between atoms: C_8  and  C_9 
REMARK    8  A    between atoms: C_9  and  C_10 
REMARK    9  A    between atoms: C_10  and  C_11 
REMARK   10  A    between atoms: C_11  and  C_12 
REMARK       I    between atoms: C_12  and  N_14 
REMARK   11  A    between atoms: N_14  and  C_15 
REMARK   12  A    between atoms: C_15  and  C_16 
REMARK   13  A    between atoms: C_16  and  O_17 
ROOT
HETATM    1  C   UNL     1     -22.355  -4.702  -8.614  1.00  0.00     0.009 C 
ENDROOT
BRANCH   1   2
HETATM    2  C   UNL     1     -21.574  -4.540  -7.314  1.00  0.00     0.000 C 
BRANCH   2   3
HETATM    3  C   UNL     1     -21.113  -5.905  -6.807  1.00  0.00     0.000 C 
BRANCH   3   4
HETATM    4  C   UNL     1     -21.055  -5.935  -5.285  1.00  0.00     0.000 C 
BRANCH   4   5
HETATM    5  C   UNL     1     -20.714  -7.336  -4.783  1.00  0.00     0.000 C 
BRANCH   5   6
HETATM    6  C   UNL     1     -21.123  -7.499  -3.323  1.00  0.00     0.000 C 
BRANCH   6   7
HETATM    7  C   UNL     1     -21.534  -6.159  -2.718  1.00  0.00     0.000 C 
BRANCH   7   8
HETATM    8  C   UNL     1     -22.300  -6.368  -1.415  1.00  0.00    -0.000 C 
BRANCH   8   9
HETATM    9  C   UNL     1     -21.859  -7.649  -0.715  1.00  0.00    -0.005 C 
HETATM   10  C   UNL     1     -22.890  -8.095   0.308  1.00  0.00     0.005 C 
ENDBRANCH   8   9
ENDBRANCH   7   8
ENDBRANCH   6   7
ENDBRANCH   5   6
ENDBRANCH   4   5
ENDBRANCH   3   4
ENDBRANCH   2   3
ENDBRANCH   1   2
BRANCH   1  11
HETATM   11  C   UNL     1     -23.689  -3.965  -8.587  1.00  0.00     0.103 C 
BRANCH  11  12
HETATM   12  C   UNL     1     -24.211  -3.766  -9.996  1.00  0.00     0.217 C 
HETATM   13  O   UNL     1     -25.292  -3.244 -10.252  1.00  0.00    -0.274 OA
HETATM   14  N   UNL     1     -23.361  -4.225 -10.975  1.00  0.00    -0.359 N 
HETATM   15  H   UNL     1     -22.463  -4.616 -10.728  1.00  0.00     0.162 HD
BRANCH  14  16
HETATM   16  C   UNL     1     -23.736  -4.150 -12.380  1.00  0.00     0.148 C 
BRANCH  16  17
HETATM   17  C   UNL     1     -23.518  -2.754 -12.958  1.00  0.00     0.183 C 
BRANCH  17  18
HETATM   18  O   UNL     1     -24.775  -2.121 -13.192  1.00  0.00    -0.399 OA
HETATM   19  H   UNL     1     -25.364  -2.815 -13.533  1.00  0.00     0.209 HD
ENDBRANCH  17  18
ENDBRANCH  16  17
ENDBRANCH  14  16
ENDBRANCH  11  12
ENDBRANCH   1  11
TORSDOF 13
ENDMDL
MODEL 6
REMARK VINA RESULT:      -6.0      2.986      5.363
REMARK  13 active torsions:
REMARK  status: ('A' for Active; 'I' for Inactive)
REMARK    1  A    between atoms: C_2  and  C_3 
REMARK    2  A    between atoms: C_3  and  C_4 
REMARK    3  A    between atoms: C_4  and  C_5 
REMARK    4  A    between atoms: C_5  and  C_6 
REMARK    5  A    between atoms: C_6  and  C_7 
REMARK    6  A    between atoms: C_7  and  C_8 
REMARK    7  A    between atoms: C_8  and  C_9 
REMARK    8  A    between atoms: C_9  and  C_10 
REMARK    9  A    between atoms: C_10  and  C_11 
REMARK   10  A    between atoms: C_11  and  C_12 
REMARK       I    between atoms: C_12  and  N_14 
REMARK   11  A    between atoms: N_14  and  C_15 
REMARK   12  A    between atoms: C_15  and  C_16 
REMARK   13  A    between atoms: C_16  and  O_17 
ROOT
HETATM    1  C   UNL     1     -20.076  -6.009  -6.551  1.00  0.00     0.009 C 
ENDROOT
BRANCH   1   2
HETATM    2  C   UNL     1     -20.876  -6.909  -5.616  1.00  0.00     0.000 C 
BRANCH   2   3
HETATM    3  C   UNL     1     -21.456  -6.087  -4.466  1.00  0.00     0.000 C 
BRANCH   3   4
HETATM    4  C   UNL     1     -21.367  -6.846  -3.149  1.00  0.00     0.000 C 
BRANCH   4   5
HETATM    5  C   UNL     1     -22.082  -6.085  -2.035  1.00  0.00     0.000 C 
BRANCH   5   6
HETATM    6  C   UNL     1     -22.358  -7.002  -0.848  1.00  0.00     0.000 C 
BRANCH   6   7
HETATM    7  C   UNL     1     -21.522  -8.275  -0.935  1.00  0.00     0.000 C 
BRANCH   7   8
HETATM    8  C   UNL     1     -21.951  -9.277   0.133  1.00  0.00    -0.000 C 
BRANCH   8   9
HETATM    9  C   UNL     1     -23.468  -9.439   0.159  1.00  0.00    -0.005 C 
HETATM   10  C   UNL     1     -23.871 -10.856  -0.212  1.00  0.00     0.005 C 
ENDBRANCH   8   9
ENDBRANCH   7   8
ENDBRANCH   6   7
ENDBRANCH   5   6
ENDBRANCH   4   5
ENDBRANCH   3   4
ENDBRANCH   2   3
ENDBRANCH   1   2
BRANCH   1  11
HETATM   11  C   UNL     1     -20.679  -4.614  -6.673  1.00  0.00     0.103 C 
BRANCH  11  12
HETATM   12  C   UNL     1     -21.167  -4.372  -8.087  1.00  0.00     0.217 C 
HETATM   13  O   UNL     1     -20.521  -4.670  -9.088  1.00  0.00    -0.274 OA
HETATM   14  N   UNL     1     -22.408  -3.784  -8.157  1.00  0.00    -0.359 N 
HETATM   15  H   UNL     1     -22.926  -3.586  -7.311  1.00  0.00     0.162 HD
BRANCH  14  16
HETATM   16  C   UNL     1     -22.999  -3.442  -9.443  1.00  0.00     0.148 C 
BRANCH  16  17
HETATM   17  C   UNL     1     -24.427  -3.967  -9.574  1.00  0.00     0.183 C 
BRANCH  17  18
HETATM   18  O   UNL     1     -25.126  -3.232 -10.579  1.00  0.00    -0.399 OA
HETATM   19  H   UNL     1     -26.022  -3.088 -10.229  1.00  0.00     0.209 HD
ENDBRANCH  17  18
ENDBRANCH  16  17
ENDBRANCH  14  16
ENDBRANCH  11  12
ENDBRANCH   1  11
TORSDOF 13
ENDMDL
MODEL 7
REMARK VINA RESULT:      -5.9     11.818     13.554
REMARK  13 active torsions:
REMARK  status: ('A' for Active; 'I' for Inactive)
REMARK    1  A    between atoms: C_2  and  C_3 
REMARK    2  A    between atoms: C_3  and  C_4 
REMARK    3  A    between atoms: C_4  and  C_5 
REMARK    4  A    between atoms: C_5  and  C_6 
REMARK    5  A    between atoms: C_6  and  C_7 
REMARK    6  A    between atoms: C_7  and  C_8 
REMARK    7  A    between atoms: C_8  and  C_9 
REMARK    8  A    between atoms: C_9  and  C_10 
REMARK    9  A    between atoms: C_10  and  C_11 
REMARK   10  A    between atoms: C_11  and  C_12 
REMARK       I    between atoms: C_12  and  N_14 
REMARK   11  A    between atoms: N_14  and  C_15 
REMARK   12  A    between atoms: C_15  and  C_16 
REMARK   13  A    between atoms: C_16  and  O_17 
ROOT
HETATM    1  C   UNL     1     -35.056  -0.387 -15.720  1.00  0.00     0.009 C 
ENDROOT
BRANCH   1   2
HETATM    2  C   UNL     1     -36.018  -0.293 -14.540  1.00  0.00     0.000 C 
BRANCH   2   3
HETATM    3  C   UNL     1     -35.294   0.271 -13.319  1.00  0.00     0.000 C 
BRANCH   3   4
HETATM    4  C   UNL     1     -36.032  -0.077 -12.033  1.00  0.00     0.000 C 
BRANCH   4   5
HETATM    5  C   UNL     1     -35.658  -1.478 -11.556  1.00  0.00     0.000 C 
BRANCH   5   6
HETATM    6  C   UNL     1     -34.156  -1.709 -11.690  1.00  0.00     0.000 C 
BRANCH   6   7
HETATM    7  C   UNL     1     -33.674  -2.759 -10.694  1.00  0.00     0.000 C 
BRANCH   7   8
HETATM    8  C   UNL     1     -33.113  -3.977 -11.422  1.00  0.00    -0.000 C 
BRANCH   8   9
HETATM    9  C   UNL     1     -34.196  -5.023 -11.661  1.00  0.00    -0.005 C 
HETATM   10  C   UNL     1     -34.051  -6.189 -10.699  1.00  0.00     0.005 C 
ENDBRANCH   8   9
ENDBRANCH   7   8
ENDBRANCH   6   7
ENDBRANCH   5   6
ENDBRANCH   4   5
ENDBRANCH   3   4
ENDBRANCH   2   3
ENDBRANCH   1   2
BRANCH   1  11
HETATM   11  C   UNL     1     -35.354  -1.580 -16.621  1.00  0.00     0.103 C 
BRANCH  11  12
HETATM   12  C   UNL     1     -34.551  -2.787 -16.181  1.00  0.00     0.217 C 
HETATM   13  O   UNL     1     -34.647  -3.298 -15.069  1.00  0.00    -0.274 OA
HETATM   14  N   UNL     1     -33.695  -3.269 -17.143  1.00  0.00    -0.359 N 
HETATM   15  H   UNL     1     -33.669  -2.845 -18.060  1.00  0.00     0.162 HD
BRANCH  14  16
HETATM   16  C   UNL     1     -32.818  -4.397 -16.862  1.00  0.00     0.148 C 
BRANCH  16  17
HETATM   17  C   UNL     1     -31.367  -4.101 -17.236  1.00  0.00     0.183 C 
BRANCH  17  18
HETATM   18  O   UNL     1     -31.310  -2.984 -18.121  1.00  0.00    -0.399 OA
HETATM   19  H   UNL     1     -31.980  -2.355 -17.802  1.00  0.00     0.209 HD
ENDBRANCH  17  18
ENDBRANCH  16  17
ENDBRANCH  14  16
ENDBRANCH  11  12
ENDBRANCH   1  11
TORSDOF 13
ENDMDL
MODEL 8
REMARK VINA RESULT:      -5.8      2.839      4.540
REMARK  13 active torsions:
REMARK  status: ('A' for Active; 'I' for Inactive)
REMARK    1  A    between atoms: C_2  and  C_3 
REMARK    2  A    between atoms: C_3  and  C_4 
REMARK    3  A    between atoms: C_4  and  C_5 
REMARK    4  A    between atoms: C_5  and  C_6 
REMARK    5  A    between atoms: C_6  and  C_7 
REMARK    6  A    between atoms: C_7  and  C_8 
REMARK    7  A    between atoms: C_8  and  C_9 
REMARK    8  A    between atoms: C_9  and  C_10 
REMARK    9  A    between atoms: C_10  and  C_11 
REMARK   10  A    between atoms: C_11  and  C_12 
REMARK       I    between atoms: C_12  and  N_14 
REMARK   11  A    between atoms: N_14  and  C_15 
REMARK   12  A    between atoms: C_15  and  C_16 
REMARK   13  A    between atoms: C_16  and  O_17 
ROOT
HETATM    1  C   UNL     1     -20.177  -5.123  -7.514  1.00  0.00     0.009 C 
ENDROOT
BRANCH   1   2
HETATM    2  C   UNL     1     -20.556  -6.136  -6.439  1.00  0.00     0.000 C 
BRANCH   2   3
HETATM    3  C   UNL     1     -20.715  -5.433  -5.091  1.00  0.00     0.000 C 
BRANCH   3   4
HETATM    4  C   UNL     1     -21.650  -6.211  -4.174  1.00  0.00     0.000 C 
BRANCH   4   5
HETATM    5  C   UNL     1     -21.335  -5.923  -2.708  1.00  0.00     0.000 C 
BRANCH   5   6
HETATM    6  C   UNL     1     -22.164  -6.818  -1.793  1.00  0.00     0.000 C 
BRANCH   6   7
HETATM    7  C   UNL     1     -21.651  -8.255  -1.823  1.00  0.00     0.000 C 
BRANCH   7   8
HETATM    8  C   UNL     1     -20.125  -8.283  -1.844  1.00  0.00    -0.000 C 
BRANCH   8   9
HETATM    9  C   UNL     1     -19.608  -9.445  -2.685  1.00  0.00    -0.005 C 
HETATM   10  C   UNL     1     -19.118  -8.962  -4.040  1.00  0.00     0.005 C 
ENDBRANCH   8   9
ENDBRANCH   7   8
ENDBRANCH   6   7
ENDBRANCH   5   6
ENDBRANCH   4   5
ENDBRANCH   3   4
ENDBRANCH   2   3
ENDBRANCH   1   2
BRANCH   1  11
HETATM   11  C   UNL     1     -21.073  -3.889  -7.494  1.00  0.00     0.103 C 
BRANCH  11  12
HETATM   12  C   UNL     1     -22.427  -4.211  -8.093  1.00  0.00     0.217 C 
HETATM   13  O   UNL     1     -23.451  -4.339  -7.427  1.00  0.00    -0.274 OA
HETATM   14  N   UNL     1     -22.414  -4.348  -9.461  1.00  0.00    -0.359 N 
HETATM   15  H   UNL     1     -21.559  -4.200  -9.979  1.00  0.00     0.162 HD
BRANCH  14  16
HETATM   16  C   UNL     1     -23.626  -4.704 -10.185  1.00  0.00     0.148 C 
BRANCH  16  17
HETATM   17  C   UNL     1     -24.438  -3.472 -10.580  1.00  0.00     0.183 C 
BRANCH  17  18
HETATM   18  O   UNL     1     -25.525  -3.293  -9.673  1.00  0.00    -0.399 OA
HETATM   19  H   UNL     1     -25.468  -2.372  -9.366  1.00  0.00     0.209 HD
ENDBRANCH  17  18
ENDBRANCH  16  17
ENDBRANCH  14  16
ENDBRANCH  11  12
ENDBRANCH   1  11
TORSDOF 13
ENDMDL
MODEL 9
REMARK VINA RESULT:      -5.8      4.197      7.342
REMARK  13 active torsions:
REMARK  status: ('A' for Active; 'I' for Inactive)
REMARK    1  A    between atoms: C_2  and  C_3 
REMARK    2  A    between atoms: C_3  and  C_4 
REMARK    3  A    between atoms: C_4  and  C_5 
REMARK    4  A    between atoms: C_5  and  C_6 
REMARK    5  A    between atoms: C_6  and  C_7 
REMARK    6  A    between atoms: C_7  and  C_8 
REMARK    7  A    between atoms: C_8  and  C_9 
REMARK    8  A    between atoms: C_9  and  C_10 
REMARK    9  A    between atoms: C_10  and  C_11 
REMARK   10  A    between atoms: C_11  and  C_12 
REMARK       I    between atoms: C_12  and  N_14 
REMARK   11  A    between atoms: N_14  and  C_15 
REMARK   12  A    between atoms: C_15  and  C_16 
REMARK   13  A    between atoms: C_16  and  O_17 
ROOT
HETATM    1  C   UNL     1     -20.817  -7.277  -4.225  1.00  0.00     0.009 C 
ENDROOT
BRANCH   1   2
HETATM    2  C   UNL     1     -21.611  -6.549  -3.146  1.00  0.00     0.000 C 
BRANCH   2   3
HETATM    3  C   UNL     1     -21.381  -7.213  -1.789  1.00  0.00     0.000 C 
BRANCH   3   4
HETATM    4  C   UNL     1     -22.438  -6.782  -0.781  1.00  0.00     0.000 C 
BRANCH   4   5
HETATM    5  C   UNL     1     -22.849  -7.952   0.109  1.00  0.00     0.000 C 
BRANCH   5   6
HETATM    6  C   UNL     1     -21.619  -8.691   0.627  1.00  0.00     0.000 C 
BRANCH   6   7
HETATM    7  C   UNL     1     -21.722 -10.187   0.347  1.00  0.00     0.000 C 
BRANCH   7   8
HETATM    8  C   UNL     1     -22.816 -10.471  -0.679  1.00  0.00    -0.000 C 
BRANCH   8   9
HETATM    9  C   UNL     1     -23.926 -11.327  -0.078  1.00  0.00    -0.005 C 
HETATM   10  C   UNL     1     -23.359 -12.580   0.568  1.00  0.00     0.005 C 
ENDBRANCH   8   9
ENDBRANCH   7   8
ENDBRANCH   6   7
ENDBRANCH   5   6
ENDBRANCH   4   5
ENDBRANCH   3   4
ENDBRANCH   2   3
ENDBRANCH   1   2
BRANCH   1  11
HETATM   11  C   UNL     1     -21.571  -7.360  -5.547  1.00  0.00     0.103 C 
BRANCH  11  12
HETATM   12  C   UNL     1     -21.066  -6.305  -6.510  1.00  0.00     0.217 C 
HETATM   13  O   UNL     1     -20.040  -6.427  -7.173  1.00  0.00    -0.274 OA
HETATM   14  N   UNL     1     -21.862  -5.186  -6.580  1.00  0.00    -0.359 N 
HETATM   15  H   UNL     1     -22.719  -5.137  -6.046  1.00  0.00     0.162 HD
BRANCH  14  16
HETATM   16  C   UNL     1     -21.490  -4.060  -7.425  1.00  0.00     0.148 C 
BRANCH  16  17
HETATM   17  C   UNL     1     -22.543  -3.772  -8.492  1.00  0.00     0.183 C 
BRANCH  17  18
HETATM   18  O   UNL     1     -23.847  -4.034  -7.974  1.00  0.00    -0.399 OA
HETATM   19  H   UNL     1     -24.219  -3.168  -7.736  1.00  0.00     0.209 HD
ENDBRANCH  17  18
ENDBRANCH  16  17
ENDBRANCH  14  16
ENDBRANCH  11  12
ENDBRANCH   1  11
TORSDOF 13
ENDMDL
