MODEL 1
REMARK VINA RESULT:      -7.4      0.000      0.000
REMARK  16 active torsions:
REMARK  status: ('A' for Active; 'I' for Inactive)
REMARK    1  A    between atoms: C_3  and  O_43 
REMARK    2  A    between atoms: C_4  and  O_42 
REMARK    3  A    between atoms: C_5  and  O_41 
REMARK    4  A    between atoms: C_6  and  O_8 
REMARK    5  A    between atoms: O_8  and  C_9 
REMARK    6  A    between atoms: C_9  and  C_10 
REMARK    7  A    between atoms: C_11  and  O_40 
REMARK    8  A    between atoms: C_12  and  O_39 
REMARK    9  A    between atoms: C_13  and  O_38 
REMARK   10  A    between atoms: C_14  and  O_16 
REMARK   11  A    between atoms: O_16  and  C_17 
REMARK   12  A    between atoms: C_18  and  C_30 
REMARK   13  A    between atoms: C_22  and  O_29 
REMARK   14  A    between atoms: C_24  and  O_28 
REMARK   15  A    between atoms: C_32  and  O_37 
REMARK   16  A    between atoms: C_33  and  O_36 
ROOT
HETATM    1  C   UNL     1     -20.472 -12.107  -6.796  1.00  0.00     0.180 C 
HETATM    2  C   UNL     1     -19.114 -12.532  -7.359  1.00  0.00     0.180 C 
HETATM    3  C   UNL     1     -17.987 -12.295  -6.349  1.00  0.00     0.183 C 
HETATM    4  C   UNL     1     -17.958 -10.838  -5.875  1.00  0.00     0.205 C 
HETATM    5  C   UNL     1     -19.359 -10.416  -5.369  1.00  0.00     0.298 C 
HETATM    6  O   UNL     1     -20.468 -10.846  -6.126  1.00  0.00    -0.348 OA
ENDROOT
BRANCH   5   7
HETATM    7  O   UNL     1     -19.439  -8.995  -5.116  1.00  0.00    -0.311 OA
BRANCH   7   8
HETATM    8  C   UNL     1     -20.063  -8.532  -3.957  1.00  0.00     0.157 C 
HETATM    9  C   UNL     1     -20.876  -7.454  -4.010  1.00  0.00     0.124 C 
HETATM   10  O   UNL     1     -21.550  -6.914  -2.923  1.00  0.00    -0.306 OA
HETATM   11  C   UNL     1     -21.608  -7.619  -1.758  1.00  0.00     0.096 A 
HETATM   12  C   UNL     1     -22.497  -7.176  -0.783  1.00  0.00     0.075 A 
HETATM   13  C   UNL     1     -20.842  -8.747  -1.534  1.00  0.00     0.084 A 
HETATM   14  C   UNL     1     -22.603  -7.878   0.411  1.00  0.00     0.071 A 
HETATM   15  C   UNL     1     -21.849  -9.021   0.645  1.00  0.00     0.074 A 
HETATM   16  C   UNL     1     -20.975  -9.465  -0.334  1.00  0.00     0.085 A 
HETATM   17  C   UNL     1     -19.945  -9.184  -2.603  1.00  0.00     0.223 C 
HETATM   18  O   UNL     1     -19.212 -10.126  -2.349  1.00  0.00    -0.284 OA
BRANCH   9  19
HETATM   19  C   UNL     1     -21.186  -6.667  -5.211  1.00  0.00     0.004 A 
HETATM   20  C   UNL     1     -20.132  -6.062  -5.911  1.00  0.00     0.053 A 
HETATM   21  C   UNL     1     -20.410  -5.013  -6.778  1.00  0.00     0.099 A 
HETATM   22  C   UNL     1     -21.725  -4.594  -6.987  1.00  0.00     0.098 A 
HETATM   23  C   UNL     1     -22.785  -5.240  -6.366  1.00  0.00     0.040 A 
HETATM   24  C   UNL     1     -22.514  -6.273  -5.466  1.00  0.00     0.017 A 
BRANCH  21  25
HETATM   25  O   UNL     1     -19.412  -4.306  -7.390  1.00  0.00    -0.358 OA
HETATM   26  H   UNL     1     -19.746  -3.994  -8.250  1.00  0.00     0.217 HD
ENDBRANCH  21  25
BRANCH  22  27
HETATM   27  O   UNL     1     -21.971  -3.503  -7.771  1.00  0.00    -0.358 OA
HETATM   28  H   UNL     1     -21.358  -3.602  -8.526  1.00  0.00     0.217 HD
ENDBRANCH  22  27
ENDBRANCH   9  19
BRANCH  14  29
HETATM   29  O   UNL     1     -23.455  -7.487   1.395  1.00  0.00    -0.361 OA
HETATM   30  H   UNL     1     -23.229  -6.585   1.675  1.00  0.00     0.217 HD
ENDBRANCH  14  29
BRANCH  16  31
HETATM   31  O   UNL     1     -20.289 -10.628  -0.119  1.00  0.00    -0.360 OA
HETATM   32  H   UNL     1     -20.489 -11.275  -0.812  1.00  0.00     0.217 HD
ENDBRANCH  16  31
ENDBRANCH   7   8
ENDBRANCH   5   7
BRANCH   4  33
HETATM   33  O   UNL     1     -17.449 -10.002  -6.933  1.00  0.00    -0.388 OA
HETATM   34  H   UNL     1     -16.944  -9.289  -6.501  1.00  0.00     0.210 HD
ENDBRANCH   4  33
BRANCH   3  35
HETATM   35  O   UNL     1     -16.732 -12.630  -6.953  1.00  0.00    -0.390 OA
HETATM   36  H   UNL     1     -16.800 -13.603  -7.134  1.00  0.00     0.210 HD
ENDBRANCH   3  35
BRANCH   1  37
HETATM   37  C   UNL     1     -21.144 -13.111  -5.871  1.00  0.00     0.205 C 
BRANCH  37  38
HETATM   38  O   UNL     1     -21.982 -12.325  -5.016  1.00  0.00    -0.356 OA
BRANCH  38  39
HETATM   39  C   UNL     1     -22.590 -13.070  -3.982  1.00  0.00     0.291 C 
HETATM   40  C   UNL     1     -22.176 -12.413  -2.655  1.00  0.00     0.204 C 
HETATM   41  C   UNL     1     -22.864 -13.174  -1.524  1.00  0.00     0.183 C 
HETATM   42  C   UNL     1     -22.491 -14.668  -1.573  1.00  0.00     0.178 C 
HETATM   43  C   UNL     1     -22.667 -15.259  -2.988  1.00  0.00     0.152 C 
HETATM   44  C   UNL     1     -24.110 -15.592  -3.344  1.00  0.00     0.042 C 
HETATM   45  O   UNL     1     -22.110 -14.414  -4.007  1.00  0.00    -0.351 OA
BRANCH  40  46
HETATM   46  O   UNL     1     -20.738 -12.507  -2.487  1.00  0.00    -0.388 OA
HETATM   47  H   UNL     1     -20.376 -11.749  -2.997  1.00  0.00     0.210 HD
ENDBRANCH  40  46
BRANCH  41  48
HETATM   48  O   UNL     1     -22.504 -12.603  -0.263  1.00  0.00    -0.390 OA
HETATM   49  H   UNL     1     -23.099 -13.028   0.388  1.00  0.00     0.210 HD
ENDBRANCH  41  48
BRANCH  42  50
HETATM   50  O   UNL     1     -21.118 -14.839  -1.175  1.00  0.00    -0.390 OA
HETATM   51  H   UNL     1     -20.791 -15.643  -1.632  1.00  0.00     0.210 HD
ENDBRANCH  42  50
ENDBRANCH  38  39
ENDBRANCH  37  38
ENDBRANCH   1  37
BRANCH   2  52
HETATM   52  O   UNL     1     -18.805 -11.784  -8.557  1.00  0.00    -0.390 OA
HETATM   53  H   UNL     1     -18.758 -12.412  -9.315  1.00  0.00     0.210 HD
ENDBRANCH   2  52
TORSDOF 16
ENDMDL
MODEL 2
REMARK VINA RESULT:      -7.3      2.981      5.786
REMARK  16 active torsions:
REMARK  status: ('A' for Active; 'I' for Inactive)
REMARK    1  A    between atoms: C_3  and  O_43 
REMARK    2  A    between atoms: C_4  and  O_42 
REMARK    3  A    between atoms: C_5  and  O_41 
REMARK    4  A    between atoms: C_6  and  O_8 
REMARK    5  A    between atoms: O_8  and  C_9 
REMARK    6  A    between atoms: C_9  and  C_10 
REMARK    7  A    between atoms: C_11  and  O_40 
REMARK    8  A    between atoms: C_12  and  O_39 
REMARK    9  A    between atoms: C_13  and  O_38 
REMARK   10  A    between atoms: C_14  and  O_16 
REMARK   11  A    between atoms: O_16  and  C_17 
REMARK   12  A    between atoms: C_18  and  C_30 
REMARK   13  A    between atoms: C_22  and  O_29 
REMARK   14  A    between atoms: C_24  and  O_28 
REMARK   15  A    between atoms: C_32  and  O_37 
REMARK   16  A    between atoms: C_33  and  O_36 
ROOT
HETATM    1  C   UNL     1     -17.777 -15.067   0.204  1.00  0.00     0.180 C 
HETATM    2  C   UNL     1     -16.578 -14.509   0.973  1.00  0.00     0.180 C 
HETATM    3  C   UNL     1     -16.808 -13.055   1.396  1.00  0.00     0.183 C 
HETATM    4  C   UNL     1     -17.154 -12.171   0.193  1.00  0.00     0.205 C 
HETATM    5  C   UNL     1     -18.329 -12.792  -0.602  1.00  0.00     0.298 C 
HETATM    6  O   UNL     1     -18.306 -14.189  -0.790  1.00  0.00    -0.348 OA
ENDROOT
BRANCH   5   7
HETATM    7  O   UNL     1     -18.548 -12.115  -1.861  1.00  0.00    -0.311 OA
BRANCH   7   8
HETATM    8  C   UNL     1     -19.096 -10.832  -1.870  1.00  0.00     0.157 C 
HETATM    9  C   UNL     1     -18.752  -9.956  -2.839  1.00  0.00     0.124 C 
HETATM   10  O   UNL     1     -19.238  -8.660  -2.948  1.00  0.00    -0.306 OA
HETATM   11  C   UNL     1     -20.305  -8.283  -2.187  1.00  0.00     0.096 A 
HETATM   12  C   UNL     1     -20.924  -7.077  -2.502  1.00  0.00     0.075 A 
HETATM   13  C   UNL     1     -20.789  -9.060  -1.151  1.00  0.00     0.084 A 
HETATM   14  C   UNL     1     -22.027  -6.666  -1.766  1.00  0.00     0.071 A 
HETATM   15  C   UNL     1     -22.534  -7.442  -0.731  1.00  0.00     0.074 A 
HETATM   16  C   UNL     1     -21.921  -8.648  -0.429  1.00  0.00     0.085 A 
HETATM   17  C   UNL     1     -20.118 -10.330  -0.882  1.00  0.00     0.223 C 
HETATM   18  O   UNL     1     -20.503 -10.953   0.094  1.00  0.00    -0.284 OA
BRANCH   9  19
HETATM   19  C   UNL     1     -17.809 -10.212  -3.937  1.00  0.00     0.004 A 
HETATM   20  C   UNL     1     -18.283 -10.826  -5.104  1.00  0.00     0.053 A 
HETATM   21  C   UNL     1     -17.378 -11.434  -5.965  1.00  0.00     0.099 A 
HETATM   22  C   UNL     1     -16.009 -11.395  -5.697  1.00  0.00     0.098 A 
HETATM   23  C   UNL     1     -15.519 -10.716  -4.591  1.00  0.00     0.040 A 
HETATM   24  C   UNL     1     -16.423 -10.131  -3.701  1.00  0.00     0.017 A 
BRANCH  21  25
HETATM   25  O   UNL     1     -17.794 -12.155  -7.051  1.00  0.00    -0.358 OA
HETATM   26  H   UNL     1     -17.855 -13.090  -6.787  1.00  0.00     0.217 HD
ENDBRANCH  21  25
BRANCH  22  27
HETATM   27  O   UNL     1     -15.142 -12.075  -6.504  1.00  0.00    -0.358 OA
HETATM   28  H   UNL     1     -15.524 -12.971  -6.573  1.00  0.00     0.217 HD
ENDBRANCH  22  27
ENDBRANCH   9  19
BRANCH  14  29
HETATM   29  O   UNL     1     -22.667  -5.497  -2.032  1.00  0.00    -0.361 OA
HETATM   30  H   UNL     1     -23.449  -5.423  -1.462  1.00  0.00     0.217 HD
ENDBRANCH  14  29
BRANCH  16  31
HETATM   31  O   UNL     1     -22.469  -9.433   0.547  1.00  0.00    -0.360 OA
HETATM   32  H   UNL     1     -22.650 -10.322   0.208  1.00  0.00     0.217 HD
ENDBRANCH  16  31
ENDBRANCH   7   8
ENDBRANCH   5   7
BRANCH   4  33
HETATM   33  O   UNL     1     -15.968 -11.957  -0.599  1.00  0.00    -0.388 OA
HETATM   34  H   UNL     1     -15.270 -12.512  -0.204  1.00  0.00     0.210 HD
ENDBRANCH   4  33
BRANCH   3  35
HETATM   35  O   UNL     1     -15.627 -12.556   2.037  1.00  0.00    -0.390 OA
HETATM   36  H   UNL     1     -15.203 -11.979   1.351  1.00  0.00     0.210 HD
ENDBRANCH   3  35
BRANCH   1  37
HETATM   37  C   UNL     1     -18.943 -15.543   1.058  1.00  0.00     0.205 C 
BRANCH  37  38
HETATM   38  O   UNL     1     -20.000 -15.805   0.129  1.00  0.00    -0.356 OA
BRANCH  38  39
HETATM   39  C   UNL     1     -21.271 -15.399   0.591  1.00  0.00     0.291 C 
HETATM   40  C   UNL     1     -22.037 -14.858  -0.628  1.00  0.00     0.204 C 
HETATM   41  C   UNL     1     -23.435 -14.458  -0.161  1.00  0.00     0.183 C 
HETATM   42  C   UNL     1     -23.348 -13.421   0.976  1.00  0.00     0.178 C 
HETATM   43  C   UNL     1     -22.366 -13.863   2.083  1.00  0.00     0.152 C 
HETATM   44  C   UNL     1     -22.942 -14.892   3.046  1.00  0.00     0.042 C 
HETATM   45  O   UNL     1     -21.125 -14.353   1.551  1.00  0.00    -0.351 OA
BRANCH  40  46
HETATM   46  O   UNL     1     -21.359 -13.690  -1.157  1.00  0.00    -0.388 OA
HETATM   47  H   UNL     1     -21.183 -13.907  -2.099  1.00  0.00     0.210 HD
ENDBRANCH  40  46
BRANCH  41  48
HETATM   48  O   UNL     1     -24.188 -13.941  -1.261  1.00  0.00    -0.390 OA
HETATM   49  H   UNL     1     -24.173 -12.969  -1.146  1.00  0.00     0.210 HD
ENDBRANCH  41  48
BRANCH  42  50
HETATM   50  O   UNL     1     -22.901 -12.158   0.449  1.00  0.00    -0.390 OA
HETATM   51  H   UNL     1     -22.018 -11.987   0.839  1.00  0.00     0.210 HD
ENDBRANCH  42  50
ENDBRANCH  38  39
ENDBRANCH  37  38
ENDBRANCH   1  37
BRANCH   2  52
HETATM   52  O   UNL     1     -15.385 -14.553   0.156  1.00  0.00    -0.390 OA
HETATM   53  H   UNL     1     -14.812 -13.789   0.398  1.00  0.00     0.210 HD
ENDBRANCH   2  52
TORSDOF 16
ENDMDL
MODEL 3
REMARK VINA RESULT:      -6.9      2.212      4.044
REMARK  16 active torsions:
REMARK  status: ('A' for Active; 'I' for Inactive)
REMARK    1  A    between atoms: C_3  and  O_43 
REMARK    2  A    between atoms: C_4  and  O_42 
REMARK    3  A    between atoms: C_5  and  O_41 
REMARK    4  A    between atoms: C_6  and  O_8 
REMARK    5  A    between atoms: O_8  and  C_9 
REMARK    6  A    between atoms: C_9  and  C_10 
REMARK    7  A    between atoms: C_11  and  O_40 
REMARK    8  A    between atoms: C_12  and  O_39 
REMARK    9  A    between atoms: C_13  and  O_38 
REMARK   10  A    between atoms: C_14  and  O_16 
REMARK   11  A    between atoms: O_16  and  C_17 
REMARK   12  A    between atoms: C_18  and  C_30 
REMARK   13  A    between atoms: C_22  and  O_29 
REMARK   14  A    between atoms: C_24  and  O_28 
REMARK   15  A    between atoms: C_32  and  O_37 
REMARK   16  A    between atoms: C_33  and  O_36 
ROOT
HETATM    1  C   UNL     1     -17.640 -10.353  -5.928  1.00  0.00     0.180 C 
HETATM    2  C   UNL     1     -16.147 -10.593  -5.698  1.00  0.00     0.180 C 
HETATM    3  C   UNL     1     -15.898 -11.433  -4.441  1.00  0.00     0.183 C 
HETATM    4  C   UNL     1     -16.553 -10.800  -3.208  1.00  0.00     0.205 C 
HETATM    5  C   UNL     1     -18.048 -10.510  -3.490  1.00  0.00     0.298 C 
HETATM    6  O   UNL     1     -18.368  -9.981  -4.756  1.00  0.00    -0.348 OA
ENDROOT
BRANCH   5   7
HETATM    7  O   UNL     1     -18.653  -9.718  -2.443  1.00  0.00    -0.311 OA
BRANCH   7   8
HETATM    8  C   UNL     1     -19.616 -10.291  -1.611  1.00  0.00     0.157 C 
HETATM    9  C   UNL     1     -20.885  -9.826  -1.624  1.00  0.00     0.124 C 
HETATM   10  O   UNL     1     -21.921 -10.323  -0.846  1.00  0.00    -0.306 OA
HETATM   11  C   UNL     1     -21.750 -11.503  -0.185  1.00  0.00     0.096 A 
HETATM   12  C   UNL     1     -22.880 -12.098   0.370  1.00  0.00     0.075 A 
HETATM   13  C   UNL     1     -20.518 -12.119  -0.073  1.00  0.00     0.084 A 
HETATM   14  C   UNL     1     -22.754 -13.311   1.034  1.00  0.00     0.071 A 
HETATM   15  C   UNL     1     -21.525 -13.949   1.142  1.00  0.00     0.074 A 
HETATM   16  C   UNL     1     -20.405 -13.359   0.578  1.00  0.00     0.085 A 
HETATM   17  C   UNL     1     -19.370 -11.465  -0.698  1.00  0.00     0.223 C 
HETATM   18  O   UNL     1     -18.280 -11.978  -0.508  1.00  0.00    -0.284 OA
BRANCH   9  19
HETATM   19  C   UNL     1     -21.388  -8.719  -2.450  1.00  0.00     0.004 A 
HETATM   20  C   UNL     1     -21.494  -8.906  -3.836  1.00  0.00     0.053 A 
HETATM   21  C   UNL     1     -21.571  -7.793  -4.664  1.00  0.00     0.099 A 
HETATM   22  C   UNL     1     -21.592  -6.507  -4.124  1.00  0.00     0.098 A 
HETATM   23  C   UNL     1     -21.575  -6.311  -2.750  1.00  0.00     0.040 A 
HETATM   24  C   UNL     1     -21.462  -7.421  -1.910  1.00  0.00     0.017 A 
BRANCH  21  25
HETATM   25  O   UNL     1     -21.550  -7.912  -6.027  1.00  0.00    -0.358 OA
HETATM   26  H   UNL     1     -20.661  -7.665  -6.337  1.00  0.00     0.217 HD
ENDBRANCH  21  25
BRANCH  22  27
HETATM   27  O   UNL     1     -21.576  -5.424  -4.956  1.00  0.00    -0.358 OA
HETATM   28  H   UNL     1     -20.663  -5.081  -4.893  1.00  0.00     0.217 HD
ENDBRANCH  22  27
ENDBRANCH   9  19
BRANCH  14  29
HETATM   29  O   UNL     1     -23.825 -13.932   1.593  1.00  0.00    -0.361 OA
HETATM   30  H   UNL     1     -24.524 -14.028   0.927  1.00  0.00     0.217 HD
ENDBRANCH  14  29
BRANCH  16  31
HETATM   31  O   UNL     1     -19.215 -14.029   0.634  1.00  0.00    -0.360 OA
HETATM   32  H   UNL     1     -19.361 -14.987   0.619  1.00  0.00     0.217 HD
ENDBRANCH  16  31
ENDBRANCH   7   8
ENDBRANCH   5   7
BRANCH   4  33
HETATM   33  O   UNL     1     -15.801  -9.634  -2.814  1.00  0.00    -0.388 OA
HETATM   34  H   UNL     1     -14.996  -9.962  -2.374  1.00  0.00     0.210 HD
ENDBRANCH   4  33
BRANCH   3  35
HETATM   35  O   UNL     1     -14.487 -11.558  -4.226  1.00  0.00    -0.390 OA
HETATM   36  H   UNL     1     -14.281 -12.488  -4.502  1.00  0.00     0.210 HD
ENDBRANCH   3  35
BRANCH   1  37
HETATM   37  C   UNL     1     -18.397 -11.495  -6.590  1.00  0.00     0.205 C 
BRANCH  37  38
HETATM   38  O   UNL     1     -19.781 -11.183  -6.399  1.00  0.00    -0.356 OA
BRANCH  38  39
HETATM   39  C   UNL     1     -20.490 -12.174  -5.686  1.00  0.00     0.291 C 
HETATM   40  C   UNL     1     -20.255 -13.505  -6.421  1.00  0.00     0.204 C 
HETATM   41  C   UNL     1     -20.973 -14.602  -5.638  1.00  0.00     0.183 C 
HETATM   42  C   UNL     1     -22.473 -14.273  -5.499  1.00  0.00     0.178 C 
HETATM   43  C   UNL     1     -22.700 -12.830  -5.001  1.00  0.00     0.152 C 
HETATM   44  C   UNL     1     -22.507 -12.655  -3.501  1.00  0.00     0.042 C 
HETATM   45  O   UNL     1     -21.885 -11.875  -5.700  1.00  0.00    -0.351 OA
BRANCH  40  46
HETATM   46  O   UNL     1     -20.810 -13.433  -7.759  1.00  0.00    -0.388 OA
HETATM   47  H   UNL     1     -21.504 -14.129  -7.781  1.00  0.00     0.210 HD
ENDBRANCH  40  46
BRANCH  41  48
HETATM   48  O   UNL     1     -20.790 -15.864  -6.286  1.00  0.00    -0.390 OA
HETATM   49  H   UNL     1     -20.722 -15.653  -7.240  1.00  0.00     0.210 HD
ENDBRANCH  41  48
BRANCH  42  50
HETATM   50  O   UNL     1     -23.123 -14.424  -6.774  1.00  0.00    -0.390 OA
HETATM   51  H   UNL     1     -22.439 -14.269  -7.459  1.00  0.00     0.210 HD
ENDBRANCH  42  50
ENDBRANCH  38  39
ENDBRANCH  37  38
ENDBRANCH   1  37
BRANCH   2  52
HETATM   52  O   UNL     1     -15.448  -9.337  -5.541  1.00  0.00    -0.390 OA
HETATM   53  H   UNL     1     -14.626  -9.366  -6.083  1.00  0.00     0.210 HD
ENDBRANCH   2  52
TORSDOF 16
ENDMDL
MODEL 4
REMARK VINA RESULT:      -6.9      2.332      6.776
REMARK  16 active torsions:
REMARK  status: ('A' for Active; 'I' for Inactive)
REMARK    1  A    between atoms: C_3  and  O_43 
REMARK    2  A    between atoms: C_4  and  O_42 
REMARK    3  A    between atoms: C_5  and  O_41 
REMARK    4  A    between atoms: C_6  and  O_8 
REMARK    5  A    between atoms: O_8  and  C_9 
REMARK    6  A    between atoms: C_9  and  C_10 
REMARK    7  A    between atoms: C_11  and  O_40 
REMARK    8  A    between atoms: C_12  and  O_39 
REMARK    9  A    between atoms: C_13  and  O_38 
REMARK   10  A    between atoms: C_14  and  O_16 
REMARK   11  A    between atoms: O_16  and  C_17 
REMARK   12  A    between atoms: C_18  and  C_30 
REMARK   13  A    between atoms: C_22  and  O_29 
REMARK   14  A    between atoms: C_24  and  O_28 
REMARK   15  A    between atoms: C_32  and  O_37 
REMARK   16  A    between atoms: C_33  and  O_36 
ROOT
HETATM    1  C   UNL     1     -19.710 -11.541  -0.359  1.00  0.00     0.180 C 
HETATM    2  C   UNL     1     -20.871 -11.643   0.633  1.00  0.00     0.180 C 
HETATM    3  C   UNL     1     -21.905 -12.681   0.185  1.00  0.00     0.183 C 
HETATM    4  C   UNL     1     -22.412 -12.390  -1.232  1.00  0.00     0.205 C 
HETATM    5  C   UNL     1     -21.215 -12.230  -2.201  1.00  0.00     0.298 C 
HETATM    6  O   UNL     1     -20.104 -11.500  -1.731  1.00  0.00    -0.348 OA
ENDROOT
BRANCH   5   7
HETATM    7  O   UNL     1     -21.629 -11.740  -3.497  1.00  0.00    -0.311 OA
BRANCH   7   8
HETATM    8  C   UNL     1     -21.159 -10.508  -3.954  1.00  0.00     0.157 C 
HETATM    9  C   UNL     1     -20.449 -10.437  -5.101  1.00  0.00     0.124 C 
HETATM   10  O   UNL     1     -19.940  -9.268  -5.649  1.00  0.00    -0.306 OA
HETATM   11  C   UNL     1     -20.354  -8.066  -5.156  1.00  0.00     0.096 A 
HETATM   12  C   UNL     1     -20.029  -6.926  -5.887  1.00  0.00     0.075 A 
HETATM   13  C   UNL     1     -21.088  -7.955  -3.991  1.00  0.00     0.084 A 
HETATM   14  C   UNL     1     -20.449  -5.684  -5.431  1.00  0.00     0.071 A 
HETATM   15  C   UNL     1     -21.200  -5.558  -4.269  1.00  0.00     0.074 A 
HETATM   16  C   UNL     1     -21.531  -6.697  -3.552  1.00  0.00     0.085 A 
HETATM   17  C   UNL     1     -21.425  -9.187  -3.279  1.00  0.00     0.223 C 
HETATM   18  O   UNL     1     -21.992  -9.058  -2.206  1.00  0.00    -0.284 OA
BRANCH   9  19
HETATM   19  C   UNL     1     -20.089 -11.572  -5.963  1.00  0.00     0.004 A 
HETATM   20  C   UNL     1     -18.731 -11.853  -6.174  1.00  0.00     0.053 A 
HETATM   21  C   UNL     1     -18.364 -12.630  -7.266  1.00  0.00     0.099 A 
HETATM   22  C   UNL     1     -19.333 -13.163  -8.116  1.00  0.00     0.098 A 
HETATM   23  C   UNL     1     -20.684 -12.964  -7.869  1.00  0.00     0.040 A 
HETATM   24  C   UNL     1     -21.063 -12.156  -6.795  1.00  0.00     0.017 A 
BRANCH  21  25
HETATM   25  O   UNL     1     -17.050 -12.832  -7.592  1.00  0.00    -0.358 OA
HETATM   26  H   UNL     1     -16.507 -12.254  -7.028  1.00  0.00     0.217 HD
ENDBRANCH  21  25
BRANCH  22  27
HETATM   27  O   UNL     1     -18.950 -13.846  -9.235  1.00  0.00    -0.358 OA
HETATM   28  H   UNL     1     -18.848 -14.770  -8.933  1.00  0.00     0.217 HD
ENDBRANCH  22  27
ENDBRANCH   9  19
BRANCH  14  29
HETATM   29  O   UNL     1     -20.158  -4.541  -6.106  1.00  0.00    -0.361 OA
HETATM   30  H   UNL     1     -20.611  -4.552  -6.964  1.00  0.00     0.217 HD
ENDBRANCH  14  29
BRANCH  16  31
HETATM   31  O   UNL     1     -22.326  -6.566  -2.448  1.00  0.00    -0.360 OA
HETATM   32  H   UNL     1     -22.883  -7.351  -2.333  1.00  0.00     0.217 HD
ENDBRANCH  16  31
ENDBRANCH   7   8
ENDBRANCH   5   7
BRANCH   4  33
HETATM   33  O   UNL     1     -23.287 -11.245  -1.199  1.00  0.00    -0.388 OA
HETATM   34  H   UNL     1     -24.071 -11.512  -0.685  1.00  0.00     0.210 HD
ENDBRANCH   4  33
BRANCH   3  35
HETATM   35  O   UNL     1     -23.007 -12.677   1.101  1.00  0.00    -0.390 OA
HETATM   36  H   UNL     1     -22.584 -12.794   1.991  1.00  0.00     0.210 HD
ENDBRANCH   3  35
BRANCH   1  37
HETATM   37  C   UNL     1     -18.636 -12.610  -0.226  1.00  0.00     0.205 C 
BRANCH  37  38
HETATM   38  O   UNL     1     -17.398 -11.918  -0.425  1.00  0.00    -0.356 OA
BRANCH  38  39
HETATM   39  C   UNL     1     -17.066 -11.734  -1.785  1.00  0.00     0.291 C 
HETATM   40  C   UNL     1     -16.601 -13.100  -2.319  1.00  0.00     0.204 C 
HETATM   41  C   UNL     1     -16.284 -12.936  -3.803  1.00  0.00     0.183 C 
HETATM   42  C   UNL     1     -15.221 -11.839  -4.011  1.00  0.00     0.178 C 
HETATM   43  C   UNL     1     -15.575 -10.544  -3.249  1.00  0.00     0.152 C 
HETATM   44  C   UNL     1     -16.620  -9.683  -3.946  1.00  0.00     0.042 C 
HETATM   45  O   UNL     1     -15.993 -10.800  -1.899  1.00  0.00    -0.351 OA
BRANCH  40  46
HETATM   46  O   UNL     1     -15.402 -13.520  -1.618  1.00  0.00    -0.388 OA
HETATM   47  H   UNL     1     -15.510 -13.171  -0.706  1.00  0.00     0.210 HD
ENDBRANCH  40  46
BRANCH  41  48
HETATM   48  O   UNL     1     -15.839 -14.181  -4.348  1.00  0.00    -0.390 OA
HETATM   49  H   UNL     1     -15.092 -13.950  -4.937  1.00  0.00     0.210 HD
ENDBRANCH  41  48
BRANCH  42  50
HETATM   50  O   UNL     1     -13.942 -12.308  -3.543  1.00  0.00    -0.390 OA
HETATM   51  H   UNL     1     -13.805 -13.194  -3.941  1.00  0.00     0.210 HD
ENDBRANCH  42  50
ENDBRANCH  38  39
ENDBRANCH  37  38
ENDBRANCH   1  37
BRANCH   2  52
HETATM   52  O   UNL     1     -21.543 -10.369   0.761  1.00  0.00    -0.390 OA
HETATM   53  H   UNL     1     -20.971  -9.672   0.364  1.00  0.00     0.210 HD
ENDBRANCH   2  52
TORSDOF 16
ENDMDL
MODEL 5
REMARK VINA RESULT:      -6.6      3.138      7.149
REMARK  16 active torsions:
REMARK  status: ('A' for Active; 'I' for Inactive)
REMARK    1  A    between atoms: C_3  and  O_43 
REMARK    2  A    between atoms: C_4  and  O_42 
REMARK    3  A    between atoms: C_5  and  O_41 
REMARK    4  A    between atoms: C_6  and  O_8 
REMARK    5  A    between atoms: O_8  and  C_9 
REMARK    6  A    between atoms: C_9  and  C_10 
REMARK    7  A    between atoms: C_11  and  O_40 
REMARK    8  A    between atoms: C_12  and  O_39 
REMARK    9  A    between atoms: C_13  and  O_38 
REMARK   10  A    between atoms: C_14  and  O_16 
REMARK   11  A    between atoms: O_16  and  C_17 
REMARK   12  A    between atoms: C_18  and  C_30 
REMARK   13  A    between atoms: C_22  and  O_29 
REMARK   14  A    between atoms: C_24  and  O_28 
REMARK   15  A    between atoms: C_32  and  O_37 
REMARK   16  A    between atoms: C_33  and  O_36 
ROOT
HETATM    1  C   UNL     1     -17.350 -10.113  -4.994  1.00  0.00     0.180 C 
HETATM    2  C   UNL     1     -16.051 -10.719  -5.528  1.00  0.00     0.180 C 
HETATM    3  C   UNL     1     -16.275 -12.126  -6.090  1.00  0.00     0.183 C 
HETATM    4  C   UNL     1     -16.928 -13.046  -5.053  1.00  0.00     0.205 C 
HETATM    5  C   UNL     1     -18.206 -12.381  -4.484  1.00  0.00     0.298 C 
HETATM    6  O   UNL     1     -18.136 -11.002  -4.199  1.00  0.00    -0.348 OA
ENDROOT
BRANCH   5   7
HETATM    7  O   UNL     1     -18.735 -13.105  -3.350  1.00  0.00    -0.311 OA
BRANCH   7   8
HETATM    8  C   UNL     1     -19.377 -12.411  -2.324  1.00  0.00     0.157 C 
HETATM    9  C   UNL     1     -18.730 -12.169  -1.162  1.00  0.00     0.124 C 
HETATM   10  O   UNL     1     -19.268 -11.485  -0.081  1.00  0.00    -0.306 OA
HETATM   11  C   UNL     1     -20.433 -10.797  -0.242  1.00  0.00     0.096 A 
HETATM   12  C   UNL     1     -20.807  -9.921   0.774  1.00  0.00     0.075 A 
HETATM   13  C   UNL     1     -21.222 -10.926  -1.369  1.00  0.00     0.084 A 
HETATM   14  C   UNL     1     -21.977  -9.184   0.640  1.00  0.00     0.071 A 
HETATM   15  C   UNL     1     -22.773  -9.293  -0.493  1.00  0.00     0.074 A 
HETATM   16  C   UNL     1     -22.390 -10.157  -1.506  1.00  0.00     0.085 A 
HETATM   17  C   UNL     1     -20.768 -11.839  -2.417  1.00  0.00     0.223 C 
HETATM   18  O   UNL     1     -21.525 -12.007  -3.359  1.00  0.00    -0.284 OA
BRANCH   9  19
HETATM   19  C   UNL     1     -17.358 -12.586  -0.837  1.00  0.00     0.004 A 
HETATM   20  C   UNL     1     -17.126 -13.922  -0.481  1.00  0.00     0.053 A 
HETATM   21  C   UNL     1     -15.963 -14.247   0.205  1.00  0.00     0.099 A 
HETATM   22  C   UNL     1     -15.014 -13.266   0.496  1.00  0.00     0.098 A 
HETATM   23  C   UNL     1     -15.190 -11.956   0.074  1.00  0.00     0.040 A 
HETATM   24  C   UNL     1     -16.373 -11.612  -0.585  1.00  0.00     0.017 A 
BRANCH  21  25
HETATM   25  O   UNL     1     -15.743 -15.509   0.686  1.00  0.00    -0.358 OA
HETATM   26  H   UNL     1     -16.514 -15.766   1.221  1.00  0.00     0.217 HD
ENDBRANCH  21  25
BRANCH  22  27
HETATM   27  O   UNL     1     -13.921 -13.586   1.250  1.00  0.00    -0.358 OA
HETATM   28  H   UNL     1     -14.221 -14.323   1.816  1.00  0.00     0.217 HD
ENDBRANCH  22  27
ENDBRANCH   9  19
BRANCH  14  29
HETATM   29  O   UNL     1     -22.386  -8.316   1.603  1.00  0.00    -0.361 OA
HETATM   30  H   UNL     1     -21.628  -7.792   1.905  1.00  0.00     0.217 HD
ENDBRANCH  14  29
BRANCH  16  31
HETATM   31  O   UNL     1     -23.146 -10.206  -2.644  1.00  0.00    -0.360 OA
HETATM   32  H   UNL     1     -22.993 -11.036  -3.120  1.00  0.00     0.217 HD
ENDBRANCH  16  31
ENDBRANCH   7   8
ENDBRANCH   5   7
BRANCH   4  33
HETATM   33  O   UNL     1     -15.958 -13.392  -4.044  1.00  0.00    -0.388 OA
HETATM   34  H   UNL     1     -15.089 -13.127  -4.396  1.00  0.00     0.210 HD
ENDBRANCH   4  33
BRANCH   3  35
HETATM   35  O   UNL     1     -15.018 -12.679  -6.499  1.00  0.00    -0.390 OA
HETATM   36  H   UNL     1     -14.795 -12.188  -7.331  1.00  0.00     0.210 HD
ENDBRANCH   3  35
BRANCH   1  37
HETATM   37  C   UNL     1     -18.271  -9.505  -6.041  1.00  0.00     0.205 C 
BRANCH  37  38
HETATM   38  O   UNL     1     -19.499  -9.247  -5.351  1.00  0.00    -0.356 OA
BRANCH  38  39
HETATM   39  C   UNL     1     -19.800  -7.873  -5.227  1.00  0.00     0.291 C 
HETATM   40  C   UNL     1     -20.770  -7.734  -4.042  1.00  0.00     0.204 C 
HETATM   41  C   UNL     1     -21.071  -6.249  -3.858  1.00  0.00     0.183 C 
HETATM   42  C   UNL     1     -21.650  -5.650  -5.155  1.00  0.00     0.178 C 
HETATM   43  C   UNL     1     -20.798  -6.019  -6.388  1.00  0.00     0.152 C 
HETATM   44  C   UNL     1     -19.539  -5.176  -6.544  1.00  0.00     0.042 C 
HETATM   45  O   UNL     1     -20.444  -7.411  -6.413  1.00  0.00    -0.351 OA
BRANCH  40  46
HETATM   46  O   UNL     1     -22.005  -8.439  -4.332  1.00  0.00    -0.388 OA
HETATM   47  H   UNL     1     -21.927  -8.704  -5.275  1.00  0.00     0.210 HD
ENDBRANCH  40  46
BRANCH  41  48
HETATM   48  O   UNL     1     -21.978  -6.066  -2.767  1.00  0.00    -0.390 OA
HETATM   49  H   UNL     1     -22.862  -6.273  -3.133  1.00  0.00     0.210 HD
ENDBRANCH  41  48
BRANCH  42  50
HETATM   50  O   UNL     1     -22.988  -6.141  -5.362  1.00  0.00    -0.390 OA
HETATM   51  H   UNL     1     -22.948  -7.116  -5.261  1.00  0.00     0.210 HD
ENDBRANCH  42  50
ENDBRANCH  38  39
ENDBRANCH  37  38
ENDBRANCH   1  37
BRANCH   2  52
HETATM   52  O   UNL     1     -15.063 -10.811  -4.476  1.00  0.00    -0.390 OA
HETATM   53  H   UNL     1     -15.513 -10.669  -3.611  1.00  0.00     0.210 HD
ENDBRANCH   2  52
TORSDOF 16
ENDMDL
MODEL 6
REMARK VINA RESULT:      -6.5      3.161      6.674
REMARK  16 active torsions:
REMARK  status: ('A' for Active; 'I' for Inactive)
REMARK    1  A    between atoms: C_3  and  O_43 
REMARK    2  A    between atoms: C_4  and  O_42 
REMARK    3  A    between atoms: C_5  and  O_41 
REMARK    4  A    between atoms: C_6  and  O_8 
REMARK    5  A    between atoms: O_8  and  C_9 
REMARK    6  A    between atoms: C_9  and  C_10 
REMARK    7  A    between atoms: C_11  and  O_40 
REMARK    8  A    between atoms: C_12  and  O_39 
REMARK    9  A    between atoms: C_13  and  O_38 
REMARK   10  A    between atoms: C_14  and  O_16 
REMARK   11  A    between atoms: O_16  and  C_17 
REMARK   12  A    between atoms: C_18  and  C_30 
REMARK   13  A    between atoms: C_22  and  O_29 
REMARK   14  A    between atoms: C_24  and  O_28 
REMARK   15  A    between atoms: C_32  and  O_37 
REMARK   16  A    between atoms: C_33  and  O_36 
ROOT
HETATM    1  C   UNL     1     -18.118 -11.211  -3.549  1.00  0.00     0.180 C 
HETATM    2  C   UNL     1     -17.790 -10.679  -4.946  1.00  0.00     0.180 C 
HETATM    3  C   UNL     1     -18.428  -9.309  -5.191  1.00  0.00     0.183 C 
HETATM    4  C   UNL     1     -19.942  -9.347  -4.955  1.00  0.00     0.205 C 
HETATM    5  C   UNL     1     -20.247  -9.946  -3.560  1.00  0.00     0.298 C 
HETATM    6  O   UNL     1     -19.485 -11.064  -3.165  1.00  0.00    -0.348 OA
ENDROOT
BRANCH   5   7
HETATM    7  O   UNL     1     -21.658 -10.205  -3.379  1.00  0.00    -0.311 OA
BRANCH   7   8
HETATM    8  C   UNL     1     -22.090 -11.496  -3.069  1.00  0.00     0.157 C 
HETATM    9  C   UNL     1     -22.390 -11.822  -1.793  1.00  0.00     0.124 C 
HETATM   10  O   UNL     1     -22.832 -13.069  -1.375  1.00  0.00    -0.306 OA
HETATM   11  C   UNL     1     -23.224 -13.983  -2.307  1.00  0.00     0.096 A 
HETATM   12  C   UNL     1     -23.898 -15.115  -1.853  1.00  0.00     0.075 A 
HETATM   13  C   UNL     1     -22.995 -13.810  -3.659  1.00  0.00     0.084 A 
HETATM   14  C   UNL     1     -24.333 -16.060  -2.772  1.00  0.00     0.071 A 
HETATM   15  C   UNL     1     -24.123 -15.893  -4.135  1.00  0.00     0.074 A 
HETATM   16  C   UNL     1     -23.463 -14.760  -4.582  1.00  0.00     0.085 A 
HETATM   17  C   UNL     1     -22.308 -12.591  -4.082  1.00  0.00     0.223 C 
HETATM   18  O   UNL     1     -22.035 -12.503  -5.267  1.00  0.00    -0.284 OA
BRANCH   9  19
HETATM   19  C   UNL     1     -22.297 -10.927  -0.631  1.00  0.00     0.004 A 
HETATM   20  C   UNL     1     -23.260  -9.919  -0.478  1.00  0.00     0.053 A 
HETATM   21  C   UNL     1     -22.982  -8.838   0.349  1.00  0.00     0.099 A 
HETATM   22  C   UNL     1     -21.781  -8.776   1.057  1.00  0.00     0.098 A 
HETATM   23  C   UNL     1     -20.856  -9.808   0.982  1.00  0.00     0.040 A 
HETATM   24  C   UNL     1     -21.111 -10.883   0.126  1.00  0.00     0.017 A 
BRANCH  21  25
HETATM   25  O   UNL     1     -23.829  -7.767   0.439  1.00  0.00    -0.358 OA
HETATM   26  H   UNL     1     -24.349  -7.861   1.256  1.00  0.00     0.217 HD
ENDBRANCH  21  25
BRANCH  22  27
HETATM   27  O   UNL     1     -21.485  -7.665   1.793  1.00  0.00    -0.358 OA
HETATM   28  H   UNL     1     -21.820  -6.920   1.255  1.00  0.00     0.217 HD
ENDBRANCH  22  27
ENDBRANCH   9  19
BRANCH  14  29
HETATM   29  O   UNL     1     -24.994 -17.181  -2.381  1.00  0.00    -0.361 OA
HETATM   30  H   UNL     1     -25.922 -16.960  -2.200  1.00  0.00     0.217 HD
ENDBRANCH  14  29
BRANCH  16  31
HETATM   31  O   UNL     1     -23.321 -14.575  -5.929  1.00  0.00    -0.360 OA
HETATM   32  H   UNL     1     -22.870 -15.333  -6.332  1.00  0.00     0.217 HD
ENDBRANCH  16  31
ENDBRANCH   7   8
ENDBRANCH   5   7
BRANCH   4  33
HETATM   33  O   UNL     1     -20.577 -10.054  -6.040  1.00  0.00    -0.388 OA
HETATM   34  H   UNL     1     -21.533  -9.885  -5.956  1.00  0.00     0.210 HD
ENDBRANCH   4  33
BRANCH   3  35
HETATM   35  O   UNL     1     -18.161  -8.896  -6.537  1.00  0.00    -0.390 OA
HETATM   36  H   UNL     1     -17.392  -8.275  -6.453  1.00  0.00     0.210 HD
ENDBRANCH   3  35
BRANCH   1  37
HETATM   37  C   UNL     1     -17.266 -10.656  -2.417  1.00  0.00     0.205 C 
BRANCH  37  38
HETATM   38  O   UNL     1     -17.741 -11.314  -1.238  1.00  0.00    -0.356 OA
BRANCH  38  39
HETATM   39  C   UNL     1     -17.066 -12.521  -0.954  1.00  0.00     0.291 C 
HETATM   40  C   UNL     1     -17.102 -12.704   0.573  1.00  0.00     0.204 C 
HETATM   41  C   UNL     1     -16.420 -14.030   0.900  1.00  0.00     0.183 C 
HETATM   42  C   UNL     1     -14.982 -14.049   0.347  1.00  0.00     0.178 C 
HETATM   43  C   UNL     1     -14.929 -13.609  -1.132  1.00  0.00     0.152 C 
HETATM   44  C   UNL     1     -15.336 -14.697  -2.116  1.00  0.00     0.042 C 
HETATM   45  O   UNL     1     -15.708 -12.427  -1.380  1.00  0.00    -0.351 OA
BRANCH  40  46
HETATM   46  O   UNL     1     -16.376 -11.624   1.215  1.00  0.00    -0.388 OA
HETATM   47  H   UNL     1     -16.547 -10.837   0.651  1.00  0.00     0.210 HD
ENDBRANCH  40  46
BRANCH  41  48
HETATM   48  O   UNL     1     -16.422 -14.244   2.314  1.00  0.00    -0.390 OA
HETATM   49  H   UNL     1     -15.792 -13.586   2.672  1.00  0.00     0.210 HD
ENDBRANCH  41  48
BRANCH  42  50
HETATM   50  O   UNL     1     -14.154 -13.158   1.118  1.00  0.00    -0.390 OA
HETATM   51  H   UNL     1     -14.727 -12.412   1.395  1.00  0.00     0.210 HD
ENDBRANCH  42  50
ENDBRANCH  38  39
ENDBRANCH  37  38
ENDBRANCH   1  37
BRANCH   2  52
HETATM   52  O   UNL     1     -18.276 -11.587  -5.962  1.00  0.00    -0.390 OA
HETATM   53  H   UNL     1     -18.958 -11.121  -6.497  1.00  0.00     0.210 HD
ENDBRANCH   2  52
TORSDOF 16
ENDMDL
MODEL 7
REMARK VINA RESULT:      -6.4      2.636      6.493
REMARK  16 active torsions:
REMARK  status: ('A' for Active; 'I' for Inactive)
REMARK    1  A    between atoms: C_3  and  O_43 
REMARK    2  A    between atoms: C_4  and  O_42 
REMARK    3  A    between atoms: C_5  and  O_41 
REMARK    4  A    between atoms: C_6  and  O_8 
REMARK    5  A    between atoms: O_8  and  C_9 
REMARK    6  A    between atoms: C_9  and  C_10 
REMARK    7  A    between atoms: C_11  and  O_40 
REMARK    8  A    between atoms: C_12  and  O_39 
REMARK    9  A    between atoms: C_13  and  O_38 
REMARK   10  A    between atoms: C_14  and  O_16 
REMARK   11  A    between atoms: O_16  and  C_17 
REMARK   12  A    between atoms: C_18  and  C_30 
REMARK   13  A    between atoms: C_22  and  O_29 
REMARK   14  A    between atoms: C_24  and  O_28 
REMARK   15  A    between atoms: C_32  and  O_37 
REMARK   16  A    between atoms: C_33  and  O_36 
ROOT
HETATM    1  C   UNL     1     -21.896 -13.473  -4.350  1.00  0.00     0.180 C 
HETATM    2  C   UNL     1     -22.535 -14.844  -4.577  1.00  0.00     0.180 C 
HETATM    3  C   UNL     1     -23.792 -15.029  -3.722  1.00  0.00     0.183 C 
HETATM    4  C   UNL     1     -23.497 -14.796  -2.236  1.00  0.00     0.205 C 
HETATM    5  C   UNL     1     -22.795 -13.430  -2.042  1.00  0.00     0.298 C 
HETATM    6  O   UNL     1     -21.800 -13.083  -2.979  1.00  0.00    -0.348 OA
ENDROOT
BRANCH   5   7
HETATM    7  O   UNL     1     -22.302 -13.261  -0.694  1.00  0.00    -0.311 OA
BRANCH   7   8
HETATM    8  C   UNL     1     -20.936 -13.075  -0.476  1.00  0.00     0.157 C 
HETATM    9  C   UNL     1     -20.430 -11.825  -0.378  1.00  0.00     0.124 C 
HETATM   10  O   UNL     1     -19.093 -11.525  -0.157  1.00  0.00    -0.306 OA
HETATM   11  C   UNL     1     -18.241 -12.520   0.222  1.00  0.00     0.096 A 
HETATM   12  C   UNL     1     -16.981 -12.146   0.681  1.00  0.00     0.075 A 
HETATM   13  C   UNL     1     -18.595 -13.855   0.183  1.00  0.00     0.084 A 
HETATM   14  C   UNL     1     -16.090 -13.126   1.096  1.00  0.00     0.071 A 
HETATM   15  C   UNL     1     -16.436 -14.472   1.076  1.00  0.00     0.074 A 
HETATM   16  C   UNL     1     -17.696 -14.838   0.629  1.00  0.00     0.085 A 
HETATM   17  C   UNL     1     -19.940 -14.189  -0.282  1.00  0.00     0.223 C 
HETATM   18  O   UNL     1     -20.198 -15.376  -0.396  1.00  0.00    -0.284 OA
BRANCH   9  19
HETATM   19  C   UNL     1     -21.194 -10.575  -0.492  1.00  0.00     0.004 A 
HETATM   20  C   UNL     1     -21.283  -9.951  -1.744  1.00  0.00     0.053 A 
HETATM   21  C   UNL     1     -21.634  -8.608  -1.808  1.00  0.00     0.099 A 
HETATM   22  C   UNL     1     -21.940  -7.899  -0.645  1.00  0.00     0.098 A 
HETATM   23  C   UNL     1     -21.939  -8.527   0.593  1.00  0.00     0.040 A 
HETATM   24  C   UNL     1     -21.554  -9.867   0.671  1.00  0.00     0.017 A 
BRANCH  21  25
HETATM   25  O   UNL     1     -21.615  -7.918  -2.988  1.00  0.00    -0.358 OA
HETATM   26  H   UNL     1     -21.996  -7.036  -2.828  1.00  0.00     0.217 HD
ENDBRANCH  21  25
BRANCH  22  27
HETATM   27  O   UNL     1     -22.193  -6.560  -0.717  1.00  0.00    -0.358 OA
HETATM   28  H   UNL     1     -21.808  -6.283  -1.572  1.00  0.00     0.217 HD
ENDBRANCH  22  27
ENDBRANCH   9  19
BRANCH  14  29
HETATM   29  O   UNL     1     -14.848 -12.815   1.552  1.00  0.00    -0.361 OA
HETATM   30  H   UNL     1     -14.255 -13.569   1.407  1.00  0.00     0.217 HD
ENDBRANCH  14  29
BRANCH  16  31
HETATM   31  O   UNL     1     -18.048 -16.158   0.677  1.00  0.00    -0.360 OA
HETATM   32  H   UNL     1     -17.886 -16.522   1.560  1.00  0.00     0.217 HD
ENDBRANCH  16  31
ENDBRANCH   7   8
ENDBRANCH   5   7
BRANCH   4  33
HETATM   33  O   UNL     1     -22.744 -15.912  -1.719  1.00  0.00    -0.388 OA
HETATM   34  H   UNL     1     -22.678 -16.560  -2.444  1.00  0.00     0.210 HD
ENDBRANCH   4  33
BRANCH   3  35
HETATM   35  O   UNL     1     -24.302 -16.355  -3.910  1.00  0.00    -0.390 OA
HETATM   36  H   UNL     1     -25.016 -16.247  -4.589  1.00  0.00     0.210 HD
ENDBRANCH   3  35
BRANCH   1  37
HETATM   37  C   UNL     1     -22.532 -12.317  -5.107  1.00  0.00     0.205 C 
BRANCH  37  38
HETATM   38  O   UNL     1     -21.667 -12.084  -6.224  1.00  0.00    -0.356 OA
BRANCH  38  39
HETATM   39  C   UNL     1     -20.329 -11.824  -5.857  1.00  0.00     0.291 C 
HETATM   40  C   UNL     1     -20.328 -10.494  -5.085  1.00  0.00     0.204 C 
HETATM   41  C   UNL     1     -18.896 -10.218  -4.635  1.00  0.00     0.183 C 
HETATM   42  C   UNL     1     -17.945 -10.184  -5.847  1.00  0.00     0.178 C 
HETATM   43  C   UNL     1     -18.140 -11.411  -6.764  1.00  0.00     0.152 C 
HETATM   44  C   UNL     1     -17.467 -12.678  -6.252  1.00  0.00     0.042 C 
HETATM   45  O   UNL     1     -19.525 -11.683  -7.028  1.00  0.00    -0.351 OA
BRANCH  40  46
HETATM   46  O   UNL     1     -20.771  -9.420  -5.954  1.00  0.00    -0.388 OA
HETATM   47  H   UNL     1     -21.096  -9.872  -6.764  1.00  0.00     0.210 HD
ENDBRANCH  40  46
BRANCH  41  48
HETATM   48  O   UNL     1     -18.841  -8.983  -3.914  1.00  0.00    -0.390 OA
HETATM   49  H   UNL     1     -19.311  -8.337  -4.479  1.00  0.00     0.210 HD
ENDBRANCH  41  48
BRANCH  42  50
HETATM   50  O   UNL     1     -18.187  -8.995  -6.621  1.00  0.00    -0.390 OA
HETATM   51  H   UNL     1     -17.368  -8.457  -6.574  1.00  0.00     0.210 HD
ENDBRANCH  42  50
ENDBRANCH  38  39
ENDBRANCH  37  38
ENDBRANCH   1  37
BRANCH   2  52
HETATM   52  O   UNL     1     -21.605 -15.900  -4.239  1.00  0.00    -0.390 OA
HETATM   53  H   UNL     1     -21.801 -16.682  -4.804  1.00  0.00     0.210 HD
ENDBRANCH   2  52
TORSDOF 16
ENDMDL
MODEL 8
REMARK VINA RESULT:      -6.4      2.545      4.549
REMARK  16 active torsions:
REMARK  status: ('A' for Active; 'I' for Inactive)
REMARK    1  A    between atoms: C_3  and  O_43 
REMARK    2  A    between atoms: C_4  and  O_42 
REMARK    3  A    between atoms: C_5  and  O_41 
REMARK    4  A    between atoms: C_6  and  O_8 
REMARK    5  A    between atoms: O_8  and  C_9 
REMARK    6  A    between atoms: C_9  and  C_10 
REMARK    7  A    between atoms: C_11  and  O_40 
REMARK    8  A    between atoms: C_12  and  O_39 
REMARK    9  A    between atoms: C_13  and  O_38 
REMARK   10  A    between atoms: C_14  and  O_16 
REMARK   11  A    between atoms: O_16  and  C_17 
REMARK   12  A    between atoms: C_18  and  C_30 
REMARK   13  A    between atoms: C_22  and  O_29 
REMARK   14  A    between atoms: C_24  and  O_28 
REMARK   15  A    between atoms: C_32  and  O_37 
REMARK   16  A    between atoms: C_33  and  O_36 
ROOT
HETATM    1  C   UNL     1     -18.370 -12.087  -5.486  1.00  0.00     0.180 C 
HETATM    2  C   UNL     1     -18.987 -13.448  -5.813  1.00  0.00     0.180 C 
HETATM    3  C   UNL     1     -19.952 -13.359  -6.999  1.00  0.00     0.183 C 
HETATM    4  C   UNL     1     -21.037 -12.303  -6.758  1.00  0.00     0.205 C 
HETATM    5  C   UNL     1     -20.387 -10.953  -6.368  1.00  0.00     0.298 C 
HETATM    6  O   UNL     1     -19.299 -11.002  -5.474  1.00  0.00    -0.348 OA
ENDROOT
BRANCH   5   7
HETATM    7  O   UNL     1     -21.367  -9.989  -5.920  1.00  0.00    -0.311 OA
BRANCH   7   8
HETATM    8  C   UNL     1     -21.304  -9.494  -4.617  1.00  0.00     0.157 C 
HETATM    9  C   UNL     1     -21.272  -8.160  -4.400  1.00  0.00     0.124 C 
HETATM   10  O   UNL     1     -21.216  -7.561  -3.150  1.00  0.00    -0.306 OA
HETATM   11  C   UNL     1     -21.438  -8.317  -2.037  1.00  0.00     0.096 A 
HETATM   12  C   UNL     1     -21.628  -7.646  -0.832  1.00  0.00     0.075 A 
HETATM   13  C   UNL     1     -21.499  -9.697  -2.079  1.00  0.00     0.084 A 
HETATM   14  C   UNL     1     -21.878  -8.379   0.321  1.00  0.00     0.071 A 
HETATM   15  C   UNL     1     -21.956  -9.765   0.293  1.00  0.00     0.074 A 
HETATM   16  C   UNL     1     -21.778 -10.427  -0.911  1.00  0.00     0.085 A 
HETATM   17  C   UNL     1     -21.319 -10.348  -3.375  1.00  0.00     0.223 C 
HETATM   18  O   UNL     1     -21.284 -11.568  -3.372  1.00  0.00    -0.284 OA
BRANCH   9  19
HETATM   19  C   UNL     1     -21.287  -7.118  -5.436  1.00  0.00     0.004 A 
HETATM   20  C   UNL     1     -20.066  -6.685  -5.974  1.00  0.00     0.053 A 
HETATM   21  C   UNL     1     -20.012  -5.462  -6.630  1.00  0.00     0.099 A 
HETATM   22  C   UNL     1     -21.166  -4.694  -6.794  1.00  0.00     0.098 A 
HETATM   23  C   UNL     1     -22.396  -5.150  -6.343  1.00  0.00     0.040 A 
HETATM   24  C   UNL     1     -22.455  -6.362  -5.651  1.00  0.00     0.017 A 
BRANCH  21  25
HETATM   25  O   UNL     1     -18.828  -4.933  -7.064  1.00  0.00    -0.358 OA
HETATM   26  H   UNL     1     -18.192  -5.663  -7.169  1.00  0.00     0.217 HD
ENDBRANCH  21  25
BRANCH  22  27
HETATM   27  O   UNL     1     -21.077  -3.454  -7.361  1.00  0.00    -0.358 OA
HETATM   28  H   UNL     1     -21.620  -2.882  -6.783  1.00  0.00     0.217 HD
ENDBRANCH  22  27
ENDBRANCH   9  19
BRANCH  14  29
HETATM   29  O   UNL     1     -22.071  -7.773   1.522  1.00  0.00    -0.361 OA
HETATM   30  H   UNL     1     -21.810  -6.840   1.456  1.00  0.00     0.217 HD
ENDBRANCH  14  29
BRANCH  16  31
HETATM   31  O   UNL     1     -21.922 -11.786  -0.938  1.00  0.00    -0.360 OA
HETATM   32  H   UNL     1     -21.393 -12.200  -0.240  1.00  0.00     0.217 HD
ENDBRANCH  16  31
ENDBRANCH   7   8
ENDBRANCH   5   7
BRANCH   4  33
HETATM   33  O   UNL     1     -21.975 -12.797  -5.781  1.00  0.00    -0.388 OA
HETATM   34  H   UNL     1     -21.772 -12.335  -4.947  1.00  0.00     0.210 HD
ENDBRANCH   4  33
BRANCH   3  35
HETATM   35  O   UNL     1     -20.563 -14.637  -7.210  1.00  0.00    -0.390 OA
HETATM   36  H   UNL     1     -19.842 -15.288  -7.009  1.00  0.00     0.210 HD
ENDBRANCH   3  35
BRANCH   1  37
HETATM   37  C   UNL     1     -17.195 -11.670  -6.358  1.00  0.00     0.205 C 
BRANCH  37  38
HETATM   38  O   UNL     1     -16.090 -11.544  -5.457  1.00  0.00    -0.356 OA
BRANCH  38  39
HETATM   39  C   UNL     1     -15.486 -12.777  -5.128  1.00  0.00     0.291 C 
HETATM   40  C   UNL     1     -15.562 -12.916  -3.597  1.00  0.00     0.204 C 
HETATM   41  C   UNL     1     -14.959 -14.267  -3.222  1.00  0.00     0.183 C 
HETATM   42  C   UNL     1     -13.512 -14.377  -3.743  1.00  0.00     0.178 C 
HETATM   43  C   UNL     1     -13.407 -13.980  -5.232  1.00  0.00     0.152 C 
HETATM   44  C   UNL     1     -13.852 -15.072  -6.196  1.00  0.00     0.042 C 
HETATM   45  O   UNL     1     -14.116 -12.766  -5.527  1.00  0.00    -0.351 OA
BRANCH  40  46
HETATM   46  O   UNL     1     -14.793 -11.859  -2.969  1.00  0.00    -0.388 OA
HETATM   47  H   UNL     1     -14.673 -12.155  -2.040  1.00  0.00     0.210 HD
ENDBRANCH  40  46
BRANCH  41  48
HETATM   48  O   UNL     1     -15.000 -14.443  -1.804  1.00  0.00    -0.390 OA
HETATM   49  H   UNL     1     -14.063 -14.455  -1.521  1.00  0.00     0.210 HD
ENDBRANCH  41  48
BRANCH  42  50
HETATM   50  O   UNL     1     -12.654 -13.510  -2.979  1.00  0.00    -0.390 OA
HETATM   51  H   UNL     1     -12.751 -12.612  -3.359  1.00  0.00     0.210 HD
ENDBRANCH  42  50
ENDBRANCH  38  39
ENDBRANCH  37  38
ENDBRANCH   1  37
BRANCH   2  52
HETATM   52  O   UNL     1     -19.722 -13.959  -4.676  1.00  0.00    -0.390 OA
HETATM   53  H   UNL     1     -19.261 -14.763  -4.342  1.00  0.00     0.210 HD
ENDBRANCH   2  52
TORSDOF 16
ENDMDL
MODEL 9
REMARK VINA RESULT:      -6.4      2.186      6.821
REMARK  16 active torsions:
REMARK  status: ('A' for Active; 'I' for Inactive)
REMARK    1  A    between atoms: C_3  and  O_43 
REMARK    2  A    between atoms: C_4  and  O_42 
REMARK    3  A    between atoms: C_5  and  O_41 
REMARK    4  A    between atoms: C_6  and  O_8 
REMARK    5  A    between atoms: O_8  and  C_9 
REMARK    6  A    between atoms: C_9  and  C_10 
REMARK    7  A    between atoms: C_11  and  O_40 
REMARK    8  A    between atoms: C_12  and  O_39 
REMARK    9  A    between atoms: C_13  and  O_38 
REMARK   10  A    between atoms: C_14  and  O_16 
REMARK   11  A    between atoms: O_16  and  C_17 
REMARK   12  A    between atoms: C_18  and  C_30 
REMARK   13  A    between atoms: C_22  and  O_29 
REMARK   14  A    between atoms: C_24  and  O_28 
REMARK   15  A    between atoms: C_32  and  O_37 
REMARK   16  A    between atoms: C_33  and  O_36 
ROOT
HETATM    1  C   UNL     1     -19.392 -11.653  -0.839  1.00  0.00     0.180 C 
HETATM    2  C   UNL     1     -20.127 -11.835   0.490  1.00  0.00     0.180 C 
HETATM    3  C   UNL     1     -21.373 -12.711   0.330  1.00  0.00     0.183 C 
HETATM    4  C   UNL     1     -22.311 -12.158  -0.749  1.00  0.00     0.205 C 
HETATM    5  C   UNL     1     -21.528 -11.925  -2.064  1.00  0.00     0.298 C 
HETATM    6  O   UNL     1     -20.241 -11.361  -1.950  1.00  0.00    -0.348 OA
ENDROOT
BRANCH   5   7
HETATM    7  O   UNL     1     -22.312 -11.204  -3.041  1.00  0.00    -0.311 OA
BRANCH   7   8
HETATM    8  C   UNL     1     -21.748 -10.122  -3.718  1.00  0.00     0.157 C 
HETATM    9  C   UNL     1     -21.392 -10.247  -5.016  1.00  0.00     0.124 C 
HETATM   10  O   UNL     1     -20.829  -9.238  -5.785  1.00  0.00    -0.306 OA
HETATM   11  C   UNL     1     -20.832  -7.959  -5.312  1.00  0.00     0.096 A 
HETATM   12  C   UNL     1     -20.500  -6.944  -6.205  1.00  0.00     0.075 A 
HETATM   13  C   UNL     1     -21.169  -7.651  -4.008  1.00  0.00     0.084 A 
HETATM   14  C   UNL     1     -20.511  -5.625  -5.770  1.00  0.00     0.071 A 
HETATM   15  C   UNL     1     -20.861  -5.299  -4.465  1.00  0.00     0.074 A 
HETATM   16  C   UNL     1     -21.203  -6.312  -3.584  1.00  0.00     0.085 A 
HETATM   17  C   UNL     1     -21.536  -8.754  -3.121  1.00  0.00     0.223 C 
HETATM   18  O   UNL     1     -21.739  -8.469  -1.953  1.00  0.00    -0.284 OA
BRANCH   9  19
HETATM   19  C   UNL     1     -21.529 -11.460  -5.834  1.00  0.00     0.004 A 
HETATM   20  C   UNL     1     -22.607 -12.321  -5.587  1.00  0.00     0.053 A 
HETATM   21  C   UNL     1     -22.544 -13.632  -6.043  1.00  0.00     0.099 A 
HETATM   22  C   UNL     1     -21.444 -14.075  -6.777  1.00  0.00     0.098 A 
HETATM   23  C   UNL     1     -20.409 -13.210  -7.103  1.00  0.00     0.040 A 
HETATM   24  C   UNL     1     -20.446 -11.899  -6.620  1.00  0.00     0.017 A 
BRANCH  21  25
HETATM   25  O   UNL     1     -23.509 -14.548  -5.724  1.00  0.00    -0.358 OA
HETATM   26  H   UNL     1     -23.411 -14.774  -4.783  1.00  0.00     0.217 HD
ENDBRANCH  21  25
BRANCH  22  27
HETATM   27  O   UNL     1     -21.357 -15.389  -7.138  1.00  0.00    -0.358 OA
HETATM   28  H   UNL     1     -20.759 -15.786  -6.474  1.00  0.00     0.217 HD
ENDBRANCH  22  27
ENDBRANCH   9  19
BRANCH  14  29
HETATM   29  O   UNL     1     -20.194  -4.597  -6.600  1.00  0.00    -0.361 OA
HETATM   30  H   UNL     1     -20.899  -3.931  -6.569  1.00  0.00     0.217 HD
ENDBRANCH  14  29
BRANCH  16  31
HETATM   31  O   UNL     1     -21.609  -5.974  -2.324  1.00  0.00    -0.360 OA
HETATM   32  H   UNL     1     -21.417  -6.689  -1.700  1.00  0.00     0.217 HD
ENDBRANCH  16  31
ENDBRANCH   7   8
ENDBRANCH   5   7
BRANCH   4  33
HETATM   33  O   UNL     1     -22.968 -10.976  -0.249  1.00  0.00    -0.388 OA
HETATM   34  H   UNL     1     -22.559 -10.777   0.613  1.00  0.00     0.210 HD
ENDBRANCH   4  33
BRANCH   3  35
HETATM   35  O   UNL     1     -22.067 -12.781   1.582  1.00  0.00    -0.390 OA
HETATM   36  H   UNL     1     -22.460 -11.878   1.693  1.00  0.00     0.210 HD
ENDBRANCH   3  35
BRANCH   1  37
HETATM   37  C   UNL     1     -18.483 -12.801  -1.251  1.00  0.00     0.205 C 
BRANCH  37  38
HETATM   38  O   UNL     1     -17.181 -12.217  -1.375  1.00  0.00    -0.356 OA
BRANCH  38  39
HETATM   39  C   UNL     1     -16.710 -12.165  -2.705  1.00  0.00     0.291 C 
HETATM   40  C   UNL     1     -16.300 -10.707  -2.976  1.00  0.00     0.204 C 
HETATM   41  C   UNL     1     -15.740 -10.637  -4.394  1.00  0.00     0.183 C 
HETATM   42  C   UNL     1     -16.780 -11.145  -5.412  1.00  0.00     0.178 C 
HETATM   43  C   UNL     1     -17.381 -12.503  -4.989  1.00  0.00     0.152 C 
HETATM   44  C   UNL     1     -16.483 -13.697  -5.289  1.00  0.00     0.042 C 
HETATM   45  O   UNL     1     -17.758 -12.528  -3.603  1.00  0.00    -0.351 OA
BRANCH  40  46
HETATM   46  O   UNL     1     -17.461  -9.843  -2.878  1.00  0.00    -0.388 OA
HETATM   47  H   UNL     1     -17.142  -8.961  -3.171  1.00  0.00     0.210 HD
ENDBRANCH  40  46
BRANCH  41  48
HETATM   48  O   UNL     1     -15.348  -9.296  -4.698  1.00  0.00    -0.390 OA
HETATM   49  H   UNL     1     -15.646  -9.145  -5.619  1.00  0.00     0.210 HD
ENDBRANCH  41  48
BRANCH  42  50
HETATM   50  O   UNL     1     -17.851 -10.190  -5.529  1.00  0.00    -0.390 OA
HETATM   51  H   UNL     1     -17.865  -9.898  -6.465  1.00  0.00     0.210 HD
ENDBRANCH  42  50
ENDBRANCH  38  39
ENDBRANCH  37  38
ENDBRANCH   1  37
BRANCH   2  52
HETATM   52  O   UNL     1     -20.546 -10.555   1.019  1.00  0.00    -0.390 OA
HETATM   53  H   UNL     1     -20.752  -9.957   0.263  1.00  0.00     0.210 HD
ENDBRANCH   2  52
TORSDOF 16
ENDMDL
