MODEL 1
REMARK VINA RESULT:      -6.8      0.000      0.000
REMARK  16 active torsions:
REMARK  status: ('A' for Active; 'I' for Inactive)
REMARK    1  A    between atoms: C_2  and  C_3 
REMARK    2  A    between atoms: C_3  and  C_4 
REMARK    3  A    between atoms: C_4  and  C_5 
REMARK    4  A    between atoms: C_5  and  C_6 
REMARK    5  A    between atoms: C_5  and  C_8 
REMARK    6  A    between atoms: C_8  and  O_9 
REMARK    7  A    between atoms: O_9  and  C_10 
REMARK    8  A    between atoms: C_10  and  C_12 
REMARK    9  A    between atoms: C_13  and  C_14 
REMARK   10  A    between atoms: C_14  and  O_16 
REMARK   11  A    between atoms: O_16  and  C_17 
REMARK   12  A    between atoms: C_17  and  C_18 
REMARK   13  A    between atoms: C_18  and  C_19 
REMARK   14  A    between atoms: C_18  and  C_21 
REMARK   15  A    between atoms: C_21  and  C_22 
REMARK   16  A    between atoms: C_22  and  C_23 
ROOT
HETATM    1  C   UNL     1     -21.423  -6.737  -5.218  1.00  0.00     0.088 C 
HETATM    2  C   UNL     1     -21.268  -5.987  -4.115  1.00  0.00     0.088 C 
ENDROOT
BRANCH   1   3
HETATM    3  C   UNL     1     -21.068  -6.173  -6.538  1.00  0.00     0.283 C 
HETATM    4  O   UNL     1     -20.040  -6.443  -7.143  1.00  0.00    -0.260 OA
BRANCH   3   5
HETATM    5  O   UNL     1     -21.993  -5.246  -6.894  1.00  0.00    -0.318 OA
BRANCH   5   6
HETATM    6  C   UNL     1     -21.491  -4.065  -7.559  1.00  0.00     0.183 C 
BRANCH   6   7
HETATM    7  C   UNL     1     -22.124  -3.764  -8.935  1.00  0.00     0.010 C 
BRANCH   7   8
HETATM    8  C   UNL     1     -21.453  -4.594 -10.050  1.00  0.00     0.007 C 
BRANCH   8   9
HETATM    9  C   UNL     1     -20.843  -3.795 -11.212  1.00  0.00     0.000 C 
BRANCH   9  10
HETATM   10  C   UNL     1     -21.707  -2.636 -11.713  1.00  0.00    -0.005 C 
HETATM   11  C   UNL     1     -22.626  -3.102 -12.836  1.00  0.00     0.005 C 
ENDBRANCH   9  10
ENDBRANCH   8   9
ENDBRANCH   7   8
BRANCH   7  12
HETATM   12  C   UNL     1     -23.664  -3.923  -8.874  1.00  0.00     0.002 C 
HETATM   13  C   UNL     1     -24.304  -4.759  -9.977  1.00  0.00     0.005 C 
ENDBRANCH   7  12
ENDBRANCH   6   7
ENDBRANCH   5   6
ENDBRANCH   3   5
ENDBRANCH   1   3
BRANCH   2  14
HETATM   14  C   UNL     1     -21.788  -6.445  -2.803  1.00  0.00     0.283 C 
HETATM   15  O   UNL     1     -22.269  -5.721  -1.953  1.00  0.00    -0.260 OA
BRANCH  14  16
HETATM   16  O   UNL     1     -21.470  -7.762  -2.660  1.00  0.00    -0.318 OA
BRANCH  16  17
HETATM   17  C   UNL     1     -20.489  -8.021  -1.641  1.00  0.00     0.183 C 
BRANCH  17  18
HETATM   18  C   UNL     1     -20.951  -8.957  -0.507  1.00  0.00     0.010 C 
BRANCH  18  19
HETATM   19  C   UNL     1     -21.701  -8.215   0.625  1.00  0.00     0.002 C 
HETATM   20  C   UNL     1     -23.219  -8.173   0.490  1.00  0.00     0.005 C 
ENDBRANCH  18  19
BRANCH  18  21
HETATM   21  C   UNL     1     -21.813 -10.126  -1.065  1.00  0.00     0.007 C 
BRANCH  21  22
HETATM   22  C   UNL     1     -21.377 -11.511  -0.567  1.00  0.00     0.000 C 
BRANCH  22  23
HETATM   23  C   UNL     1     -22.259 -12.037   0.567  1.00  0.00    -0.005 C 
HETATM   24  C   UNL     1     -23.733 -11.953   0.191  1.00  0.00     0.005 C 
ENDBRANCH  22  23
ENDBRANCH  21  22
ENDBRANCH  18  21
ENDBRANCH  17  18
ENDBRANCH  16  17
ENDBRANCH  14  16
ENDBRANCH   2  14
TORSDOF 16
ENDMDL
MODEL 2
REMARK VINA RESULT:      -6.7      0.958     10.323
REMARK  16 active torsions:
REMARK  status: ('A' for Active; 'I' for Inactive)
REMARK    1  A    between atoms: C_2  and  C_3 
REMARK    2  A    between atoms: C_3  and  C_4 
REMARK    3  A    between atoms: C_4  and  C_5 
REMARK    4  A    between atoms: C_5  and  C_6 
REMARK    5  A    between atoms: C_5  and  C_8 
REMARK    6  A    between atoms: C_8  and  O_9 
REMARK    7  A    between atoms: O_9  and  C_10 
REMARK    8  A    between atoms: C_10  and  C_12 
REMARK    9  A    between atoms: C_13  and  C_14 
REMARK   10  A    between atoms: C_14  and  O_16 
REMARK   11  A    between atoms: O_16  and  C_17 
REMARK   12  A    between atoms: C_17  and  C_18 
REMARK   13  A    between atoms: C_18  and  C_19 
REMARK   14  A    between atoms: C_18  and  C_21 
REMARK   15  A    between atoms: C_21  and  C_22 
REMARK   16  A    between atoms: C_22  and  C_23 
ROOT
HETATM    1  C   UNL     1     -20.825  -5.949  -4.097  1.00  0.00     0.088 C 
HETATM    2  C   UNL     1     -20.976  -6.204  -5.408  1.00  0.00     0.088 C 
ENDROOT
BRANCH   1   3
HETATM    3  C   UNL     1     -21.768  -6.543  -3.126  1.00  0.00     0.283 C 
HETATM    4  O   UNL     1     -22.629  -5.910  -2.532  1.00  0.00    -0.260 OA
BRANCH   3   5
HETATM    5  O   UNL     1     -21.445  -7.846  -2.926  1.00  0.00    -0.318 OA
BRANCH   5   6
HETATM    6  C   UNL     1     -21.193  -8.241  -1.560  1.00  0.00     0.183 C 
BRANCH   6   7
HETATM    7  C   UNL     1     -22.431  -8.724  -0.774  1.00  0.00     0.010 C 
BRANCH   7   8
HETATM    8  C   UNL     1     -22.686 -10.229  -1.003  1.00  0.00     0.007 C 
BRANCH   8   9
HETATM    9  C   UNL     1     -23.847 -10.846  -0.211  1.00  0.00     0.000 C 
BRANCH   9  10
HETATM   10  C   UNL     1     -23.509 -12.159   0.499  1.00  0.00    -0.005 C 
HETATM   11  C   UNL     1     -22.002 -12.294   0.681  1.00  0.00     0.005 C 
ENDBRANCH   9  10
ENDBRANCH   8   9
ENDBRANCH   7   8
BRANCH   7  12
HETATM   12  C   UNL     1     -22.319  -8.326   0.720  1.00  0.00     0.002 C 
HETATM   13  C   UNL     1     -21.010  -8.679   1.418  1.00  0.00     0.005 C 
ENDBRANCH   7  12
ENDBRANCH   6   7
ENDBRANCH   5   6
ENDBRANCH   3   5
ENDBRANCH   1   3
BRANCH   2  14
HETATM   14  C   UNL     1     -20.173  -5.478  -6.423  1.00  0.00     0.283 C 
HETATM   15  O   UNL     1     -19.436  -4.541  -6.188  1.00  0.00    -0.260 OA
BRANCH  14  16
HETATM   16  O   UNL     1     -20.544  -5.929  -7.654  1.00  0.00    -0.318 OA
BRANCH  16  17
HETATM   17  C   UNL     1     -20.133  -5.076  -8.738  1.00  0.00     0.183 C 
BRANCH  17  18
HETATM   18  C   UNL     1     -21.276  -4.556  -9.632  1.00  0.00     0.010 C 
BRANCH  18  19
HETATM   19  C   UNL     1     -22.267  -3.635  -8.878  1.00  0.00     0.002 C 
HETATM   20  C   UNL     1     -23.718  -4.102  -8.865  1.00  0.00     0.005 C 
ENDBRANCH  18  19
BRANCH  18  21
HETATM   21  C   UNL     1     -20.714  -3.842 -10.896  1.00  0.00     0.007 C 
BRANCH  21  22
HETATM   22  C   UNL     1     -21.694  -2.848 -11.534  1.00  0.00     0.000 C 
BRANCH  22  23
HETATM   23  C   UNL     1     -22.623  -3.505 -12.557  1.00  0.00    -0.005 C 
HETATM   24  C   UNL     1     -24.030  -2.929 -12.460  1.00  0.00     0.005 C 
ENDBRANCH  22  23
ENDBRANCH  21  22
ENDBRANCH  18  21
ENDBRANCH  17  18
ENDBRANCH  16  17
ENDBRANCH  14  16
ENDBRANCH   2  14
TORSDOF 16
ENDMDL
MODEL 3
REMARK VINA RESULT:      -6.5     13.499     15.257
REMARK  16 active torsions:
REMARK  status: ('A' for Active; 'I' for Inactive)
REMARK    1  A    between atoms: C_2  and  C_3 
REMARK    2  A    between atoms: C_3  and  C_4 
REMARK    3  A    between atoms: C_4  and  C_5 
REMARK    4  A    between atoms: C_5  and  C_6 
REMARK    5  A    between atoms: C_5  and  C_8 
REMARK    6  A    between atoms: C_8  and  O_9 
REMARK    7  A    between atoms: O_9  and  C_10 
REMARK    8  A    between atoms: C_10  and  C_12 
REMARK    9  A    between atoms: C_13  and  C_14 
REMARK   10  A    between atoms: C_14  and  O_16 
REMARK   11  A    between atoms: O_16  and  C_17 
REMARK   12  A    between atoms: C_17  and  C_18 
REMARK   13  A    between atoms: C_18  and  C_19 
REMARK   14  A    between atoms: C_18  and  C_21 
REMARK   15  A    between atoms: C_21  and  C_22 
REMARK   16  A    between atoms: C_22  and  C_23 
ROOT
HETATM    1  C   UNL     1     -32.652  -4.732 -16.295  1.00  0.00     0.088 C 
HETATM    2  C   UNL     1     -33.817  -4.202 -15.887  1.00  0.00     0.088 C 
ENDROOT
BRANCH   1   3
HETATM    3  C   UNL     1     -31.831  -4.008 -17.288  1.00  0.00     0.283 C 
HETATM    4  O   UNL     1     -32.176  -2.970 -17.836  1.00  0.00    -0.260 OA
BRANCH   3   5
HETATM    5  O   UNL     1     -30.717  -4.732 -17.565  1.00  0.00    -0.318 OA
BRANCH   5   6
HETATM    6  C   UNL     1     -30.672  -6.070 -17.021  1.00  0.00     0.183 C 
BRANCH   6   7
HETATM    7  C   UNL     1     -29.416  -6.889 -17.388  1.00  0.00     0.010 C 
BRANCH   7   8
HETATM    8  C   UNL     1     -28.893  -6.512 -18.790  1.00  0.00     0.007 C 
BRANCH   8   9
HETATM    9  C   UNL     1     -27.395  -6.190 -18.889  1.00  0.00     0.000 C 
BRANCH   9  10
HETATM   10  C   UNL     1     -26.721  -6.675 -20.175  1.00  0.00    -0.005 C 
HETATM   11  C   UNL     1     -25.230  -6.890 -19.947  1.00  0.00     0.005 C 
ENDBRANCH   9  10
ENDBRANCH   8   9
ENDBRANCH   7   8
BRANCH   7  12
HETATM   12  C   UNL     1     -28.348  -6.781 -16.270  1.00  0.00     0.002 C 
HETATM   13  C   UNL     1     -28.781  -6.086 -14.984  1.00  0.00     0.005 C 
ENDBRANCH   7  12
ENDBRANCH   6   7
ENDBRANCH   5   6
ENDBRANCH   3   5
ENDBRANCH   1   3
BRANCH   2  14
HETATM   14  C   UNL     1     -34.755  -4.982 -15.042  1.00  0.00     0.283 C 
HETATM   15  O   UNL     1     -35.549  -5.803 -15.458  1.00  0.00    -0.260 OA
BRANCH  14  16
HETATM   16  O   UNL     1     -34.687  -4.490 -13.774  1.00  0.00    -0.318 OA
BRANCH  16  17
HETATM   17  C   UNL     1     -34.843  -5.488 -12.749  1.00  0.00     0.183 C 
BRANCH  17  18
HETATM   18  C   UNL     1     -34.111  -5.190 -11.425  1.00  0.00     0.010 C 
BRANCH  18  19
HETATM   19  C   UNL     1     -33.765  -6.468 -10.622  1.00  0.00     0.002 C 
HETATM   20  C   UNL     1     -34.950  -7.355 -10.258  1.00  0.00     0.005 C 
ENDBRANCH  18  19
BRANCH  18  21
HETATM   21  C   UNL     1     -32.836  -4.334 -11.674  1.00  0.00     0.007 C 
BRANCH  21  22
HETATM   22  C   UNL     1     -33.017  -2.844 -11.353  1.00  0.00     0.000 C 
BRANCH  22  23
HETATM   23  C   UNL     1     -34.124  -2.589 -10.328  1.00  0.00    -0.005 C 
HETATM   24  C   UNL     1     -35.257  -1.780 -10.946  1.00  0.00     0.005 C 
ENDBRANCH  22  23
ENDBRANCH  21  22
ENDBRANCH  18  21
ENDBRANCH  17  18
ENDBRANCH  16  17
ENDBRANCH  14  16
ENDBRANCH   2  14
TORSDOF 16
ENDMDL
MODEL 4
REMARK VINA RESULT:      -6.5      1.124      1.626
REMARK  16 active torsions:
REMARK  status: ('A' for Active; 'I' for Inactive)
REMARK    1  A    between atoms: C_2  and  C_3 
REMARK    2  A    between atoms: C_3  and  C_4 
REMARK    3  A    between atoms: C_4  and  C_5 
REMARK    4  A    between atoms: C_5  and  C_6 
REMARK    5  A    between atoms: C_5  and  C_8 
REMARK    6  A    between atoms: C_8  and  O_9 
REMARK    7  A    between atoms: O_9  and  C_10 
REMARK    8  A    between atoms: C_10  and  C_12 
REMARK    9  A    between atoms: C_13  and  C_14 
REMARK   10  A    between atoms: C_14  and  O_16 
REMARK   11  A    between atoms: O_16  and  C_17 
REMARK   12  A    between atoms: C_17  and  C_18 
REMARK   13  A    between atoms: C_18  and  C_19 
REMARK   14  A    between atoms: C_18  and  C_21 
REMARK   15  A    between atoms: C_21  and  C_22 
REMARK   16  A    between atoms: C_22  and  C_23 
ROOT
HETATM    1  C   UNL     1     -21.513  -5.916  -4.841  1.00  0.00     0.088 C 
HETATM    2  C   UNL     1     -21.359  -6.947  -3.993  1.00  0.00     0.088 C 
ENDROOT
BRANCH   1   3
HETATM    3  C   UNL     1     -21.012  -6.032  -6.227  1.00  0.00     0.283 C 
HETATM    4  O   UNL     1     -20.791  -7.096  -6.788  1.00  0.00    -0.260 OA
BRANCH   3   5
HETATM    5  O   UNL     1     -20.737  -4.795  -6.711  1.00  0.00    -0.318 OA
BRANCH   5   6
HETATM    6  C   UNL     1     -20.184  -4.737  -8.044  1.00  0.00     0.183 C 
BRANCH   6   7
HETATM    7  C   UNL     1     -21.114  -4.135  -9.119  1.00  0.00     0.010 C 
BRANCH   7   8
HETATM    8  C   UNL     1     -20.448  -4.160 -10.511  1.00  0.00     0.007 C 
BRANCH   8   9
HETATM    9  C   UNL     1     -21.400  -4.128 -11.716  1.00  0.00     0.000 C 
BRANCH   9  10
HETATM   10  C   UNL     1     -22.096  -2.784 -11.943  1.00  0.00    -0.005 C 
HETATM   11  C   UNL     1     -23.039  -2.867 -13.138  1.00  0.00     0.005 C 
ENDBRANCH   9  10
ENDBRANCH   8   9
ENDBRANCH   7   8
BRANCH   7  12
HETATM   12  C   UNL     1     -22.507  -4.812  -9.077  1.00  0.00     0.002 C 
HETATM   13  C   UNL     1     -23.687  -3.914  -8.722  1.00  0.00     0.005 C 
ENDBRANCH   7  12
ENDBRANCH   6   7
ENDBRANCH   5   6
ENDBRANCH   3   5
ENDBRANCH   1   3
BRANCH   2  14
HETATM   14  C   UNL     1     -21.674  -6.800  -2.551  1.00  0.00     0.283 C 
HETATM   15  O   UNL     1     -22.411  -5.956  -2.081  1.00  0.00    -0.260 OA
BRANCH  14  16
HETATM   16  O   UNL     1     -20.867  -7.649  -1.855  1.00  0.00    -0.318 OA
BRANCH  16  17
HETATM   17  C   UNL     1     -21.331  -7.940  -0.525  1.00  0.00     0.183 C 
BRANCH  17  18
HETATM   18  C   UNL     1     -21.844  -9.378  -0.309  1.00  0.00     0.010 C 
BRANCH  18  19
HETATM   19  C   UNL     1     -21.070 -10.140   0.794  1.00  0.00     0.002 C 
HETATM   20  C   UNL     1     -20.211 -11.302   0.310  1.00  0.00     0.005 C 
ENDBRANCH  18  19
BRANCH  18  21
HETATM   21  C   UNL     1     -23.373  -9.385  -0.015  1.00  0.00     0.007 C 
BRANCH  21  22
HETATM   22  C   UNL     1     -23.999 -10.786  -0.026  1.00  0.00     0.000 C 
BRANCH  22  23
HETATM   23  C   UNL     1     -23.672 -11.572  -1.297  1.00  0.00    -0.005 C 
HETATM   24  C   UNL     1     -23.855 -13.067  -1.071  1.00  0.00     0.005 C 
ENDBRANCH  22  23
ENDBRANCH  21  22
ENDBRANCH  18  21
ENDBRANCH  17  18
ENDBRANCH  16  17
ENDBRANCH  14  16
ENDBRANCH   2  14
TORSDOF 16
ENDMDL
MODEL 5
REMARK VINA RESULT:      -6.5     13.410     15.004
REMARK  16 active torsions:
REMARK  status: ('A' for Active; 'I' for Inactive)
REMARK    1  A    between atoms: C_2  and  C_3 
REMARK    2  A    between atoms: C_3  and  C_4 
REMARK    3  A    between atoms: C_4  and  C_5 
REMARK    4  A    between atoms: C_5  and  C_6 
REMARK    5  A    between atoms: C_5  and  C_8 
REMARK    6  A    between atoms: C_8  and  O_9 
REMARK    7  A    between atoms: O_9  and  C_10 
REMARK    8  A    between atoms: C_10  and  C_12 
REMARK    9  A    between atoms: C_13  and  C_14 
REMARK   10  A    between atoms: C_14  and  O_16 
REMARK   11  A    between atoms: O_16  and  C_17 
REMARK   12  A    between atoms: C_17  and  C_18 
REMARK   13  A    between atoms: C_18  and  C_19 
REMARK   14  A    between atoms: C_18  and  C_21 
REMARK   15  A    between atoms: C_21  and  C_22 
REMARK   16  A    between atoms: C_22  and  C_23 
ROOT
HETATM    1  C   UNL     1     -32.520  -4.621 -16.219  1.00  0.00     0.088 C 
HETATM    2  C   UNL     1     -33.593  -3.970 -15.739  1.00  0.00     0.088 C 
ENDROOT
BRANCH   1   3
HETATM    3  C   UNL     1     -31.753  -4.034 -17.337  1.00  0.00     0.283 C 
HETATM    4  O   UNL     1     -32.027  -2.968 -17.871  1.00  0.00    -0.260 OA
BRANCH   3   5
HETATM    5  O   UNL     1     -30.795  -4.909 -17.734  1.00  0.00    -0.318 OA
BRANCH   5   6
HETATM    6  C   UNL     1     -30.843  -6.224 -17.138  1.00  0.00     0.183 C 
BRANCH   6   7
HETATM    7  C   UNL     1     -29.534  -7.038 -17.229  1.00  0.00     0.010 C 
BRANCH   7   8
HETATM    8  C   UNL     1     -28.925  -6.957 -18.645  1.00  0.00     0.007 C 
BRANCH   8   9
HETATM    9  C   UNL     1     -27.570  -6.242 -18.758  1.00  0.00     0.000 C 
BRANCH   9  10
HETATM   10  C   UNL     1     -26.975  -6.221 -20.168  1.00  0.00    -0.005 C 
HETATM   11  C   UNL     1     -26.674  -7.638 -20.640  1.00  0.00     0.005 C 
ENDBRANCH   9  10
ENDBRANCH   8   9
ENDBRANCH   7   8
BRANCH   7  12
HETATM   12  C   UNL     1     -28.555  -6.627 -16.100  1.00  0.00     0.002 C 
HETATM   13  C   UNL     1     -29.167  -5.913 -14.900  1.00  0.00     0.005 C 
ENDBRANCH   7  12
ENDBRANCH   6   7
ENDBRANCH   5   6
ENDBRANCH   3   5
ENDBRANCH   1   3
BRANCH   2  14
HETATM   14  C   UNL     1     -34.495  -4.613 -14.752  1.00  0.00     0.283 C 
HETATM   15  O   UNL     1     -35.265  -5.521 -14.999  1.00  0.00    -0.260 OA
BRANCH  14  16
HETATM   16  O   UNL     1     -34.432  -3.897 -13.594  1.00  0.00    -0.318 OA
BRANCH  16  17
HETATM   17  C   UNL     1     -33.229  -4.115 -12.836  1.00  0.00     0.183 C 
BRANCH  17  18
HETATM   18  C   UNL     1     -33.360  -3.883 -11.317  1.00  0.00     0.010 C 
BRANCH  18  19
HETATM   19  C   UNL     1     -33.534  -2.390 -10.944  1.00  0.00     0.002 C 
HETATM   20  C   UNL     1     -34.965  -1.948 -10.659  1.00  0.00     0.005 C 
ENDBRANCH  18  19
BRANCH  18  21
HETATM   21  C   UNL     1     -34.514  -4.739 -10.719  1.00  0.00     0.007 C 
BRANCH  21  22
HETATM   22  C   UNL     1     -34.362  -6.245 -10.968  1.00  0.00     0.000 C 
BRANCH  22  23
HETATM   23  C   UNL     1     -34.793  -7.091  -9.768  1.00  0.00    -0.005 C 
HETATM   24  C   UNL     1     -34.243  -8.507  -9.878  1.00  0.00     0.005 C 
ENDBRANCH  22  23
ENDBRANCH  21  22
ENDBRANCH  18  21
ENDBRANCH  17  18
ENDBRANCH  16  17
ENDBRANCH  14  16
ENDBRANCH   2  14
TORSDOF 16
ENDMDL
MODEL 6
REMARK VINA RESULT:      -6.4      1.764      9.562
REMARK  16 active torsions:
REMARK  status: ('A' for Active; 'I' for Inactive)
REMARK    1  A    between atoms: C_2  and  C_3 
REMARK    2  A    between atoms: C_3  and  C_4 
REMARK    3  A    between atoms: C_4  and  C_5 
REMARK    4  A    between atoms: C_5  and  C_6 
REMARK    5  A    between atoms: C_5  and  C_8 
REMARK    6  A    between atoms: C_8  and  O_9 
REMARK    7  A    between atoms: O_9  and  C_10 
REMARK    8  A    between atoms: C_10  and  C_12 
REMARK    9  A    between atoms: C_13  and  C_14 
REMARK   10  A    between atoms: C_14  and  O_16 
REMARK   11  A    between atoms: O_16  and  C_17 
REMARK   12  A    between atoms: C_17  and  C_18 
REMARK   13  A    between atoms: C_18  and  C_19 
REMARK   14  A    between atoms: C_18  and  C_21 
REMARK   15  A    between atoms: C_21  and  C_22 
REMARK   16  A    between atoms: C_22  and  C_23 
ROOT
HETATM    1  C   UNL     1     -21.366  -8.948  -5.191  1.00  0.00     0.088 C 
HETATM    2  C   UNL     1     -20.810  -7.726  -5.147  1.00  0.00     0.088 C 
ENDROOT
BRANCH   1   3
HETATM    3  C   UNL     1     -20.505 -10.144  -5.072  1.00  0.00     0.283 C 
HETATM    4  O   UNL     1     -19.712 -10.505  -5.930  1.00  0.00    -0.260 OA
BRANCH   3   5
HETATM    5  O   UNL     1     -20.823 -10.816  -3.937  1.00  0.00    -0.318 OA
BRANCH   5   6
HETATM    6  C   UNL     1     -22.073 -10.455  -3.308  1.00  0.00     0.183 C 
BRANCH   6   7
HETATM    7  C   UNL     1     -22.197 -10.838  -1.818  1.00  0.00     0.010 C 
BRANCH   7   8
HETATM    8  C   UNL     1     -21.654  -9.717  -0.907  1.00  0.00     0.007 C 
BRANCH   8   9
HETATM    9  C   UNL     1     -21.615  -8.309  -1.519  1.00  0.00     0.000 C 
BRANCH   9  10
HETATM   10  C   UNL     1     -22.406  -7.253  -0.743  1.00  0.00    -0.005 C 
HETATM   11  C   UNL     1     -23.001  -7.858   0.523  1.00  0.00     0.005 C 
ENDBRANCH   9  10
ENDBRANCH   8   9
ENDBRANCH   7   8
BRANCH   7  12
HETATM   12  C   UNL     1     -23.647 -11.272  -1.484  1.00  0.00     0.002 C 
HETATM   13  C   UNL     1     -24.031 -11.275  -0.008  1.00  0.00     0.005 C 
ENDBRANCH   7  12
ENDBRANCH   6   7
ENDBRANCH   5   6
ENDBRANCH   3   5
ENDBRANCH   1   3
BRANCH   2  14
HETATM   14  C   UNL     1     -21.610  -6.514  -5.452  1.00  0.00     0.283 C 
HETATM   15  O   UNL     1     -22.528  -6.095  -4.774  1.00  0.00    -0.260 OA
BRANCH  14  16
HETATM   16  O   UNL     1     -21.253  -6.074  -6.691  1.00  0.00    -0.318 OA
BRANCH  16  17
HETATM   17  C   UNL     1     -21.902  -4.854  -7.090  1.00  0.00     0.183 C 
BRANCH  17  18
HETATM   18  C   UNL     1     -22.123  -4.692  -8.607  1.00  0.00     0.010 C 
BRANCH  18  19
HETATM   19  C   UNL     1     -23.376  -3.852  -8.952  1.00  0.00     0.002 C 
HETATM   20  C   UNL     1     -24.402  -4.540  -9.846  1.00  0.00     0.005 C 
ENDBRANCH  18  19
BRANCH  18  21
HETATM   21  C   UNL     1     -20.858  -4.102  -9.295  1.00  0.00     0.007 C 
BRANCH  21  22
HETATM   22  C   UNL     1     -20.816  -4.324 -10.813  1.00  0.00     0.000 C 
BRANCH  22  23
HETATM   23  C   UNL     1     -21.067  -3.039 -11.606  1.00  0.00    -0.005 C 
HETATM   24  C   UNL     1     -22.279  -3.193 -12.516  1.00  0.00     0.005 C 
ENDBRANCH  22  23
ENDBRANCH  21  22
ENDBRANCH  18  21
ENDBRANCH  17  18
ENDBRANCH  16  17
ENDBRANCH  14  16
ENDBRANCH   2  14
TORSDOF 16
ENDMDL
MODEL 7
REMARK VINA RESULT:      -6.4      1.477     10.013
REMARK  16 active torsions:
REMARK  status: ('A' for Active; 'I' for Inactive)
REMARK    1  A    between atoms: C_2  and  C_3 
REMARK    2  A    between atoms: C_3  and  C_4 
REMARK    3  A    between atoms: C_4  and  C_5 
REMARK    4  A    between atoms: C_5  and  C_6 
REMARK    5  A    between atoms: C_5  and  C_8 
REMARK    6  A    between atoms: C_8  and  O_9 
REMARK    7  A    between atoms: O_9  and  C_10 
REMARK    8  A    between atoms: C_10  and  C_12 
REMARK    9  A    between atoms: C_13  and  C_14 
REMARK   10  A    between atoms: C_14  and  O_16 
REMARK   11  A    between atoms: O_16  and  C_17 
REMARK   12  A    between atoms: C_17  and  C_18 
REMARK   13  A    between atoms: C_18  and  C_19 
REMARK   14  A    between atoms: C_18  and  C_21 
REMARK   15  A    between atoms: C_21  and  C_22 
REMARK   16  A    between atoms: C_22  and  C_23 
ROOT
HETATM    1  C   UNL     1     -20.535  -5.321  -5.349  1.00  0.00     0.088 C 
HETATM    2  C   UNL     1     -20.674  -5.336  -6.685  1.00  0.00     0.088 C 
ENDROOT
BRANCH   1   3
HETATM    3  C   UNL     1     -21.571  -5.949  -4.502  1.00  0.00     0.283 C 
HETATM    4  O   UNL     1     -22.653  -6.339  -4.919  1.00  0.00    -0.260 OA
BRANCH   3   5
HETATM    5  O   UNL     1     -21.176  -5.911  -3.204  1.00  0.00    -0.318 OA
BRANCH   5   6
HETATM    6  C   UNL     1     -21.656  -6.977  -2.357  1.00  0.00     0.183 C 
BRANCH   6   7
HETATM    7  C   UNL     1     -20.565  -7.910  -1.788  1.00  0.00     0.010 C 
BRANCH   7   8
HETATM    8  C   UNL     1     -21.051  -8.622  -0.508  1.00  0.00     0.007 C 
BRANCH   8   9
HETATM    9  C   UNL     1     -21.906  -9.880  -0.717  1.00  0.00     0.000 C 
BRANCH   9  10
HETATM   10  C   UNL     1     -23.310  -9.806  -0.111  1.00  0.00    -0.005 C 
HETATM   11  C   UNL     1     -23.993 -11.167  -0.181  1.00  0.00     0.005 C 
ENDBRANCH   9  10
ENDBRANCH   8   9
ENDBRANCH   7   8
BRANCH   7  12
HETATM   12  C   UNL     1     -20.047  -8.875  -2.884  1.00  0.00     0.002 C 
HETATM   13  C   UNL     1     -18.589  -9.307  -2.773  1.00  0.00     0.005 C 
ENDBRANCH   7  12
ENDBRANCH   6   7
ENDBRANCH   5   6
ENDBRANCH   3   5
ENDBRANCH   1   3
BRANCH   2  14
HETATM   14  C   UNL     1     -19.759  -4.555  -7.554  1.00  0.00     0.283 C 
HETATM   15  O   UNL     1     -18.549  -4.532  -7.449  1.00  0.00    -0.260 OA
BRANCH  14  16
HETATM   16  O   UNL     1     -20.518  -3.755  -8.353  1.00  0.00    -0.318 OA
BRANCH  16  17
HETATM   17  C   UNL     1     -20.881  -4.355  -9.609  1.00  0.00     0.183 C 
BRANCH  17  18
HETATM   18  C   UNL     1     -22.393  -4.573  -9.820  1.00  0.00     0.010 C 
BRANCH  18  19
HETATM   19  C   UNL     1     -23.267  -3.557  -9.045  1.00  0.00     0.002 C 
HETATM   20  C   UNL     1     -24.733  -3.502  -9.458  1.00  0.00     0.005 C 
ENDBRANCH  18  19
BRANCH  18  21
HETATM   21  C   UNL     1     -22.751  -4.565 -11.335  1.00  0.00     0.007 C 
BRANCH  21  22
HETATM   22  C   UNL     1     -21.931  -3.566 -12.161  1.00  0.00     0.000 C 
BRANCH  22  23
HETATM   23  C   UNL     1     -22.807  -2.592 -12.952  1.00  0.00    -0.005 C 
HETATM   24  C   UNL     1     -24.280  -2.955 -12.816  1.00  0.00     0.005 C 
ENDBRANCH  22  23
ENDBRANCH  21  22
ENDBRANCH  18  21
ENDBRANCH  17  18
ENDBRANCH  16  17
ENDBRANCH  14  16
ENDBRANCH   2  14
TORSDOF 16
ENDMDL
MODEL 8
REMARK VINA RESULT:      -6.3      1.843      9.666
REMARK  16 active torsions:
REMARK  status: ('A' for Active; 'I' for Inactive)
REMARK    1  A    between atoms: C_2  and  C_3 
REMARK    2  A    between atoms: C_3  and  C_4 
REMARK    3  A    between atoms: C_4  and  C_5 
REMARK    4  A    between atoms: C_5  and  C_6 
REMARK    5  A    between atoms: C_5  and  C_8 
REMARK    6  A    between atoms: C_8  and  O_9 
REMARK    7  A    between atoms: O_9  and  C_10 
REMARK    8  A    between atoms: C_10  and  C_12 
REMARK    9  A    between atoms: C_13  and  C_14 
REMARK   10  A    between atoms: C_14  and  O_16 
REMARK   11  A    between atoms: O_16  and  C_17 
REMARK   12  A    between atoms: C_17  and  C_18 
REMARK   13  A    between atoms: C_18  and  C_19 
REMARK   14  A    between atoms: C_18  and  C_21 
REMARK   15  A    between atoms: C_21  and  C_22 
REMARK   16  A    between atoms: C_22  and  C_23 
ROOT
HETATM    1  C   UNL     1     -21.434  -5.641  -5.646  1.00  0.00     0.088 C 
HETATM    2  C   UNL     1     -20.198  -5.688  -6.171  1.00  0.00     0.088 C 
ENDROOT
BRANCH   1   3
HETATM    3  C   UNL     1     -21.885  -6.724  -4.747  1.00  0.00     0.283 C 
HETATM    4  O   UNL     1     -21.882  -7.909  -5.047  1.00  0.00    -0.260 OA
BRANCH   3   5
HETATM    5  O   UNL     1     -22.397  -6.182  -3.613  1.00  0.00    -0.318 OA
BRANCH   5   6
HETATM    6  C   UNL     1     -21.647  -6.409  -2.399  1.00  0.00     0.183 C 
BRANCH   6   7
HETATM    7  C   UNL     1     -22.019  -7.692  -1.625  1.00  0.00     0.010 C 
BRANCH   7   8
HETATM    8  C   UNL     1     -20.822  -8.663  -1.546  1.00  0.00     0.007 C 
BRANCH   8   9
HETATM    9  C   UNL     1     -19.555  -8.235  -2.301  1.00  0.00     0.000 C 
BRANCH   9  10
HETATM   10  C   UNL     1     -19.013  -9.278  -3.282  1.00  0.00    -0.005 C 
HETATM   11  C   UNL     1     -17.540  -9.555  -3.006  1.00  0.00     0.005 C 
ENDBRANCH   9  10
ENDBRANCH   8   9
ENDBRANCH   7   8
BRANCH   7  12
HETATM   12  C   UNL     1     -22.632  -7.339  -0.246  1.00  0.00     0.002 C 
HETATM   13  C   UNL     1     -22.000  -8.009   0.969  1.00  0.00     0.005 C 
ENDBRANCH   7  12
ENDBRANCH   6   7
ENDBRANCH   5   6
ENDBRANCH   3   5
ENDBRANCH   1   3
BRANCH   2  14
HETATM   14  C   UNL     1     -19.779  -4.727  -7.221  1.00  0.00     0.283 C 
HETATM   15  O   UNL     1     -18.646  -4.315  -7.376  1.00  0.00    -0.260 OA
BRANCH  14  16
HETATM   16  O   UNL     1     -20.900  -4.269  -7.844  1.00  0.00    -0.318 OA
BRANCH  16  17
HETATM   17  C   UNL     1     -21.065  -4.757  -9.188  1.00  0.00     0.183 C 
BRANCH  17  18
HETATM   18  C   UNL     1     -22.332  -4.264  -9.915  1.00  0.00     0.010 C 
BRANCH  18  19
HETATM   19  C   UNL     1     -23.415  -3.726  -8.949  1.00  0.00     0.002 C 
HETATM   20  C   UNL     1     -24.818  -3.612  -9.534  1.00  0.00     0.005 C 
ENDBRANCH  18  19
BRANCH  18  21
HETATM   21  C   UNL     1     -21.978  -3.200 -10.993  1.00  0.00     0.007 C 
BRANCH  21  22
HETATM   22  C   UNL     1     -22.003  -3.740 -12.429  1.00  0.00     0.000 C 
BRANCH  22  23
HETATM   23  C   UNL     1     -22.879  -2.902 -13.363  1.00  0.00    -0.005 C 
HETATM   24  C   UNL     1     -24.291  -2.770 -12.805  1.00  0.00     0.005 C 
ENDBRANCH  22  23
ENDBRANCH  21  22
ENDBRANCH  18  21
ENDBRANCH  17  18
ENDBRANCH  16  17
ENDBRANCH  14  16
ENDBRANCH   2  14
TORSDOF 16
ENDMDL
MODEL 9
REMARK VINA RESULT:      -6.3      1.482      2.620
REMARK  16 active torsions:
REMARK  status: ('A' for Active; 'I' for Inactive)
REMARK    1  A    between atoms: C_2  and  C_3 
REMARK    2  A    between atoms: C_3  and  C_4 
REMARK    3  A    between atoms: C_4  and  C_5 
REMARK    4  A    between atoms: C_5  and  C_6 
REMARK    5  A    between atoms: C_5  and  C_8 
REMARK    6  A    between atoms: C_8  and  O_9 
REMARK    7  A    between atoms: O_9  and  C_10 
REMARK    8  A    between atoms: C_10  and  C_12 
REMARK    9  A    between atoms: C_13  and  C_14 
REMARK   10  A    between atoms: C_14  and  O_16 
REMARK   11  A    between atoms: O_16  and  C_17 
REMARK   12  A    between atoms: C_17  and  C_18 
REMARK   13  A    between atoms: C_18  and  C_19 
REMARK   14  A    between atoms: C_18  and  C_21 
REMARK   15  A    between atoms: C_21  and  C_22 
REMARK   16  A    between atoms: C_22  and  C_23 
ROOT
HETATM    1  C   UNL     1     -21.035  -6.404  -6.188  1.00  0.00     0.088 C 
HETATM    2  C   UNL     1     -20.527  -7.227  -5.256  1.00  0.00     0.088 C 
ENDROOT
BRANCH   1   3
HETATM    3  C   UNL     1     -20.696  -4.966  -6.151  1.00  0.00     0.283 C 
HETATM    4  O   UNL     1     -19.921  -4.465  -5.349  1.00  0.00    -0.260 OA
BRANCH   3   5
HETATM    5  O   UNL     1     -21.461  -4.300  -7.054  1.00  0.00    -0.318 OA
BRANCH   5   6
HETATM    6  C   UNL     1     -21.406  -4.779  -8.416  1.00  0.00     0.183 C 
BRANCH   6   7
HETATM    7  C   UNL     1     -22.021  -3.836  -9.472  1.00  0.00     0.010 C 
BRANCH   7   8
HETATM    8  C   UNL     1     -21.729  -4.334 -10.903  1.00  0.00     0.007 C 
BRANCH   8   9
HETATM    9  C   UNL     1     -21.741  -3.266 -12.006  1.00  0.00     0.000 C 
BRANCH   9  10
HETATM   10  C   UNL     1     -23.100  -3.060 -12.679  1.00  0.00    -0.005 C 
HETATM   11  C   UNL     1     -22.920  -2.758 -14.162  1.00  0.00     0.005 C 
ENDBRANCH   9  10
ENDBRANCH   8   9
ENDBRANCH   7   8
BRANCH   7  12
HETATM   12  C   UNL     1     -23.526  -3.602  -9.184  1.00  0.00     0.002 C 
HETATM   13  C   UNL     1     -24.495  -4.623  -9.769  1.00  0.00     0.005 C 
ENDBRANCH   7  12
ENDBRANCH   6   7
ENDBRANCH   5   6
ENDBRANCH   3   5
ENDBRANCH   1   3
BRANCH   2  14
HETATM   14  C   UNL     1     -20.992  -8.633  -5.146  1.00  0.00     0.283 C 
HETATM   15  O   UNL     1     -20.772  -9.505  -5.963  1.00  0.00    -0.260 OA
BRANCH  14  16
HETATM   16  O   UNL     1     -21.838  -8.714  -4.081  1.00  0.00    -0.318 OA
BRANCH  16  17
HETATM   17  C   UNL     1     -21.810  -9.986  -3.408  1.00  0.00     0.183 C 
BRANCH  17  18
HETATM   18  C   UNL     1     -22.401  -9.987  -1.984  1.00  0.00     0.010 C 
BRANCH  18  19
HETATM   19  C   UNL     1     -23.114 -11.313  -1.624  1.00  0.00     0.002 C 
HETATM   20  C   UNL     1     -23.837 -11.327  -0.282  1.00  0.00     0.005 C 
ENDBRANCH  18  19
BRANCH  18  21
HETATM   21  C   UNL     1     -21.312  -9.643  -0.927  1.00  0.00     0.007 C 
BRANCH  21  22
HETATM   22  C   UNL     1     -21.069  -8.138  -0.754  1.00  0.00     0.000 C 
BRANCH  22  23
HETATM   23  C   UNL     1     -22.362  -7.351  -0.530  1.00  0.00    -0.005 C 
HETATM   24  C   UNL     1     -23.118  -7.886   0.679  1.00  0.00     0.005 C 
ENDBRANCH  22  23
ENDBRANCH  21  22
ENDBRANCH  18  21
ENDBRANCH  17  18
ENDBRANCH  16  17
ENDBRANCH  14  16
ENDBRANCH   2  14
TORSDOF 16
ENDMDL
