MODEL 1
REMARK VINA RESULT:      -6.2      0.000      0.000
REMARK  7 active torsions:
REMARK  status: ('A' for Active; 'I' for Inactive)
REMARK    1  A    between atoms: N_3  and  C_10 
REMARK    2  A    between atoms: N_6  and  C_7 
REMARK    3  A    between atoms: C_7  and  C_8 
REMARK    4  A    between atoms: C_8  and  O_9 
REMARK    5  A    between atoms: C_10  and  C_11 
REMARK    6  A    between atoms: C_11  and  S_12 
REMARK    7  A    between atoms: S_12  and  O_15 
ROOT
HETATM    1  C   UNL     1     -22.014  -2.772 -11.624  1.00  0.00     0.302 C 
HETATM    2  C   UNL     1     -21.567  -4.178 -11.129  1.00  0.00     0.302 C 
HETATM    3  N   UNL     1     -22.438  -4.766 -10.081  1.00  0.00     0.092 N 
HETATM    4  C   UNL     1     -23.839  -4.688 -10.548  1.00  0.00     0.302 C 
HETATM    5  C   UNL     1     -24.280  -3.275 -10.999  1.00  0.00     0.302 C 
HETATM    6  N   UNL     1     -23.432  -2.688 -12.059  1.00  0.00     0.093 N 
ENDROOT
BRANCH   3   7
HETATM    7  C   UNL     1     -22.219  -4.087  -8.783  1.00  0.00     0.289 C 
BRANCH   7   8
HETATM    8  C   UNL     1     -20.867  -4.416  -8.163  1.00  0.00     0.185 C 
BRANCH   8   9
HETATM    9  S   UNL     1     -21.085  -5.283  -6.626  1.00  0.00     0.095 S 
HETATM   10  O   UNL     1     -21.014  -6.707  -6.844  1.00  0.00    -0.601 OA
HETATM   11  O   UNL     1     -20.338  -4.613  -5.583  1.00  0.00    -0.601 OA
BRANCH   9  12
HETATM   12  O   UNL     1     -22.649  -4.954  -6.417  1.00  0.00    -0.296 OA
HETATM   13  H   UNL     1     -22.722  -4.060  -6.023  1.00  0.00     0.232 HD
ENDBRANCH   9  12
ENDBRANCH   8   9
ENDBRANCH   7   8
ENDBRANCH   3   7
BRANCH   6  14
HETATM   14  C   UNL     1     -23.601  -3.358 -13.370  1.00  0.00     0.298 C 
BRANCH  14  15
HETATM   15  C   UNL     1     -23.136  -2.513 -14.570  1.00  0.00     0.194 C 
BRANCH  15  16
HETATM   16  O   UNL     1     -22.234  -3.247 -15.390  1.00  0.00    -0.399 OA
HETATM   17  H   UNL     1     -22.149  -2.729 -16.213  1.00  0.00     0.209 HD
ENDBRANCH  15  16
ENDBRANCH  14  15
ENDBRANCH   6  14
TORSDOF 7
ENDMDL
MODEL 2
REMARK VINA RESULT:      -6.0      2.672      6.594
REMARK  7 active torsions:
REMARK  status: ('A' for Active; 'I' for Inactive)
REMARK    1  A    between atoms: N_3  and  C_10 
REMARK    2  A    between atoms: N_6  and  C_7 
REMARK    3  A    between atoms: C_7  and  C_8 
REMARK    4  A    between atoms: C_8  and  O_9 
REMARK    5  A    between atoms: C_10  and  C_11 
REMARK    6  A    between atoms: C_11  and  S_12 
REMARK    7  A    between atoms: S_12  and  O_15 
ROOT
HETATM    1  C   UNL     1     -23.492  -3.963  -8.863  1.00  0.00     0.302 C 
HETATM    2  C   UNL     1     -23.894  -4.816 -10.101  1.00  0.00     0.302 C 
HETATM    3  N   UNL     1     -23.137  -4.501 -11.338  1.00  0.00     0.092 N 
HETATM    4  C   UNL     1     -21.694  -4.517 -11.013  1.00  0.00     0.302 C 
HETATM    5  C   UNL     1     -21.305  -3.631  -9.806  1.00  0.00     0.302 C 
HETATM    6  N   UNL     1     -22.036  -3.953  -8.561  1.00  0.00     0.093 N 
ENDROOT
BRANCH   3   7
HETATM    7  C   UNL     1     -23.590  -3.211 -11.908  1.00  0.00     0.289 C 
BRANCH   7   8
HETATM    8  C   UNL     1     -22.606  -2.628 -12.914  1.00  0.00     0.185 C 
BRANCH   8   9
HETATM    9  S   UNL     1     -23.355  -2.526 -14.524  1.00  0.00     0.095 S 
HETATM   10  O   UNL     1     -24.421  -1.555 -14.515  1.00  0.00    -0.601 OA
HETATM   11  O   UNL     1     -22.323  -2.547 -15.539  1.00  0.00    -0.601 OA
BRANCH   9  12
HETATM   12  O   UNL     1     -24.081  -3.965 -14.513  1.00  0.00    -0.296 OA
HETATM   13  H   UNL     1     -24.888  -3.903 -15.066  1.00  0.00     0.232 HD
ENDBRANCH   9  12
ENDBRANCH   8   9
ENDBRANCH   7   8
ENDBRANCH   3   7
BRANCH   6  14
HETATM   14  C   UNL     1     -21.632  -5.250  -7.972  1.00  0.00     0.298 C 
BRANCH  14  15
HETATM   15  C   UNL     1     -21.362  -5.195  -6.458  1.00  0.00     0.194 C 
BRANCH  15  16
HETATM   16  O   UNL     1     -22.515  -5.581  -5.720  1.00  0.00    -0.399 OA
HETATM   17  H   UNL     1     -22.291  -5.426  -4.783  1.00  0.00     0.209 HD
ENDBRANCH  15  16
ENDBRANCH  14  15
ENDBRANCH   6  14
TORSDOF 7
ENDMDL
MODEL 3
REMARK VINA RESULT:      -5.9      1.246      2.139
REMARK  7 active torsions:
REMARK  status: ('A' for Active; 'I' for Inactive)
REMARK    1  A    between atoms: N_3  and  C_10 
REMARK    2  A    between atoms: N_6  and  C_7 
REMARK    3  A    between atoms: C_7  and  C_8 
REMARK    4  A    between atoms: C_8  and  O_9 
REMARK    5  A    between atoms: C_10  and  C_11 
REMARK    6  A    between atoms: C_11  and  S_12 
REMARK    7  A    between atoms: S_12  and  O_15 
ROOT
HETATM    1  C   UNL     1     -24.177  -4.734 -10.338  1.00  0.00     0.302 C 
HETATM    2  C   UNL     1     -23.735  -3.731  -9.233  1.00  0.00     0.302 C 
HETATM    3  N   UNL     1     -22.267  -3.642  -9.034  1.00  0.00     0.092 N 
HETATM    4  C   UNL     1     -21.635  -3.431 -10.355  1.00  0.00     0.302 C 
HETATM    5  C   UNL     1     -22.053  -4.461 -11.431  1.00  0.00     0.302 C 
HETATM    6  N   UNL     1     -23.513  -4.543 -11.654  1.00  0.00     0.093 N 
ENDROOT
BRANCH   3   7
HETATM    7  C   UNL     1     -21.764  -4.846  -8.335  1.00  0.00     0.289 C 
BRANCH   7   8
HETATM    8  C   UNL     1     -21.303  -4.556  -6.912  1.00  0.00     0.185 C 
BRANCH   8   9
HETATM    9  S   UNL     1     -21.630  -5.950  -5.858  1.00  0.00     0.095 S 
HETATM   10  O   UNL     1     -22.994  -5.912  -5.392  1.00  0.00    -0.601 OA
HETATM   11  O   UNL     1     -21.031  -7.138  -6.428  1.00  0.00    -0.601 OA
BRANCH   9  12
HETATM   12  O   UNL     1     -20.731  -5.484  -4.604  1.00  0.00    -0.296 OA
HETATM   13  H   UNL     1     -21.335  -5.224  -3.876  1.00  0.00     0.232 HD
ENDBRANCH   9  12
ENDBRANCH   8   9
ENDBRANCH   7   8
ENDBRANCH   3   7
BRANCH   6  14
HETATM   14  C   UNL     1     -24.062  -3.344 -12.328  1.00  0.00     0.298 C 
BRANCH  14  15
HETATM   15  C   UNL     1     -23.302  -2.938 -13.604  1.00  0.00     0.194 C 
BRANCH  15  16
HETATM   16  O   UNL     1     -23.732  -3.709 -14.719  1.00  0.00    -0.399 OA
HETATM   17  H   UNL     1     -23.494  -4.632 -14.507  1.00  0.00     0.209 HD
ENDBRANCH  15  16
ENDBRANCH  14  15
ENDBRANCH   6  14
TORSDOF 7
ENDMDL
MODEL 4
REMARK VINA RESULT:      -5.3      2.776      6.468
REMARK  7 active torsions:
REMARK  status: ('A' for Active; 'I' for Inactive)
REMARK    1  A    between atoms: N_3  and  C_10 
REMARK    2  A    between atoms: N_6  and  C_7 
REMARK    3  A    between atoms: C_7  and  C_8 
REMARK    4  A    between atoms: C_8  and  O_9 
REMARK    5  A    between atoms: C_10  and  C_11 
REMARK    6  A    between atoms: C_11  and  S_12 
REMARK    7  A    between atoms: S_12  and  O_15 
ROOT
HETATM    1  C   UNL     1     -20.102  -4.687 -10.097  1.00  0.00     0.302 C 
HETATM    2  C   UNL     1     -20.597  -3.301 -10.601  1.00  0.00     0.302 C 
HETATM    3  N   UNL     1     -22.073  -3.149 -10.635  1.00  0.00     0.092 N 
HETATM    4  C   UNL     1     -22.609  -3.561  -9.320  1.00  0.00     0.302 C 
HETATM    5  C   UNL     1     -22.141  -4.959  -8.852  1.00  0.00     0.302 C 
HETATM    6  N   UNL     1     -20.671  -5.114  -8.792  1.00  0.00     0.093 N 
ENDROOT
BRANCH   3   7
HETATM    7  C   UNL     1     -22.647  -3.918 -11.764  1.00  0.00     0.289 C 
BRANCH   7   8
HETATM    8  C   UNL     1     -22.402  -3.259 -13.115  1.00  0.00     0.185 C 
BRANCH   8   9
HETATM    9  S   UNL     1     -23.947  -2.870 -13.904  1.00  0.00     0.095 S 
HETATM   10  O   UNL     1     -25.020  -2.910 -12.941  1.00  0.00    -0.601 OA
HETATM   11  O   UNL     1     -23.758  -1.766 -14.820  1.00  0.00    -0.601 OA
BRANCH   9  12
HETATM   12  O   UNL     1     -24.091  -4.223 -14.768  1.00  0.00    -0.296 OA
HETATM   13  H   UNL     1     -24.456  -3.986 -15.647  1.00  0.00     0.232 HD
ENDBRANCH   9  12
ENDBRANCH   8   9
ENDBRANCH   7   8
ENDBRANCH   3   7
BRANCH   6  14
HETATM   14  C   UNL     1     -20.053  -4.338  -7.692  1.00  0.00     0.298 C 
BRANCH  14  15
HETATM   15  C   UNL     1     -19.800  -5.156  -6.413  1.00  0.00     0.194 C 
BRANCH  15  16
HETATM   16  O   UNL     1     -19.829  -6.551  -6.686  1.00  0.00    -0.399 OA
HETATM   17  H   UNL     1     -19.916  -6.627  -7.656  1.00  0.00     0.209 HD
ENDBRANCH  15  16
ENDBRANCH  14  15
ENDBRANCH   6  14
TORSDOF 7
ENDMDL
MODEL 5
REMARK VINA RESULT:      -5.1      3.220      6.542
REMARK  7 active torsions:
REMARK  status: ('A' for Active; 'I' for Inactive)
REMARK    1  A    between atoms: N_3  and  C_10 
REMARK    2  A    between atoms: N_6  and  C_7 
REMARK    3  A    between atoms: C_7  and  C_8 
REMARK    4  A    between atoms: C_8  and  O_9 
REMARK    5  A    between atoms: C_10  and  C_11 
REMARK    6  A    between atoms: C_11  and  S_12 
REMARK    7  A    between atoms: S_12  and  O_15 
ROOT
HETATM    1  C   UNL     1     -20.114  -5.817  -7.522  1.00  0.00     0.302 C 
HETATM    2  C   UNL     1     -19.830  -4.384  -8.055  1.00  0.00     0.302 C 
HETATM    3  N   UNL     1     -21.016  -3.690  -8.617  1.00  0.00     0.092 N 
HETATM    4  C   UNL     1     -22.114  -3.781  -7.629  1.00  0.00     0.302 C 
HETATM    5  C   UNL     1     -22.411  -5.218  -7.140  1.00  0.00     0.302 C 
HETATM    6  N   UNL     1     -21.241  -5.911  -6.558  1.00  0.00     0.093 N 
ENDROOT
BRANCH   3   7
HETATM    7  C   UNL     1     -21.373  -4.259  -9.937  1.00  0.00     0.289 C 
BRANCH   7   8
HETATM    8  C   UNL     1     -22.255  -3.332 -10.764  1.00  0.00     0.185 C 
BRANCH   8   9
HETATM    9  S   UNL     1     -23.805  -4.120 -11.135  1.00  0.00     0.095 S 
HETATM   10  O   UNL     1     -23.886  -5.395 -10.467  1.00  0.00    -0.601 OA
HETATM   11  O   UNL     1     -24.869  -3.140 -11.085  1.00  0.00    -0.601 OA
BRANCH   9  12
HETATM   12  O   UNL     1     -23.505  -4.460 -12.682  1.00  0.00    -0.296 OA
HETATM   13  H   UNL     1     -24.136  -5.153 -12.969  1.00  0.00     0.232 HD
ENDBRANCH   9  12
ENDBRANCH   8   9
ENDBRANCH   7   8
ENDBRANCH   3   7
BRANCH   6  14
HETATM   14  C   UNL     1     -20.834  -5.353  -5.247  1.00  0.00     0.298 C 
BRANCH  14  15
HETATM   15  C   UNL     1     -21.088  -6.296  -4.058  1.00  0.00     0.194 C 
BRANCH  15  16
HETATM   16  O   UNL     1     -22.338  -6.012  -3.440  1.00  0.00    -0.399 OA
HETATM   17  H   UNL     1     -22.724  -5.278  -3.956  1.00  0.00     0.209 HD
ENDBRANCH  15  16
ENDBRANCH  14  15
ENDBRANCH   6  14
TORSDOF 7
ENDMDL
MODEL 6
REMARK VINA RESULT:      -4.8      2.949      6.265
REMARK  7 active torsions:
REMARK  status: ('A' for Active; 'I' for Inactive)
REMARK    1  A    between atoms: N_3  and  C_10 
REMARK    2  A    between atoms: N_6  and  C_7 
REMARK    3  A    between atoms: C_7  and  C_8 
REMARK    4  A    between atoms: C_8  and  O_9 
REMARK    5  A    between atoms: C_10  and  C_11 
REMARK    6  A    between atoms: C_11  and  S_12 
REMARK    7  A    between atoms: S_12  and  O_15 
ROOT
HETATM    1  C   UNL     1     -21.348  -3.548  -7.114  1.00  0.00     0.302 C 
HETATM    2  C   UNL     1     -22.611  -4.383  -7.469  1.00  0.00     0.302 C 
HETATM    3  N   UNL     1     -22.887  -4.493  -8.923  1.00  0.00     0.092 N 
HETATM    4  C   UNL     1     -21.644  -4.928  -9.596  1.00  0.00     0.302 C 
HETATM    5  C   UNL     1     -20.406  -4.062  -9.265  1.00  0.00     0.302 C 
HETATM    6  N   UNL     1     -20.108  -3.965  -7.819  1.00  0.00     0.093 N 
ENDROOT
BRANCH   3   7
HETATM    7  C   UNL     1     -23.416  -3.214  -9.448  1.00  0.00     0.289 C 
BRANCH   7   8
HETATM    8  C   UNL     1     -24.585  -3.404 -10.407  1.00  0.00     0.185 C 
BRANCH   8   9
HETATM    9  S   UNL     1     -24.015  -3.370 -12.091  1.00  0.00     0.095 S 
HETATM   10  O   UNL     1     -23.072  -2.295 -12.276  1.00  0.00    -0.601 OA
HETATM   11  O   UNL     1     -23.761  -4.721 -12.543  1.00  0.00    -0.601 OA
BRANCH   9  12
HETATM   12  O   UNL     1     -25.387  -2.863 -12.769  1.00  0.00    -0.296 OA
HETATM   13  H   UNL     1     -26.131  -3.343 -12.348  1.00  0.00     0.232 HD
ENDBRANCH   9  12
ENDBRANCH   8   9
ENDBRANCH   7   8
ENDBRANCH   3   7
BRANCH   6  14
HETATM   14  C   UNL     1     -19.601  -5.233  -7.247  1.00  0.00     0.298 C 
BRANCH  14  15
HETATM   15  C   UNL     1     -19.996  -5.460  -5.777  1.00  0.00     0.194 C 
BRANCH  15  16
HETATM   16  O   UNL     1     -20.374  -6.813  -5.554  1.00  0.00    -0.399 OA
HETATM   17  H   UNL     1     -21.182  -6.773  -5.007  1.00  0.00     0.209 HD
ENDBRANCH  15  16
ENDBRANCH  14  15
ENDBRANCH   6  14
TORSDOF 7
ENDMDL
MODEL 7
REMARK VINA RESULT:      -4.7     17.107     18.611
REMARK  7 active torsions:
REMARK  status: ('A' for Active; 'I' for Inactive)
REMARK    1  A    between atoms: N_3  and  C_10 
REMARK    2  A    between atoms: N_6  and  C_7 
REMARK    3  A    between atoms: C_7  and  C_8 
REMARK    4  A    between atoms: C_8  and  O_9 
REMARK    5  A    between atoms: C_10  and  C_11 
REMARK    6  A    between atoms: C_11  and  S_12 
REMARK    7  A    between atoms: S_12  and  O_15 
ROOT
HETATM    1  C   UNL     1     -11.547   3.337 -20.477  1.00  0.00     0.302 C 
HETATM    2  C   UNL     1     -11.859   4.529 -19.528  1.00  0.00     0.302 C 
HETATM    3  N   UNL     1     -11.586   5.867 -20.110  1.00  0.00     0.092 N 
HETATM    4  C   UNL     1     -12.243   5.936 -21.434  1.00  0.00     0.302 C 
HETATM    5  C   UNL     1     -11.890   4.765 -22.380  1.00  0.00     0.302 C 
HETATM    6  N   UNL     1     -12.179   3.427 -21.819  1.00  0.00     0.093 N 
ENDROOT
BRANCH   3   7
HETATM    7  C   UNL     1     -10.128   6.118 -20.170  1.00  0.00     0.289 C 
BRANCH   7   8
HETATM    8  C   UNL     1      -9.778   7.408 -20.901  1.00  0.00     0.185 C 
BRANCH   8   9
HETATM    9  S   UNL     1     -10.390   8.815 -20.002  1.00  0.00     0.095 S 
HETATM   10  O   UNL     1     -11.585   9.324 -20.629  1.00  0.00    -0.601 OA
HETATM   11  O   UNL     1     -10.300   8.556 -18.581  1.00  0.00    -0.601 OA
BRANCH   9  12
HETATM   12  O   UNL     1      -9.219   9.848 -20.401  1.00  0.00    -0.296 OA
HETATM   13  H   UNL     1      -8.695  10.041 -19.594  1.00  0.00     0.232 HD
ENDBRANCH   9  12
ENDBRANCH   8   9
ENDBRANCH   7   8
ENDBRANCH   3   7
BRANCH   6  14
HETATM   14  C   UNL     1     -13.630   3.146 -21.715  1.00  0.00     0.298 C 
BRANCH  14  15
HETATM   15  C   UNL     1     -14.458   3.677 -22.899  1.00  0.00     0.194 C 
BRANCH  15  16
HETATM   16  O   UNL     1     -15.383   4.669 -22.469  1.00  0.00    -0.399 OA
HETATM   17  H   UNL     1     -14.846   5.353 -22.025  1.00  0.00     0.209 HD
ENDBRANCH  15  16
ENDBRANCH  14  15
ENDBRANCH   6  14
TORSDOF 7
ENDMDL
MODEL 8
REMARK VINA RESULT:      -4.4      6.061      9.182
REMARK  7 active torsions:
REMARK  status: ('A' for Active; 'I' for Inactive)
REMARK    1  A    between atoms: N_3  and  C_10 
REMARK    2  A    between atoms: N_6  and  C_7 
REMARK    3  A    between atoms: C_7  and  C_8 
REMARK    4  A    between atoms: C_8  and  O_9 
REMARK    5  A    between atoms: C_10  and  C_11 
REMARK    6  A    between atoms: C_11  and  S_12 
REMARK    7  A    between atoms: S_12  and  O_15 
ROOT
HETATM    1  C   UNL     1     -21.221  -6.452  -2.373  1.00  0.00     0.302 C 
HETATM    2  C   UNL     1     -22.104  -6.465  -3.654  1.00  0.00     0.302 C 
HETATM    3  N   UNL     1     -21.582  -7.318  -4.752  1.00  0.00     0.092 N 
HETATM    4  C   UNL     1     -21.275  -8.652  -4.193  1.00  0.00     0.302 C 
HETATM    5  C   UNL     1     -20.363  -8.624  -2.944  1.00  0.00     0.302 C 
HETATM    6  N   UNL     1     -20.885  -7.796  -1.835  1.00  0.00     0.093 N 
ENDROOT
BRANCH   3   7
HETATM    7  C   UNL     1     -20.414  -6.675  -5.397  1.00  0.00     0.289 C 
BRANCH   7   8
HETATM    8  C   UNL     1     -20.526  -5.156  -5.447  1.00  0.00     0.185 C 
BRANCH   8   9
HETATM    9  S   UNL     1     -20.771  -4.608  -7.121  1.00  0.00     0.095 S 
HETATM   10  O   UNL     1     -21.274  -5.691  -7.929  1.00  0.00    -0.601 OA
HETATM   11  O   UNL     1     -21.371  -3.291  -7.115  1.00  0.00    -0.601 OA
BRANCH   9  12
HETATM   12  O   UNL     1     -19.218  -4.453  -7.523  1.00  0.00    -0.296 OA
HETATM   13  H   UNL     1     -18.833  -3.733  -6.981  1.00  0.00     0.232 HD
ENDBRANCH   9  12
ENDBRANCH   8   9
ENDBRANCH   7   8
ENDBRANCH   3   7
BRANCH   6  14
HETATM   14  C   UNL     1     -22.072  -8.391  -1.179  1.00  0.00     0.298 C 
BRANCH  14  15
HETATM   15  C   UNL     1     -22.295  -7.914   0.267  1.00  0.00     0.194 C 
BRANCH  15  16
HETATM   16  O   UNL     1     -23.662  -8.039   0.640  1.00  0.00    -0.399 OA
HETATM   17  H   UNL     1     -23.693  -7.828   1.593  1.00  0.00     0.209 HD
ENDBRANCH  15  16
ENDBRANCH  14  15
ENDBRANCH   6  14
TORSDOF 7
ENDMDL
MODEL 9
REMARK VINA RESULT:      -4.3      5.582      7.455
REMARK  7 active torsions:
REMARK  status: ('A' for Active; 'I' for Inactive)
REMARK    1  A    between atoms: N_3  and  C_10 
REMARK    2  A    between atoms: N_6  and  C_7 
REMARK    3  A    between atoms: C_7  and  C_8 
REMARK    4  A    between atoms: C_8  and  O_9 
REMARK    5  A    between atoms: C_10  and  C_11 
REMARK    6  A    between atoms: C_11  and  S_12 
REMARK    7  A    between atoms: S_12  and  O_15 
ROOT
HETATM    1  C   UNL     1     -19.980  -7.560  -5.529  1.00  0.00     0.302 C 
HETATM    2  C   UNL     1     -21.210  -8.392  -5.066  1.00  0.00     0.302 C 
HETATM    3  N   UNL     1     -21.921  -7.836  -3.887  1.00  0.00     0.092 N 
HETATM    4  C   UNL     1     -22.199  -6.407  -4.149  1.00  0.00     0.302 C 
HETATM    5  C   UNL     1     -20.958  -5.585  -4.569  1.00  0.00     0.302 C 
HETATM    6  N   UNL     1     -20.255  -6.117  -5.756  1.00  0.00     0.093 N 
ENDROOT
BRANCH   3   7
HETATM    7  C   UNL     1     -21.133  -8.059  -2.654  1.00  0.00     0.289 C 
BRANCH   7   8
HETATM    8  C   UNL     1     -21.695  -7.315  -1.449  1.00  0.00     0.185 C 
BRANCH   8   9
HETATM    9  S   UNL     1     -22.249  -8.468  -0.213  1.00  0.00     0.095 S 
HETATM   10  O   UNL     1     -22.758  -9.662  -0.841  1.00  0.00    -0.601 OA
HETATM   11  O   UNL     1     -21.299  -8.500   0.878  1.00  0.00    -0.601 OA
BRANCH   9  12
HETATM   12  O   UNL     1     -23.549  -7.648   0.274  1.00  0.00    -0.296 OA
HETATM   13  H   UNL     1     -23.247  -6.793   0.648  1.00  0.00     0.232 HD
ENDBRANCH   9  12
ENDBRANCH   8   9
ENDBRANCH   7   8
ENDBRANCH   3   7
BRANCH   6  14
HETATM   14  C   UNL     1     -21.023  -5.939  -7.010  1.00  0.00     0.298 C 
BRANCH  14  15
HETATM   15  C   UNL     1     -21.399  -4.478  -7.314  1.00  0.00     0.194 C 
BRANCH  15  16
HETATM   16  O   UNL     1     -22.806  -4.288  -7.239  1.00  0.00    -0.399 OA
HETATM   17  H   UNL     1     -22.940  -3.577  -6.583  1.00  0.00     0.209 HD
ENDBRANCH  15  16
ENDBRANCH  14  15
ENDBRANCH   6  14
TORSDOF 7
ENDMDL
