MODEL 1
REMARK VINA RESULT:      -6.5      0.000      0.000
REMARK  16 active torsions:
REMARK  status: ('A' for Active; 'I' for Inactive)
REMARK    1  A    between atoms: C_2  and  C_4 
REMARK    2  A    between atoms: C_4  and  C_5 
REMARK    3  A    between atoms: C_5  and  C_6 
REMARK    4  A    between atoms: C_6  and  C_7 
REMARK    5  A    between atoms: C_7  and  C_8 
REMARK    6  A    between atoms: C_8  and  C_9 
REMARK    7  A    between atoms: C_9  and  C_10 
REMARK    8  A    between atoms: C_10  and  C_11 
REMARK    9  A    between atoms: C_11  and  C_12 
REMARK   10  A    between atoms: C_12  and  C_13 
REMARK   11  A    between atoms: C_13  and  C_14 
REMARK   12  A    between atoms: C_14  and  C_15 
REMARK   13  A    between atoms: C_15  and  C_16 
REMARK   14  A    between atoms: C_16  and  C_17 
REMARK   15  A    between atoms: C_17  and  C_18 
REMARK   16  A    between atoms: C_18  and  O_19 
ROOT
HETATM    1  C   UNL     1     -20.446  -5.930  -6.172  1.00  0.00     0.000 C 
ENDROOT
BRANCH   1   2
HETATM    2  C   UNL     1     -21.896  -5.948  -5.712  1.00  0.00     0.000 C 
BRANCH   2   3
HETATM    3  C   UNL     1     -22.134  -7.119  -4.771  1.00  0.00     0.000 C 
BRANCH   3   4
HETATM    4  C   UNL     1     -21.151  -7.069  -3.611  1.00  0.00     0.000 C 
BRANCH   4   5
HETATM    5  C   UNL     1     -21.574  -6.023  -2.589  1.00  0.00     0.000 C 
BRANCH   5   6
HETATM    6  C   UNL     1     -22.185  -6.709  -1.374  1.00  0.00     0.000 C 
BRANCH   6   7
HETATM    7  C   UNL     1     -21.399  -7.958  -0.987  1.00  0.00     0.004 C 
BRANCH   7   8
HETATM    8  C   UNL     1     -22.011  -8.699   0.213  1.00  0.00    -0.023 C 
HETATM    9  C   UNL     1     -21.041  -8.652   1.393  1.00  0.00     0.009 C 
HETATM   10  C   UNL     1     -23.367  -8.122   0.626  1.00  0.00     0.009 C 
ENDBRANCH   7   8
ENDBRANCH   6   7
ENDBRANCH   5   6
ENDBRANCH   4   5
ENDBRANCH   3   4
ENDBRANCH   2   3
ENDBRANCH   1   2
BRANCH   1  11
HETATM   11  C   UNL     1     -19.967  -4.500  -6.368  1.00  0.00     0.000 C 
BRANCH  11  12
HETATM   12  C   UNL     1     -19.340  -4.338  -7.744  1.00  0.00     0.000 C 
BRANCH  12  13
HETATM   13  C   UNL     1     -20.201  -5.007  -8.805  1.00  0.00     0.000 C 
BRANCH  13  14
HETATM   14  C   UNL     1     -21.108  -3.985  -9.479  1.00  0.00     0.000 C 
BRANCH  14  15
HETATM   15  C   UNL     1     -22.526  -4.091  -8.942  1.00  0.00     0.000 C 
BRANCH  15  16
HETATM   16  C   UNL     1     -23.541  -3.796 -10.044  1.00  0.00     0.002 C 
BRANCH  16  17
HETATM   17  C   UNL     1     -23.188  -4.540 -11.324  1.00  0.00     0.026 C 
BRANCH  17  18
HETATM   18  C   UNL     1     -23.254  -3.616 -12.530  1.00  0.00     0.164 C 
BRANCH  18  19
HETATM   19  O   UNL     1     -21.969  -3.510 -13.124  1.00  0.00    -0.401 OA
HETATM   20  H   UNL     1     -21.561  -4.392 -13.103  1.00  0.00     0.209 HD
ENDBRANCH  18  19
ENDBRANCH  17  18
ENDBRANCH  16  17
ENDBRANCH  15  16
ENDBRANCH  14  15
ENDBRANCH  13  14
ENDBRANCH  12  13
ENDBRANCH  11  12
ENDBRANCH   1  11
TORSDOF 16
ENDMDL
MODEL 2
REMARK VINA RESULT:      -6.5      1.486      1.973
REMARK  16 active torsions:
REMARK  status: ('A' for Active; 'I' for Inactive)
REMARK    1  A    between atoms: C_2  and  C_4 
REMARK    2  A    between atoms: C_4  and  C_5 
REMARK    3  A    between atoms: C_5  and  C_6 
REMARK    4  A    between atoms: C_6  and  C_7 
REMARK    5  A    between atoms: C_7  and  C_8 
REMARK    6  A    between atoms: C_8  and  C_9 
REMARK    7  A    between atoms: C_9  and  C_10 
REMARK    8  A    between atoms: C_10  and  C_11 
REMARK    9  A    between atoms: C_11  and  C_12 
REMARK   10  A    between atoms: C_12  and  C_13 
REMARK   11  A    between atoms: C_13  and  C_14 
REMARK   12  A    between atoms: C_14  and  C_15 
REMARK   13  A    between atoms: C_15  and  C_16 
REMARK   14  A    between atoms: C_16  and  C_17 
REMARK   15  A    between atoms: C_17  and  C_18 
REMARK   16  A    between atoms: C_18  and  O_19 
ROOT
HETATM    1  C   UNL     1     -20.007  -4.943  -6.078  1.00  0.00     0.000 C 
ENDROOT
BRANCH   1   2
HETATM    2  C   UNL     1     -21.197  -5.652  -5.449  1.00  0.00     0.000 C 
BRANCH   2   3
HETATM    3  C   UNL     1     -20.865  -7.115  -5.197  1.00  0.00     0.000 C 
BRANCH   3   4
HETATM    4  C   UNL     1     -20.909  -7.413  -3.706  1.00  0.00     0.000 C 
BRANCH   4   5
HETATM    5  C   UNL     1     -21.354  -6.188  -2.921  1.00  0.00     0.000 C 
BRANCH   5   6
HETATM    6  C   UNL     1     -22.178  -6.619  -1.716  1.00  0.00     0.000 C 
BRANCH   6   7
HETATM    7  C   UNL     1     -21.672  -7.937  -1.139  1.00  0.00     0.004 C 
BRANCH   7   8
HETATM    8  C   UNL     1     -21.829  -8.019   0.388  1.00  0.00    -0.023 C 
HETATM    9  C   UNL     1     -23.312  -8.095   0.748  1.00  0.00     0.009 C 
HETATM   10  C   UNL     1     -21.083  -9.213   0.988  1.00  0.00     0.009 C 
ENDBRANCH   7   8
ENDBRANCH   6   7
ENDBRANCH   5   6
ENDBRANCH   4   5
ENDBRANCH   3   4
ENDBRANCH   2   3
ENDBRANCH   1   2
BRANCH   1  11
HETATM   11  C   UNL     1     -20.464  -4.047  -7.219  1.00  0.00     0.000 C 
BRANCH  11  12
HETATM   12  C   UNL     1     -19.878  -4.533  -8.537  1.00  0.00     0.000 C 
BRANCH  12  13
HETATM   13  C   UNL     1     -20.420  -3.710  -9.697  1.00  0.00     0.000 C 
BRANCH  13  14
HETATM   14  C   UNL     1     -20.476  -4.551 -10.966  1.00  0.00     0.000 C 
BRANCH  14  15
HETATM   15  C   UNL     1     -21.530  -4.010 -11.920  1.00  0.00     0.000 C 
BRANCH  15  16
HETATM   16  C   UNL     1     -22.595  -3.229 -11.155  1.00  0.00     0.002 C 
BRANCH  16  17
HETATM   17  C   UNL     1     -23.725  -4.145 -10.705  1.00  0.00     0.026 C 
BRANCH  17  18
HETATM   18  C   UNL     1     -24.415  -3.596  -9.466  1.00  0.00     0.164 C 
BRANCH  18  19
HETATM   19  O   UNL     1     -25.729  -3.171  -9.797  1.00  0.00    -0.401 OA
HETATM   20  H   UNL     1     -25.996  -3.642 -10.604  1.00  0.00     0.209 HD
ENDBRANCH  18  19
ENDBRANCH  17  18
ENDBRANCH  16  17
ENDBRANCH  15  16
ENDBRANCH  14  15
ENDBRANCH  13  14
ENDBRANCH  12  13
ENDBRANCH  11  12
ENDBRANCH   1  11
TORSDOF 16
ENDMDL
MODEL 3
REMARK VINA RESULT:      -6.4      1.772      2.895
REMARK  16 active torsions:
REMARK  status: ('A' for Active; 'I' for Inactive)
REMARK    1  A    between atoms: C_2  and  C_4 
REMARK    2  A    between atoms: C_4  and  C_5 
REMARK    3  A    between atoms: C_5  and  C_6 
REMARK    4  A    between atoms: C_6  and  C_7 
REMARK    5  A    between atoms: C_7  and  C_8 
REMARK    6  A    between atoms: C_8  and  C_9 
REMARK    7  A    between atoms: C_9  and  C_10 
REMARK    8  A    between atoms: C_10  and  C_11 
REMARK    9  A    between atoms: C_11  and  C_12 
REMARK   10  A    between atoms: C_12  and  C_13 
REMARK   11  A    between atoms: C_13  and  C_14 
REMARK   12  A    between atoms: C_14  and  C_15 
REMARK   13  A    between atoms: C_15  and  C_16 
REMARK   14  A    between atoms: C_16  and  C_17 
REMARK   15  A    between atoms: C_17  and  C_18 
REMARK   16  A    between atoms: C_18  and  O_19 
ROOT
HETATM    1  C   UNL     1     -21.491  -4.942  -8.414  1.00  0.00     0.000 C 
ENDROOT
BRANCH   1   2
HETATM    2  C   UNL     1     -21.729  -4.434  -7.000  1.00  0.00     0.000 C 
BRANCH   2   3
HETATM    3  C   UNL     1     -20.466  -4.587  -6.166  1.00  0.00     0.000 C 
BRANCH   3   4
HETATM    4  C   UNL     1     -20.719  -5.530  -5.000  1.00  0.00     0.000 C 
BRANCH   4   5
HETATM    5  C   UNL     1     -20.484  -6.976  -5.412  1.00  0.00     0.000 C 
BRANCH   5   6
HETATM    6  C   UNL     1     -21.151  -7.912  -4.412  1.00  0.00     0.000 C 
BRANCH   6   7
HETATM    7  C   UNL     1     -20.582  -7.723  -3.009  1.00  0.00     0.004 C 
BRANCH   7   8
HETATM    8  C   UNL     1     -21.672  -7.667  -1.927  1.00  0.00    -0.023 C 
HETATM    9  C   UNL     1     -21.109  -8.187  -0.605  1.00  0.00     0.009 C 
HETATM   10  C   UNL     1     -22.234  -6.256  -1.737  1.00  0.00     0.009 C 
ENDBRANCH   7   8
ENDBRANCH   6   7
ENDBRANCH   5   6
ENDBRANCH   4   5
ENDBRANCH   3   4
ENDBRANCH   2   3
ENDBRANCH   1   2
BRANCH   1  11
HETATM   11  C   UNL     1     -20.026  -4.789  -8.795  1.00  0.00     0.000 C 
BRANCH  11  12
HETATM   12  C   UNL     1     -19.871  -4.805 -10.309  1.00  0.00     0.000 C 
BRANCH  12  13
HETATM   13  C   UNL     1     -20.683  -3.683 -10.940  1.00  0.00     0.000 C 
BRANCH  13  14
HETATM   14  C   UNL     1     -21.702  -4.249 -11.921  1.00  0.00     0.000 C 
BRANCH  14  15
HETATM   15  C   UNL     1     -22.424  -3.125 -12.649  1.00  0.00     0.000 C 
BRANCH  15  16
HETATM   16  C   UNL     1     -23.735  -2.786 -11.944  1.00  0.00     0.002 C 
BRANCH  16  17
HETATM   17  C   UNL     1     -24.144  -3.896 -10.987  1.00  0.00     0.026 C 
BRANCH  17  18
HETATM   18  C   UNL     1     -24.621  -3.327  -9.660  1.00  0.00     0.164 C 
BRANCH  18  19
HETATM   19  O   UNL     1     -26.039  -3.238  -9.659  1.00  0.00    -0.401 OA
HETATM   20  H   UNL     1     -26.367  -3.767 -10.405  1.00  0.00     0.209 HD
ENDBRANCH  18  19
ENDBRANCH  17  18
ENDBRANCH  16  17
ENDBRANCH  15  16
ENDBRANCH  14  15
ENDBRANCH  13  14
ENDBRANCH  12  13
ENDBRANCH  11  12
ENDBRANCH   1  11
TORSDOF 16
ENDMDL
MODEL 4
REMARK VINA RESULT:      -6.4      1.388      2.126
REMARK  16 active torsions:
REMARK  status: ('A' for Active; 'I' for Inactive)
REMARK    1  A    between atoms: C_2  and  C_4 
REMARK    2  A    between atoms: C_4  and  C_5 
REMARK    3  A    between atoms: C_5  and  C_6 
REMARK    4  A    between atoms: C_6  and  C_7 
REMARK    5  A    between atoms: C_7  and  C_8 
REMARK    6  A    between atoms: C_8  and  C_9 
REMARK    7  A    between atoms: C_9  and  C_10 
REMARK    8  A    between atoms: C_10  and  C_11 
REMARK    9  A    between atoms: C_11  and  C_12 
REMARK   10  A    between atoms: C_12  and  C_13 
REMARK   11  A    between atoms: C_13  and  C_14 
REMARK   12  A    between atoms: C_14  and  C_15 
REMARK   13  A    between atoms: C_15  and  C_16 
REMARK   14  A    between atoms: C_16  and  C_17 
REMARK   15  A    between atoms: C_17  and  C_18 
REMARK   16  A    between atoms: C_18  and  O_19 
ROOT
HETATM    1  C   UNL     1     -21.389  -6.874  -5.538  1.00  0.00     0.000 C 
ENDROOT
BRANCH   1   2
HETATM    2  C   UNL     1     -21.221  -6.080  -4.251  1.00  0.00     0.000 C 
BRANCH   2   3
HETATM    3  C   UNL     1     -21.518  -6.961  -3.047  1.00  0.00     0.000 C 
BRANCH   3   4
HETATM    4  C   UNL     1     -22.167  -6.139  -1.944  1.00  0.00     0.000 C 
BRANCH   4   5
HETATM    5  C   UNL     1     -22.426  -6.995  -0.712  1.00  0.00     0.000 C 
BRANCH   5   6
HETATM    6  C   UNL     1     -21.408  -8.126  -0.648  1.00  0.00     0.000 C 
BRANCH   6   7
HETATM    7  C   UNL     1     -21.857  -9.224   0.312  1.00  0.00     0.004 C 
BRANCH   7   8
HETATM    8  C   UNL     1     -22.392 -10.468  -0.415  1.00  0.00    -0.023 C 
HETATM    9  C   UNL     1     -23.891 -10.609  -0.154  1.00  0.00     0.009 C 
HETATM   10  C   UNL     1     -22.125 -10.424  -1.921  1.00  0.00     0.009 C 
ENDBRANCH   7   8
ENDBRANCH   6   7
ENDBRANCH   5   6
ENDBRANCH   4   5
ENDBRANCH   3   4
ENDBRANCH   2   3
ENDBRANCH   1   2
BRANCH   1  11
HETATM   11  C   UNL     1     -20.669  -6.184  -6.687  1.00  0.00     0.000 C 
BRANCH  11  12
HETATM   12  C   UNL     1     -20.301  -4.760  -6.298  1.00  0.00     0.000 C 
BRANCH  12  13
HETATM   13  C   UNL     1     -20.822  -3.773  -7.333  1.00  0.00     0.000 C 
BRANCH  13  14
HETATM   14  C   UNL     1     -22.284  -4.056  -7.651  1.00  0.00     0.000 C 
BRANCH  14  15
HETATM   15  C   UNL     1     -22.540  -3.938  -9.146  1.00  0.00     0.000 C 
BRANCH  15  16
HETATM   16  C   UNL     1     -21.287  -4.308  -9.935  1.00  0.00     0.002 C 
BRANCH  16  17
HETATM   17  C   UNL     1     -21.510  -4.128 -11.430  1.00  0.00     0.026 C 
BRANCH  17  18
HETATM   18  C   UNL     1     -22.984  -3.920 -11.741  1.00  0.00     0.164 C 
BRANCH  18  19
HETATM   19  O   UNL     1     -23.498  -5.062 -12.411  1.00  0.00    -0.401 OA
HETATM   20  H   UNL     1     -23.176  -5.848 -11.942  1.00  0.00     0.209 HD
ENDBRANCH  18  19
ENDBRANCH  17  18
ENDBRANCH  16  17
ENDBRANCH  15  16
ENDBRANCH  14  15
ENDBRANCH  13  14
ENDBRANCH  12  13
ENDBRANCH  11  12
ENDBRANCH   1  11
TORSDOF 16
ENDMDL
MODEL 5
REMARK VINA RESULT:      -6.0      1.397      2.424
REMARK  16 active torsions:
REMARK  status: ('A' for Active; 'I' for Inactive)
REMARK    1  A    between atoms: C_2  and  C_4 
REMARK    2  A    between atoms: C_4  and  C_5 
REMARK    3  A    between atoms: C_5  and  C_6 
REMARK    4  A    between atoms: C_6  and  C_7 
REMARK    5  A    between atoms: C_7  and  C_8 
REMARK    6  A    between atoms: C_8  and  C_9 
REMARK    7  A    between atoms: C_9  and  C_10 
REMARK    8  A    between atoms: C_10  and  C_11 
REMARK    9  A    between atoms: C_11  and  C_12 
REMARK   10  A    between atoms: C_12  and  C_13 
REMARK   11  A    between atoms: C_13  and  C_14 
REMARK   12  A    between atoms: C_14  and  C_15 
REMARK   13  A    between atoms: C_15  and  C_16 
REMARK   14  A    between atoms: C_16  and  C_17 
REMARK   15  A    between atoms: C_17  and  C_18 
REMARK   16  A    between atoms: C_18  and  O_19 
ROOT
HETATM    1  C   UNL     1     -21.397  -4.805  -7.676  1.00  0.00     0.000 C 
ENDROOT
BRANCH   1   2
HETATM    2  C   UNL     1     -20.849  -4.604  -6.272  1.00  0.00     0.000 C 
BRANCH   2   3
HETATM    3  C   UNL     1     -20.365  -5.928  -5.700  1.00  0.00     0.000 C 
BRANCH   3   4
HETATM    4  C   UNL     1     -21.540  -6.872  -5.497  1.00  0.00     0.000 C 
BRANCH   4   5
HETATM    5  C   UNL     1     -21.117  -8.099  -4.702  1.00  0.00     0.000 C 
BRANCH   5   6
HETATM    6  C   UNL     1     -20.830  -7.705  -3.260  1.00  0.00     0.000 C 
BRANCH   6   7
HETATM    7  C   UNL     1     -21.483  -8.673  -2.278  1.00  0.00     0.004 C 
BRANCH   7   8
HETATM    8  C   UNL     1     -22.130  -7.961  -1.079  1.00  0.00    -0.023 C 
HETATM    9  C   UNL     1     -21.342  -8.278   0.191  1.00  0.00     0.009 C 
HETATM   10  C   UNL     1     -22.215  -6.446  -1.278  1.00  0.00     0.009 C 
ENDBRANCH   7   8
ENDBRANCH   6   7
ENDBRANCH   5   6
ENDBRANCH   4   5
ENDBRANCH   3   4
ENDBRANCH   2   3
ENDBRANCH   1   2
BRANCH   1  11
HETATM   11  C   UNL     1     -20.273  -5.148  -8.642  1.00  0.00     0.000 C 
BRANCH  11  12
HETATM   12  C   UNL     1     -20.478  -4.428  -9.966  1.00  0.00     0.000 C 
BRANCH  12  13
HETATM   13  C   UNL     1     -21.822  -3.712  -9.981  1.00  0.00     0.000 C 
BRANCH  13  14
HETATM   14  C   UNL     1     -22.464  -3.812 -11.359  1.00  0.00     0.000 C 
BRANCH  14  15
HETATM   15  C   UNL     1     -23.930  -3.411 -11.296  1.00  0.00     0.000 C 
BRANCH  15  16
HETATM   16  C   UNL     1     -24.408  -2.915 -12.658  1.00  0.00     0.002 C 
BRANCH  16  17
HETATM   17  C   UNL     1     -23.258  -2.858 -13.653  1.00  0.00     0.026 C 
BRANCH  17  18
HETATM   18  C   UNL     1     -23.461  -1.738 -14.661  1.00  0.00     0.164 C 
BRANCH  18  19
HETATM   19  O   UNL     1     -22.600  -1.932 -15.774  1.00  0.00    -0.401 OA
HETATM   20  H   UNL     1     -22.814  -2.795 -16.164  1.00  0.00     0.209 HD
ENDBRANCH  18  19
ENDBRANCH  17  18
ENDBRANCH  16  17
ENDBRANCH  15  16
ENDBRANCH  14  15
ENDBRANCH  13  14
ENDBRANCH  12  13
ENDBRANCH  11  12
ENDBRANCH   1  11
TORSDOF 16
ENDMDL
MODEL 6
REMARK VINA RESULT:      -6.0      3.673      9.814
REMARK  16 active torsions:
REMARK  status: ('A' for Active; 'I' for Inactive)
REMARK    1  A    between atoms: C_2  and  C_4 
REMARK    2  A    between atoms: C_4  and  C_5 
REMARK    3  A    between atoms: C_5  and  C_6 
REMARK    4  A    between atoms: C_6  and  C_7 
REMARK    5  A    between atoms: C_7  and  C_8 
REMARK    6  A    between atoms: C_8  and  C_9 
REMARK    7  A    between atoms: C_9  and  C_10 
REMARK    8  A    between atoms: C_10  and  C_11 
REMARK    9  A    between atoms: C_11  and  C_12 
REMARK   10  A    between atoms: C_12  and  C_13 
REMARK   11  A    between atoms: C_13  and  C_14 
REMARK   12  A    between atoms: C_14  and  C_15 
REMARK   13  A    between atoms: C_15  and  C_16 
REMARK   14  A    between atoms: C_16  and  C_17 
REMARK   15  A    between atoms: C_17  and  C_18 
REMARK   16  A    between atoms: C_18  and  O_19 
ROOT
HETATM    1  C   UNL     1     -20.548  -6.665  -5.559  1.00  0.00     0.000 C 
ENDROOT
BRANCH   1   2
HETATM    2  C   UNL     1     -20.825  -5.903  -6.845  1.00  0.00     0.000 C 
BRANCH   2   3
HETATM    3  C   UNL     1     -21.074  -4.433  -6.543  1.00  0.00     0.000 C 
BRANCH   3   4
HETATM    4  C   UNL     1     -21.591  -3.723  -7.785  1.00  0.00     0.000 C 
BRANCH   4   5
HETATM    5  C   UNL     1     -23.065  -4.030  -8.011  1.00  0.00     0.000 C 
BRANCH   5   6
HETATM    6  C   UNL     1     -23.428  -3.770  -9.467  1.00  0.00     0.000 C 
BRANCH   6   7
HETATM    7  C   UNL     1     -22.740  -4.764 -10.397  1.00  0.00     0.004 C 
BRANCH   7   8
HETATM    8  C   UNL     1     -21.948  -4.079 -11.522  1.00  0.00    -0.023 C 
HETATM    9  C   UNL     1     -22.519  -2.683 -11.774  1.00  0.00     0.009 C 
HETATM   10  C   UNL     1     -20.453  -3.983 -11.208  1.00  0.00     0.009 C 
ENDBRANCH   7   8
ENDBRANCH   6   7
ENDBRANCH   5   6
ENDBRANCH   4   5
ENDBRANCH   3   4
ENDBRANCH   2   3
ENDBRANCH   1   2
BRANCH   1  11
HETATM   11  C   UNL     1     -21.765  -6.634  -4.648  1.00  0.00     0.000 C 
BRANCH  11  12
HETATM   12  C   UNL     1     -21.364  -6.972  -3.220  1.00  0.00     0.000 C 
BRANCH  12  13
HETATM   13  C   UNL     1     -22.153  -6.128  -2.229  1.00  0.00     0.000 C 
BRANCH  13  14
HETATM   14  C   UNL     1     -22.264  -6.844  -0.889  1.00  0.00     0.000 C 
BRANCH  14  15
HETATM   15  C   UNL     1     -22.137  -8.348  -1.073  1.00  0.00     0.000 C 
BRANCH  15  16
HETATM   16  C   UNL     1     -22.419  -9.075   0.239  1.00  0.00     0.002 C 
BRANCH  16  17
HETATM   17  C   UNL     1     -21.129  -9.357   0.995  1.00  0.00     0.026 C 
BRANCH  17  18
HETATM   18  C   UNL     1     -20.766 -10.832   0.928  1.00  0.00     0.164 C 
BRANCH  18  19
HETATM   19  O   UNL     1     -19.808 -11.044  -0.099  1.00  0.00    -0.401 OA
HETATM   20  H   UNL     1     -19.613 -11.995  -0.128  1.00  0.00     0.209 HD
ENDBRANCH  18  19
ENDBRANCH  17  18
ENDBRANCH  16  17
ENDBRANCH  15  16
ENDBRANCH  14  15
ENDBRANCH  13  14
ENDBRANCH  12  13
ENDBRANCH  11  12
ENDBRANCH   1  11
TORSDOF 16
ENDMDL
MODEL 7
REMARK VINA RESULT:      -6.0     13.777     17.156
REMARK  16 active torsions:
REMARK  status: ('A' for Active; 'I' for Inactive)
REMARK    1  A    between atoms: C_2  and  C_4 
REMARK    2  A    between atoms: C_4  and  C_5 
REMARK    3  A    between atoms: C_5  and  C_6 
REMARK    4  A    between atoms: C_6  and  C_7 
REMARK    5  A    between atoms: C_7  and  C_8 
REMARK    6  A    between atoms: C_8  and  C_9 
REMARK    7  A    between atoms: C_9  and  C_10 
REMARK    8  A    between atoms: C_10  and  C_11 
REMARK    9  A    between atoms: C_11  and  C_12 
REMARK   10  A    between atoms: C_12  and  C_13 
REMARK   11  A    between atoms: C_13  and  C_14 
REMARK   12  A    between atoms: C_14  and  C_15 
REMARK   13  A    between atoms: C_15  and  C_16 
REMARK   14  A    between atoms: C_16  and  C_17 
REMARK   15  A    between atoms: C_17  and  C_18 
REMARK   16  A    between atoms: C_18  and  O_19 
ROOT
HETATM    1  C   UNL     1     -35.253  -1.080  -9.438  1.00  0.00     0.000 C 
ENDROOT
BRANCH   1   2
HETATM    2  C   UNL     1     -36.735  -0.742  -9.476  1.00  0.00     0.000 C 
BRANCH   2   3
HETATM    3  C   UNL     1     -36.995   0.374 -10.477  1.00  0.00     0.000 C 
BRANCH   3   4
HETATM    4  C   UNL     1     -38.074  -0.047 -11.462  1.00  0.00     0.000 C 
BRANCH   4   5
HETATM    5  C   UNL     1     -37.487  -0.261 -12.850  1.00  0.00     0.000 C 
BRANCH   5   6
HETATM    6  C   UNL     1     -36.021   0.152 -12.858  1.00  0.00     0.000 C 
BRANCH   6   7
HETATM    7  C   UNL     1     -35.286  -0.432 -14.060  1.00  0.00     0.004 C 
BRANCH   7   8
HETATM    8  C   UNL     1     -36.035  -0.209 -15.383  1.00  0.00    -0.023 C 
HETATM    9  C   UNL     1     -35.941   1.263 -15.784  1.00  0.00     0.009 C 
HETATM   10  C   UNL     1     -35.501  -1.093 -16.513  1.00  0.00     0.009 C 
ENDBRANCH   7   8
ENDBRANCH   6   7
ENDBRANCH   5   6
ENDBRANCH   4   5
ENDBRANCH   3   4
ENDBRANCH   2   3
ENDBRANCH   1   2
BRANCH   1  11
HETATM   11  C   UNL     1     -34.939  -2.210 -10.406  1.00  0.00     0.000 C 
BRANCH  11  12
HETATM   12  C   UNL     1     -33.490  -2.124 -10.863  1.00  0.00     0.000 C 
BRANCH  12  13
HETATM   13  C   UNL     1     -33.061  -3.428 -11.522  1.00  0.00     0.000 C 
BRANCH  13  14
HETATM   14  C   UNL     1     -34.143  -3.926 -12.472  1.00  0.00     0.000 C 
BRANCH  14  15
HETATM   15  C   UNL     1     -34.575  -5.336 -12.099  1.00  0.00     0.000 C 
BRANCH  15  16
HETATM   16  C   UNL     1     -33.816  -5.820 -10.867  1.00  0.00     0.002 C 
BRANCH  16  17
HETATM   17  C   UNL     1     -34.741  -6.564  -9.914  1.00  0.00     0.026 C 
BRANCH  17  18
HETATM   18  C   UNL     1     -34.714  -8.061 -10.182  1.00  0.00     0.164 C 
BRANCH  18  19
HETATM   19  O   UNL     1     -34.164  -8.738  -9.062  1.00  0.00    -0.401 OA
HETATM   20  H   UNL     1     -33.495  -8.156  -8.665  1.00  0.00     0.209 HD
ENDBRANCH  18  19
ENDBRANCH  17  18
ENDBRANCH  16  17
ENDBRANCH  15  16
ENDBRANCH  14  15
ENDBRANCH  13  14
ENDBRANCH  12  13
ENDBRANCH  11  12
ENDBRANCH   1  11
TORSDOF 16
ENDMDL
MODEL 8
REMARK VINA RESULT:      -5.9      1.893      2.818
REMARK  16 active torsions:
REMARK  status: ('A' for Active; 'I' for Inactive)
REMARK    1  A    between atoms: C_2  and  C_4 
REMARK    2  A    between atoms: C_4  and  C_5 
REMARK    3  A    between atoms: C_5  and  C_6 
REMARK    4  A    between atoms: C_6  and  C_7 
REMARK    5  A    between atoms: C_7  and  C_8 
REMARK    6  A    between atoms: C_8  and  C_9 
REMARK    7  A    between atoms: C_9  and  C_10 
REMARK    8  A    between atoms: C_10  and  C_11 
REMARK    9  A    between atoms: C_11  and  C_12 
REMARK   10  A    between atoms: C_12  and  C_13 
REMARK   11  A    between atoms: C_13  and  C_14 
REMARK   12  A    between atoms: C_14  and  C_15 
REMARK   13  A    between atoms: C_15  and  C_16 
REMARK   14  A    between atoms: C_16  and  C_17 
REMARK   15  A    between atoms: C_17  and  C_18 
REMARK   16  A    between atoms: C_18  and  O_19 
ROOT
HETATM    1  C   UNL     1     -20.937  -7.484  -4.614  1.00  0.00     0.000 C 
ENDROOT
BRANCH   1   2
HETATM    2  C   UNL     1     -21.548  -8.869  -4.761  1.00  0.00     0.000 C 
BRANCH   2   3
HETATM    3  C   UNL     1     -20.619  -9.920  -4.173  1.00  0.00     0.000 C 
BRANCH   3   4
HETATM    4  C   UNL     1     -19.501  -9.251  -3.387  1.00  0.00     0.000 C 
BRANCH   4   5
HETATM    5  C   UNL     1     -19.348  -9.890  -2.014  1.00  0.00     0.000 C 
BRANCH   5   6
HETATM    6  C   UNL     1     -20.698  -9.932  -1.311  1.00  0.00     0.000 C 
BRANCH   6   7
HETATM    7  C   UNL     1     -20.941  -8.665  -0.497  1.00  0.00     0.004 C 
BRANCH   7   8
HETATM    8  C   UNL     1     -22.315  -8.033  -0.773  1.00  0.00    -0.023 C 
HETATM    9  C   UNL     1     -23.138  -8.012   0.514  1.00  0.00     0.009 C 
HETATM   10  C   UNL     1     -22.201  -6.617  -1.344  1.00  0.00     0.009 C 
ENDBRANCH   7   8
ENDBRANCH   6   7
ENDBRANCH   5   6
ENDBRANCH   4   5
ENDBRANCH   3   4
ENDBRANCH   2   3
ENDBRANCH   1   2
BRANCH   1  11
HETATM   11  C   UNL     1     -21.523  -6.532  -5.645  1.00  0.00     0.000 C 
BRANCH  11  12
HETATM   12  C   UNL     1     -20.418  -5.960  -6.521  1.00  0.00     0.000 C 
BRANCH  12  13
HETATM   13  C   UNL     1     -20.259  -4.467  -6.273  1.00  0.00     0.000 C 
BRANCH  13  14
HETATM   14  C   UNL     1     -21.049  -3.668  -7.303  1.00  0.00     0.000 C 
BRANCH  14  15
HETATM   15  C   UNL     1     -20.791  -4.200  -8.704  1.00  0.00     0.000 C 
BRANCH  15  16
HETATM   16  C   UNL     1     -21.990  -3.928  -9.609  1.00  0.00     0.002 C 
BRANCH  16  17
HETATM   17  C   UNL     1     -23.292  -4.310  -8.920  1.00  0.00     0.026 C 
BRANCH  17  18
HETATM   18  C   UNL     1     -24.492  -3.961  -9.786  1.00  0.00     0.164 C 
BRANCH  18  19
HETATM   19  O   UNL     1     -25.122  -2.792  -9.284  1.00  0.00    -0.401 OA
HETATM   20  H   UNL     1     -25.949  -2.667  -9.779  1.00  0.00     0.209 HD
ENDBRANCH  18  19
ENDBRANCH  17  18
ENDBRANCH  16  17
ENDBRANCH  15  16
ENDBRANCH  14  15
ENDBRANCH  13  14
ENDBRANCH  12  13
ENDBRANCH  11  12
ENDBRANCH   1  11
TORSDOF 16
ENDMDL
MODEL 9
REMARK VINA RESULT:      -5.7      1.658      3.423
REMARK  16 active torsions:
REMARK  status: ('A' for Active; 'I' for Inactive)
REMARK    1  A    between atoms: C_2  and  C_4 
REMARK    2  A    between atoms: C_4  and  C_5 
REMARK    3  A    between atoms: C_5  and  C_6 
REMARK    4  A    between atoms: C_6  and  C_7 
REMARK    5  A    between atoms: C_7  and  C_8 
REMARK    6  A    between atoms: C_8  and  C_9 
REMARK    7  A    between atoms: C_9  and  C_10 
REMARK    8  A    between atoms: C_10  and  C_11 
REMARK    9  A    between atoms: C_11  and  C_12 
REMARK   10  A    between atoms: C_12  and  C_13 
REMARK   11  A    between atoms: C_13  and  C_14 
REMARK   12  A    between atoms: C_14  and  C_15 
REMARK   13  A    between atoms: C_15  and  C_16 
REMARK   14  A    between atoms: C_16  and  C_17 
REMARK   15  A    between atoms: C_17  and  C_18 
REMARK   16  A    between atoms: C_18  and  O_19 
ROOT
HETATM    1  C   UNL     1     -20.920  -6.986  -2.709  1.00  0.00     0.000 C 
ENDROOT
BRANCH   1   2
HETATM    2  C   UNL     1     -22.216  -7.426  -2.046  1.00  0.00     0.000 C 
BRANCH   2   3
HETATM    3  C   UNL     1     -22.294  -6.880  -0.628  1.00  0.00     0.000 C 
BRANCH   3   4
HETATM    4  C   UNL     1     -22.627  -7.999   0.346  1.00  0.00     0.000 C 
BRANCH   4   5
HETATM    5  C   UNL     1     -21.377  -8.474   1.074  1.00  0.00     0.000 C 
BRANCH   5   6
HETATM    6  C   UNL     1     -21.153  -9.955   0.800  1.00  0.00     0.000 C 
BRANCH   6   7
HETATM    7  C   UNL     1     -22.279 -10.541  -0.047  1.00  0.00     0.004 C 
BRANCH   7   8
HETATM    8  C   UNL     1     -21.771 -11.220  -1.328  1.00  0.00    -0.023 C 
HETATM    9  C   UNL     1     -22.817 -11.080  -2.433  1.00  0.00     0.009 C 
HETATM   10  C   UNL     1     -20.432 -10.649  -1.800  1.00  0.00     0.009 C 
ENDBRANCH   7   8
ENDBRANCH   6   7
ENDBRANCH   5   6
ENDBRANCH   4   5
ENDBRANCH   3   4
ENDBRANCH   2   3
ENDBRANCH   1   2
BRANCH   1  11
HETATM   11  C   UNL     1     -21.200  -5.965  -3.801  1.00  0.00     0.000 C 
BRANCH  11  12
HETATM   12  C   UNL     1     -21.446  -6.668  -5.128  1.00  0.00     0.000 C 
BRANCH  12  13
HETATM   13  C   UNL     1     -20.692  -5.967  -6.250  1.00  0.00     0.000 C 
BRANCH  13  14
HETATM   14  C   UNL     1     -21.536  -4.842  -6.837  1.00  0.00     0.000 C 
BRANCH  14  15
HETATM   15  C   UNL     1     -20.836  -4.218  -8.035  1.00  0.00     0.000 C 
BRANCH  15  16
HETATM   16  C   UNL     1     -21.769  -4.184  -9.242  1.00  0.00     0.002 C 
BRANCH  16  17
HETATM   17  C   UNL     1     -20.978  -4.136 -10.542  1.00  0.00     0.026 C 
BRANCH  17  18
HETATM   18  C   UNL     1     -21.581  -3.133 -11.513  1.00  0.00     0.164 C 
BRANCH  18  19
HETATM   19  O   UNL     1     -21.677  -3.714 -12.805  1.00  0.00    -0.401 OA
HETATM   20  H   UNL     1     -20.848  -3.524 -13.275  1.00  0.00     0.209 HD
ENDBRANCH  18  19
ENDBRANCH  17  18
ENDBRANCH  16  17
ENDBRANCH  15  16
ENDBRANCH  14  15
ENDBRANCH  13  14
ENDBRANCH  12  13
ENDBRANCH  11  12
ENDBRANCH   1  11
TORSDOF 16
ENDMDL
