MODEL 1
REMARK VINA RESULT:      -3.3      0.000      0.000
REMARK  1 active torsions:
REMARK  status: ('A' for Active; 'I' for Inactive)
REMARK    1  A    between atoms: C_2  and  O_4 
ROOT
HETATM    1  C   UNL     1     -22.778  -3.015 -13.165  1.00  0.00     0.125 C 
HETATM    2  C   UNL     1     -23.027  -2.645 -14.596  1.00  0.00     0.135 C 
HETATM    3  O   UNL     1     -23.946  -1.937 -14.973  1.00  0.00    -0.650 OA
ENDROOT
BRANCH   2   4
HETATM    4  O   UNL     1     -22.121  -3.182 -15.443  1.00  0.00    -0.777 OA
HETATM    5  H   UNL     1     -21.297  -3.466 -15.007  1.00  0.00     0.167 HD
ENDBRANCH   2   4
TORSDOF 1
ENDMDL
MODEL 2
REMARK VINA RESULT:      -3.2      5.048      5.508
REMARK  1 active torsions:
REMARK  status: ('A' for Active; 'I' for Inactive)
REMARK    1  A    between atoms: C_2  and  O_4 
ROOT
HETATM    1  C   UNL     1     -23.796  -4.797 -10.506  1.00  0.00     0.125 C 
HETATM    2  C   UNL     1     -24.574  -3.828  -9.669  1.00  0.00     0.135 C 
HETATM    3  O   UNL     1     -25.507  -3.158 -10.081  1.00  0.00    -0.650 OA
ENDROOT
BRANCH   2   4
HETATM    4  O   UNL     1     -24.136  -3.766  -8.392  1.00  0.00    -0.777 OA
HETATM    5  H   UNL     1     -24.553  -4.420  -7.802  1.00  0.00     0.167 HD
ENDBRANCH   2   4
TORSDOF 1
ENDMDL
MODEL 3
REMARK VINA RESULT:      -3.2     13.923     14.032
REMARK  1 active torsions:
REMARK  status: ('A' for Active; 'I' for Inactive)
REMARK    1  A    between atoms: C_2  and  O_4 
ROOT
HETATM    1  C   UNL     1     -28.709 -15.082 -17.883  1.00  0.00     0.125 C 
HETATM    2  C   UNL     1     -29.678 -14.182 -18.588  1.00  0.00     0.135 C 
HETATM    3  O   UNL     1     -29.369 -13.147 -19.153  1.00  0.00    -0.650 OA
ENDROOT
BRANCH   2   4
HETATM    4  O   UNL     1     -30.950 -14.638 -18.537  1.00  0.00    -0.777 OA
HETATM    5  H   UNL     1     -31.621 -13.940 -18.646  1.00  0.00     0.167 HD
ENDBRANCH   2   4
TORSDOF 1
ENDMDL
MODEL 4
REMARK VINA RESULT:      -3.2      4.988      5.292
REMARK  1 active torsions:
REMARK  status: ('A' for Active; 'I' for Inactive)
REMARK    1  A    between atoms: C_2  and  O_4 
ROOT
HETATM    1  C   UNL     1     -26.840  -6.857 -15.820  1.00  0.00     0.125 C 
HETATM    2  C   UNL     1     -25.341  -6.837 -15.799  1.00  0.00     0.135 C 
HETATM    3  O   UNL     1     -24.638  -7.814 -15.994  1.00  0.00    -0.650 OA
ENDROOT
BRANCH   2   4
HETATM    4  O   UNL     1     -24.836  -5.610 -15.539  1.00  0.00    -0.777 OA
HETATM    5  H   UNL     1     -25.269  -5.158 -14.793  1.00  0.00     0.167 HD
ENDBRANCH   2   4
TORSDOF 1
ENDMDL
MODEL 5
REMARK VINA RESULT:      -3.1     14.447     14.603
REMARK  1 active torsions:
REMARK  status: ('A' for Active; 'I' for Inactive)
REMARK    1  A    between atoms: C_2  and  O_4 
ROOT
HETATM    1  C   UNL     1     -29.772 -15.700 -20.327  1.00  0.00     0.125 C 
HETATM    2  C   UNL     1     -29.595 -14.212 -20.287  1.00  0.00     0.135 C 
HETATM    3  O   UNL     1     -29.996 -13.497 -19.383  1.00  0.00    -0.650 OA
ENDROOT
BRANCH   2   4
HETATM    4  O   UNL     1     -28.939 -13.731 -21.366  1.00  0.00    -0.777 OA
HETATM    5  H   UNL     1     -28.156 -14.255 -21.614  1.00  0.00     0.167 HD
ENDBRANCH   2   4
TORSDOF 1
ENDMDL
MODEL 6
REMARK VINA RESULT:      -3.0     15.685     16.033
REMARK  1 active torsions:
REMARK  status: ('A' for Active; 'I' for Inactive)
REMARK    1  A    between atoms: C_2  and  O_4 
ROOT
HETATM    1  C   UNL     1      -9.623   6.062 -20.357  1.00  0.00     0.125 C 
HETATM    2  C   UNL     1     -10.343   5.725 -19.086  1.00  0.00     0.135 C 
HETATM    3  O   UNL     1     -11.526   5.435 -19.022  1.00  0.00    -0.650 OA
ENDROOT
BRANCH   2   4
HETATM    4  O   UNL     1      -9.541   5.773 -17.999  1.00  0.00    -0.777 OA
HETATM    5  H   UNL     1      -9.031   4.956 -17.851  1.00  0.00     0.167 HD
ENDBRANCH   2   4
TORSDOF 1
ENDMDL
MODEL 7
REMARK VINA RESULT:      -2.9     11.031     11.327
REMARK  1 active torsions:
REMARK  status: ('A' for Active; 'I' for Inactive)
REMARK    1  A    between atoms: C_2  and  O_4 
ROOT
HETATM    1  C   UNL     1     -33.048  -3.681 -11.703  1.00  0.00     0.125 C 
HETATM    2  C   UNL     1     -34.065  -3.907 -12.779  1.00  0.00     0.135 C 
HETATM    3  O   UNL     1     -34.443  -3.049 -13.560  1.00  0.00    -0.650 OA
ENDROOT
BRANCH   2   4
HETATM    4  O   UNL     1     -34.532  -5.175 -12.803  1.00  0.00    -0.777 OA
HETATM    5  H   UNL     1     -35.496  -5.236 -12.937  1.00  0.00     0.167 HD
ENDBRANCH   2   4
TORSDOF 1
ENDMDL
MODEL 8
REMARK VINA RESULT:      -2.9      9.024      9.337
REMARK  1 active torsions:
REMARK  status: ('A' for Active; 'I' for Inactive)
REMARK    1  A    between atoms: C_2  and  O_4 
ROOT
HETATM    1  C   UNL     1     -26.523  -6.953 -20.417  1.00  0.00     0.125 C 
HETATM    2  C   UNL     1     -26.481  -8.221 -21.215  1.00  0.00     0.135 C 
HETATM    3  O   UNL     1     -27.461  -8.892 -21.492  1.00  0.00    -0.650 OA
ENDROOT
BRANCH   2   4
HETATM    4  O   UNL     1     -25.231  -8.556 -21.605  1.00  0.00    -0.777 OA
HETATM    5  H   UNL     1     -24.754  -9.111 -20.961  1.00  0.00     0.167 HD
ENDBRANCH   2   4
TORSDOF 1
ENDMDL
MODEL 9
REMARK VINA RESULT:      -2.8     13.569     14.046
REMARK  1 active torsions:
REMARK  status: ('A' for Active; 'I' for Inactive)
REMARK    1  A    between atoms: C_2  and  O_4 
ROOT
HETATM    1  C   UNL     1     -26.989   9.761 -22.465  1.00  0.00     0.125 C 
HETATM    2  C   UNL     1     -26.479   8.690 -21.549  1.00  0.00     0.135 C 
HETATM    3  O   UNL     1     -25.353   8.665 -21.080  1.00  0.00    -0.650 OA
ENDROOT
BRANCH   2   4
HETATM    4  O   UNL     1     -27.403   7.738 -21.287  1.00  0.00    -0.777 OA
HETATM    5  H   UNL     1     -28.308   7.987 -21.551  1.00  0.00     0.167 HD
ENDBRANCH   2   4
TORSDOF 1
ENDMDL
