MODEL 1
REMARK VINA RESULT:      -7.0      0.000      0.000
REMARK  20 active torsions:
REMARK  status: ('A' for Active; 'I' for Inactive)
REMARK    1  A    between atoms: C_2  and  C_3 
REMARK    2  A    between atoms: C_3  and  C_4 
REMARK    3  A    between atoms: C_4  and  C_5 
REMARK    4  A    between atoms: C_5  and  C_6 
REMARK    5  A    between atoms: C_6  and  C_7 
REMARK    6  A    between atoms: C_7  and  C_8 
REMARK    7  A    between atoms: C_8  and  C_9 
REMARK    8  A    between atoms: C_10  and  C_11 
REMARK    9  A    between atoms: C_11  and  C_12 
REMARK   10  A    between atoms: C_12  and  C_13 
REMARK   11  A    between atoms: C_13  and  C_14 
REMARK   12  A    between atoms: C_14  and  C_15 
REMARK   13  A    between atoms: C_15  and  C_16 
REMARK   14  A    between atoms: C_16  and  C_17 
REMARK   15  A    between atoms: C_17  and  C_18 
REMARK       I    between atoms: C_18  and  N_20 
REMARK   16  A    between atoms: N_20  and  CA_21 
REMARK   17  A    between atoms: CA_21  and  CB_22 
REMARK   18  A    between atoms: CA_21  and  C_24 
REMARK   19  A    between atoms: CB_22  and  OG_23 
REMARK   20  A    between atoms: C_24  and  O_25 
ROOT
HETATM    1  C   UNK A   0     -19.429  -4.801  -7.001  1.00  0.00     0.000 C 
ENDROOT
BRANCH   1   2
HETATM    2  C   UNK A   0     -20.457  -4.446  -5.939  1.00  0.00     0.000 C 
BRANCH   2   3
HETATM    3  C   UNK A   0     -20.800  -5.666  -5.094  1.00  0.00     0.004 C 
BRANCH   3   4
HETATM    4  C   UNK A   0     -20.726  -6.926  -5.946  1.00  0.00     0.027 C 
BRANCH   4   5
HETATM    5  C   UNK A   0     -21.265  -8.100  -5.197  1.00  0.00    -0.031 C 
HETATM    6  C   UNK A   0     -20.501  -9.140  -4.841  1.00  0.00    -0.031 C 
BRANCH   6   7
HETATM    7  C   UNK A   0     -21.037 -10.314  -4.090  1.00  0.00     0.027 C 
BRANCH   7   8
HETATM    8  C   UNK A   0     -22.134  -9.877  -3.130  1.00  0.00     0.004 C 
BRANCH   8   9
HETATM    9  C   UNK A   0     -22.349 -10.936  -2.056  1.00  0.00     0.000 C 
BRANCH   9  10
HETATM   10  C   UNK A   0     -22.376 -10.299  -0.675  1.00  0.00     0.000 C 
BRANCH  10  11
HETATM   11  C   UNK A   0     -21.142  -9.431  -0.461  1.00  0.00     0.000 C 
BRANCH  11  12
HETATM   12  C   UNK A   0     -21.506  -8.158   0.295  1.00  0.00    -0.000 C 
BRANCH  12  13
HETATM   13  C   UNK A   0     -22.671  -7.438  -0.376  1.00  0.00    -0.005 C 
HETATM   14  C   UNK A   0     -22.184  -6.568  -1.520  1.00  0.00     0.005 C 
ENDBRANCH  12  13
ENDBRANCH  11  12
ENDBRANCH  10  11
ENDBRANCH   9  10
ENDBRANCH   8   9
ENDBRANCH   7   8
ENDBRANCH   6   7
ENDBRANCH   4   5
ENDBRANCH   3   4
ENDBRANCH   2   3
ENDBRANCH   1   2
BRANCH   1  15
HETATM   15  C   UNK A   0     -19.675  -4.007  -8.281  1.00  0.00     0.000 C 
BRANCH  15  16
HETATM   16  C   UNK A   0     -20.194  -4.934  -9.370  1.00  0.00     0.009 C 
BRANCH  16  17
HETATM   17  C   UNK A   0     -20.224  -4.271 -10.742  1.00  0.00     0.103 C 
BRANCH  17  18
HETATM   18  C   UNK A   0     -21.569  -3.599 -10.969  1.00  0.00     0.218 C 
HETATM   19  O   UNK A   0     -22.362  -3.349 -10.066  1.00  0.00    -0.274 OA
ATOM     20  N   SER A   1     -21.823  -3.321 -12.298  1.00  0.00    -0.352 N 
ATOM     21  H   SER A   1     -21.105  -3.544 -12.985  1.00  0.00     0.163 HD
BRANCH  20  22
ATOM     22  CA  SER A   1     -23.107  -2.737 -12.722  1.00  0.00     0.131 C 
BRANCH  22  23
ATOM     23  CB  SER A   1     -23.134  -2.429 -14.231  1.00  0.00     0.191 C 
BRANCH  23  24
ATOM     24  OG  SER A   1     -23.584  -3.549 -14.998  1.00  0.00    -0.399 OA
ATOM     25  H   SER A   1     -24.524  -3.400 -15.220  1.00  0.00     0.209 HD
ENDBRANCH  23  24
ENDBRANCH  22  23
BRANCH  22  26
ATOM     26  C   SER A   1     -24.320  -3.600 -12.300  1.00  0.00     0.191 C 
BRANCH  26  27
ATOM     27  O   SER A   1     -25.035  -3.120 -11.163  1.00  0.00    -0.399 OA
ATOM     28  H   SER A   1     -24.386  -3.037 -10.432  1.00  0.00     0.209 HD
ENDBRANCH  26  27
ENDBRANCH  22  26
ENDBRANCH  20  22
ENDBRANCH  17  18
ENDBRANCH  16  17
ENDBRANCH  15  16
ENDBRANCH   1  15
TORSDOF 20
ENDMDL
MODEL 2
REMARK VINA RESULT:      -6.9      1.601      3.606
REMARK  20 active torsions:
REMARK  status: ('A' for Active; 'I' for Inactive)
REMARK    1  A    between atoms: C_2  and  C_3 
REMARK    2  A    between atoms: C_3  and  C_4 
REMARK    3  A    between atoms: C_4  and  C_5 
REMARK    4  A    between atoms: C_5  and  C_6 
REMARK    5  A    between atoms: C_6  and  C_7 
REMARK    6  A    between atoms: C_7  and  C_8 
REMARK    7  A    between atoms: C_8  and  C_9 
REMARK    8  A    between atoms: C_10  and  C_11 
REMARK    9  A    between atoms: C_11  and  C_12 
REMARK   10  A    between atoms: C_12  and  C_13 
REMARK   11  A    between atoms: C_13  and  C_14 
REMARK   12  A    between atoms: C_14  and  C_15 
REMARK   13  A    between atoms: C_15  and  C_16 
REMARK   14  A    between atoms: C_16  and  C_17 
REMARK   15  A    between atoms: C_17  and  C_18 
REMARK       I    between atoms: C_18  and  N_20 
REMARK   16  A    between atoms: N_20  and  CA_21 
REMARK   17  A    between atoms: CA_21  and  CB_22 
REMARK   18  A    between atoms: CA_21  and  C_24 
REMARK   19  A    between atoms: CB_22  and  OG_23 
REMARK   20  A    between atoms: C_24  and  O_25 
ROOT
HETATM    1  C   UNK A   0     -21.329  -6.339  -6.142  1.00  0.00     0.000 C 
ENDROOT
BRANCH   1   2
HETATM    2  C   UNK A   0     -22.104  -6.681  -4.879  1.00  0.00     0.000 C 
BRANCH   2   3
HETATM    3  C   UNK A   0     -21.203  -6.588  -3.654  1.00  0.00     0.004 C 
BRANCH   3   4
HETATM    4  C   UNK A   0     -22.012  -6.130  -2.447  1.00  0.00     0.027 C 
BRANCH   4   5
HETATM    5  C   UNK A   0     -21.751  -7.016  -1.274  1.00  0.00    -0.031 C 
HETATM    6  C   UNK A   0     -22.730  -7.465  -0.478  1.00  0.00    -0.031 C 
BRANCH   6   7
HETATM    7  C   UNK A   0     -22.472  -8.352   0.695  1.00  0.00     0.027 C 
BRANCH   7   8
HETATM    8  C   UNK A   0     -22.086  -9.749   0.232  1.00  0.00     0.004 C 
BRANCH   8   9
HETATM    9  C   UNK A   0     -23.299 -10.465  -0.350  1.00  0.00     0.000 C 
BRANCH   9  10
HETATM   10  C   UNK A   0     -22.878 -11.398  -1.478  1.00  0.00     0.000 C 
BRANCH  10  11
HETATM   11  C   UNK A   0     -22.982 -10.692  -2.824  1.00  0.00     0.000 C 
BRANCH  11  12
HETATM   12  C   UNK A   0     -21.692 -10.863  -3.620  1.00  0.00    -0.000 C 
BRANCH  12  13
HETATM   13  C   UNK A   0     -20.557 -10.053  -3.002  1.00  0.00    -0.005 C 
HETATM   14  C   UNK A   0     -19.340 -10.047  -3.909  1.00  0.00     0.005 C 
ENDBRANCH  12  13
ENDBRANCH  11  12
ENDBRANCH  10  11
ENDBRANCH   9  10
ENDBRANCH   8   9
ENDBRANCH   7   8
ENDBRANCH   6   7
ENDBRANCH   4   5
ENDBRANCH   3   4
ENDBRANCH   2   3
ENDBRANCH   1   2
BRANCH   1  15
HETATM   15  C   UNK A   0     -20.440  -5.119  -5.918  1.00  0.00     0.000 C 
BRANCH  15  16
HETATM   16  C   UNK A   0     -20.728  -4.071  -6.982  1.00  0.00     0.009 C 
BRANCH  16  17
HETATM   17  C   UNK A   0     -19.785  -4.169  -8.175  1.00  0.00     0.103 C 
BRANCH  17  18
HETATM   18  C   UNK A   0     -20.580  -4.351  -9.458  1.00  0.00     0.218 C 
HETATM   19  O   UNK A   0     -20.126  -4.885 -10.467  1.00  0.00    -0.274 OA
ATOM     20  N   SER A   1     -21.859  -3.833  -9.386  1.00  0.00    -0.352 N 
ATOM     21  H   SER A   1     -22.166  -3.422  -8.507  1.00  0.00     0.163 HD
BRANCH  20  22
ATOM     22  CA  SER A   1     -22.754  -3.850 -10.556  1.00  0.00     0.131 C 
BRANCH  22  23
ATOM     23  CB  SER A   1     -24.208  -3.508 -10.177  1.00  0.00     0.191 C 
BRANCH  23  24
ATOM     24  OG  SER A   1     -24.377  -3.382  -8.762  1.00  0.00    -0.399 OA
ATOM     25  H   SER A   1     -23.784  -4.029  -8.333  1.00  0.00     0.209 HD
ENDBRANCH  23  24
ENDBRANCH  22  23
BRANCH  22  26
ATOM     26  C   SER A   1     -22.245  -2.952 -11.708  1.00  0.00     0.191 C 
BRANCH  26  27
ATOM     27  O   SER A   1     -21.673  -3.653 -12.811  1.00  0.00    -0.399 OA
ATOM     28  H   SER A   1     -20.730  -3.387 -12.860  1.00  0.00     0.209 HD
ENDBRANCH  26  27
ENDBRANCH  22  26
ENDBRANCH  20  22
ENDBRANCH  17  18
ENDBRANCH  16  17
ENDBRANCH  15  16
ENDBRANCH   1  15
TORSDOF 20
ENDMDL
MODEL 3
REMARK VINA RESULT:      -6.9      2.156      3.663
REMARK  20 active torsions:
REMARK  status: ('A' for Active; 'I' for Inactive)
REMARK    1  A    between atoms: C_2  and  C_3 
REMARK    2  A    between atoms: C_3  and  C_4 
REMARK    3  A    between atoms: C_4  and  C_5 
REMARK    4  A    between atoms: C_5  and  C_6 
REMARK    5  A    between atoms: C_6  and  C_7 
REMARK    6  A    between atoms: C_7  and  C_8 
REMARK    7  A    between atoms: C_8  and  C_9 
REMARK    8  A    between atoms: C_10  and  C_11 
REMARK    9  A    between atoms: C_11  and  C_12 
REMARK   10  A    between atoms: C_12  and  C_13 
REMARK   11  A    between atoms: C_13  and  C_14 
REMARK   12  A    between atoms: C_14  and  C_15 
REMARK   13  A    between atoms: C_15  and  C_16 
REMARK   14  A    between atoms: C_16  and  C_17 
REMARK   15  A    between atoms: C_17  and  C_18 
REMARK       I    between atoms: C_18  and  N_20 
REMARK   16  A    between atoms: N_20  and  CA_21 
REMARK   17  A    between atoms: CA_21  and  CB_22 
REMARK   18  A    between atoms: CA_21  and  C_24 
REMARK   19  A    between atoms: CB_22  and  OG_23 
REMARK   20  A    between atoms: C_24  and  O_25 
ROOT
HETATM    1  C   UNK A   0     -20.616  -6.234  -6.260  1.00  0.00     0.000 C 
ENDROOT
BRANCH   1   2
HETATM    2  C   UNK A   0     -21.892  -6.224  -5.434  1.00  0.00     0.000 C 
BRANCH   2   3
HETATM    3  C   UNK A   0     -21.796  -7.218  -4.284  1.00  0.00     0.004 C 
BRANCH   3   4
HETATM    4  C   UNK A   0     -21.333  -6.506  -3.019  1.00  0.00     0.027 C 
BRANCH   4   5
HETATM    5  C   UNK A   0     -21.582  -7.355  -1.817  1.00  0.00    -0.031 C 
HETATM    6  C   UNK A   0     -22.505  -7.049  -0.897  1.00  0.00    -0.031 C 
BRANCH   6   7
HETATM    7  C   UNK A   0     -22.758  -7.897   0.306  1.00  0.00     0.027 C 
BRANCH   7   8
HETATM    8  C   UNK A   0     -22.456  -9.357   0.000  1.00  0.00     0.004 C 
BRANCH   8   9
HETATM    9  C   UNK A   0     -23.723 -10.194   0.123  1.00  0.00     0.000 C 
BRANCH   9  10
HETATM   10  C   UNK A   0     -23.902 -11.076  -1.105  1.00  0.00     0.000 C 
BRANCH  10  11
HETATM   11  C   UNK A   0     -23.738 -12.546  -0.739  1.00  0.00     0.000 C 
BRANCH  11  12
HETATM   12  C   UNK A   0     -23.330 -12.691   0.724  1.00  0.00    -0.000 C 
BRANCH  12  13
HETATM   13  C   UNK A   0     -23.359 -14.153   1.156  1.00  0.00    -0.005 C 
HETATM   14  C   UNK A   0     -23.642 -14.272   2.643  1.00  0.00     0.005 C 
ENDBRANCH  12  13
ENDBRANCH  11  12
ENDBRANCH  10  11
ENDBRANCH   9  10
ENDBRANCH   8   9
ENDBRANCH   7   8
ENDBRANCH   6   7
ENDBRANCH   4   5
ENDBRANCH   3   4
ENDBRANCH   2   3
ENDBRANCH   1   2
BRANCH   1  15
HETATM   15  C   UNK A   0     -19.958  -4.857  -6.257  1.00  0.00     0.000 C 
BRANCH  15  16
HETATM   16  C   UNK A   0     -20.510  -4.020  -7.401  1.00  0.00     0.009 C 
BRANCH  16  17
HETATM   17  C   UNK A   0     -19.892  -4.382  -8.746  1.00  0.00     0.103 C 
BRANCH  17  18
HETATM   18  C   UNK A   0     -20.830  -3.988  -9.876  1.00  0.00     0.218 C 
HETATM   19  O   UNK A   0     -20.449  -3.470 -10.923  1.00  0.00    -0.274 OA
ATOM     20  N   SER A   1     -22.158  -4.245  -9.598  1.00  0.00    -0.352 N 
ATOM     21  H   SER A   1     -22.390  -4.693  -8.714  1.00  0.00     0.163 HD
BRANCH  20  22
ATOM     22  CA  SER A   1     -23.222  -3.863 -10.543  1.00  0.00     0.131 C 
BRANCH  22  23
ATOM     23  CB  SER A   1     -23.158  -4.679 -11.848  1.00  0.00     0.191 C 
BRANCH  23  24
ATOM     24  OG  SER A   1     -22.625  -3.914 -12.932  1.00  0.00    -0.399 OA
ATOM     25  H   SER A   1     -21.972  -4.472 -13.398  1.00  0.00     0.209 HD
ENDBRANCH  23  24
ENDBRANCH  22  23
BRANCH  22  26
ATOM     26  C   SER A   1     -24.631  -3.921  -9.909  1.00  0.00     0.191 C 
BRANCH  26  27
ATOM     27  O   SER A   1     -24.972  -2.802  -9.093  1.00  0.00    -0.399 OA
ATOM     28  H   SER A   1     -24.690  -1.997  -9.580  1.00  0.00     0.209 HD
ENDBRANCH  26  27
ENDBRANCH  22  26
ENDBRANCH  20  22
ENDBRANCH  17  18
ENDBRANCH  16  17
ENDBRANCH  15  16
ENDBRANCH   1  15
TORSDOF 20
ENDMDL
MODEL 4
REMARK VINA RESULT:      -6.9      1.422      2.613
REMARK  20 active torsions:
REMARK  status: ('A' for Active; 'I' for Inactive)
REMARK    1  A    between atoms: C_2  and  C_3 
REMARK    2  A    between atoms: C_3  and  C_4 
REMARK    3  A    between atoms: C_4  and  C_5 
REMARK    4  A    between atoms: C_5  and  C_6 
REMARK    5  A    between atoms: C_6  and  C_7 
REMARK    6  A    between atoms: C_7  and  C_8 
REMARK    7  A    between atoms: C_8  and  C_9 
REMARK    8  A    between atoms: C_10  and  C_11 
REMARK    9  A    between atoms: C_11  and  C_12 
REMARK   10  A    between atoms: C_12  and  C_13 
REMARK   11  A    between atoms: C_13  and  C_14 
REMARK   12  A    between atoms: C_14  and  C_15 
REMARK   13  A    between atoms: C_15  and  C_16 
REMARK   14  A    between atoms: C_16  and  C_17 
REMARK   15  A    between atoms: C_17  and  C_18 
REMARK       I    between atoms: C_18  and  N_20 
REMARK   16  A    between atoms: N_20  and  CA_21 
REMARK   17  A    between atoms: CA_21  and  CB_22 
REMARK   18  A    between atoms: CA_21  and  C_24 
REMARK   19  A    between atoms: CB_22  and  OG_23 
REMARK   20  A    between atoms: C_24  and  O_25 
ROOT
HETATM    1  C   UNK A   0     -21.374  -4.496  -7.053  1.00  0.00     0.000 C 
ENDROOT
BRANCH   1   2
HETATM    2  C   UNK A   0     -20.027  -5.180  -6.883  1.00  0.00     0.000 C 
BRANCH   2   3
HETATM    3  C   UNK A   0     -20.090  -6.224  -5.775  1.00  0.00     0.004 C 
BRANCH   3   4
HETATM    4  C   UNK A   0     -21.462  -6.887  -5.763  1.00  0.00     0.027 C 
BRANCH   4   5
HETATM    5  C   UNK A   0     -22.052  -6.850  -4.392  1.00  0.00    -0.031 C 
HETATM    6  C   UNK A   0     -21.491  -6.169  -3.385  1.00  0.00    -0.031 C 
BRANCH   6   7
HETATM    7  C   UNK A   0     -22.080  -6.128  -2.013  1.00  0.00     0.027 C 
BRANCH   7   8
HETATM    8  C   UNK A   0     -22.295  -7.540  -1.485  1.00  0.00     0.004 C 
BRANCH   8   9
HETATM    9  C   UNK A   0     -21.601  -7.710  -0.139  1.00  0.00     0.000 C 
BRANCH   9  10
HETATM   10  C   UNK A   0     -21.765  -9.135   0.370  1.00  0.00     0.000 C 
BRANCH  10  11
HETATM   11  C   UNK A   0     -23.078  -9.732  -0.121  1.00  0.00     0.000 C 
BRANCH  11  12
HETATM   12  C   UNK A   0     -22.891 -11.195  -0.507  1.00  0.00    -0.000 C 
BRANCH  12  13
HETATM   13  C   UNK A   0     -23.732 -12.106   0.380  1.00  0.00    -0.005 C 
HETATM   14  C   UNK A   0     -22.858 -13.115   1.103  1.00  0.00     0.005 C 
ENDBRANCH  12  13
ENDBRANCH  11  12
ENDBRANCH  10  11
ENDBRANCH   9  10
ENDBRANCH   8   9
ENDBRANCH   7   8
ENDBRANCH   6   7
ENDBRANCH   4   5
ENDBRANCH   3   4
ENDBRANCH   2   3
ENDBRANCH   1   2
BRANCH   1  15
HETATM   15  C   UNK A   0     -21.480  -3.842  -8.428  1.00  0.00     0.000 C 
BRANCH  15  16
HETATM   16  C   UNK A   0     -20.490  -4.491  -9.383  1.00  0.00     0.009 C 
BRANCH  16  17
HETATM   17  C   UNK A   0     -20.371  -3.741 -10.705  1.00  0.00     0.103 C 
BRANCH  17  18
HETATM   18  C   UNK A   0     -21.680  -3.825 -11.474  1.00  0.00     0.218 C 
HETATM   19  O   UNK A   0     -22.250  -4.883 -11.727  1.00  0.00    -0.274 OA
ATOM     20  N   SER A   1     -22.152  -2.593 -11.884  1.00  0.00    -0.352 N 
ATOM     21  H   SER A   1     -21.630  -1.761 -11.619  1.00  0.00     0.163 HD
BRANCH  20  22
ATOM     22  CA  SER A   1     -23.369  -2.480 -12.707  1.00  0.00     0.131 C 
BRANCH  22  23
ATOM     23  CB  SER A   1     -23.073  -2.660 -14.208  1.00  0.00     0.191 C 
BRANCH  23  24
ATOM     24  OG  SER A   1     -23.799  -3.759 -14.768  1.00  0.00    -0.399 OA
ATOM     25  H   SER A   1     -24.509  -3.998 -14.140  1.00  0.00     0.209 HD
ENDBRANCH  23  24
ENDBRANCH  22  23
BRANCH  22  26
ATOM     26  C   SER A   1     -24.496  -3.429 -12.235  1.00  0.00     0.191 C 
BRANCH  26  27
ATOM     27  O   SER A   1     -25.029  -3.138 -10.945  1.00  0.00    -0.399 OA
ATOM     28  H   SER A   1     -24.479  -2.421 -10.564  1.00  0.00     0.209 HD
ENDBRANCH  26  27
ENDBRANCH  22  26
ENDBRANCH  20  22
ENDBRANCH  17  18
ENDBRANCH  16  17
ENDBRANCH  15  16
ENDBRANCH   1  15
TORSDOF 20
ENDMDL
MODEL 5
REMARK VINA RESULT:      -6.9      1.652      3.177
REMARK  20 active torsions:
REMARK  status: ('A' for Active; 'I' for Inactive)
REMARK    1  A    between atoms: C_2  and  C_3 
REMARK    2  A    between atoms: C_3  and  C_4 
REMARK    3  A    between atoms: C_4  and  C_5 
REMARK    4  A    between atoms: C_5  and  C_6 
REMARK    5  A    between atoms: C_6  and  C_7 
REMARK    6  A    between atoms: C_7  and  C_8 
REMARK    7  A    between atoms: C_8  and  C_9 
REMARK    8  A    between atoms: C_10  and  C_11 
REMARK    9  A    between atoms: C_11  and  C_12 
REMARK   10  A    between atoms: C_12  and  C_13 
REMARK   11  A    between atoms: C_13  and  C_14 
REMARK   12  A    between atoms: C_14  and  C_15 
REMARK   13  A    between atoms: C_15  and  C_16 
REMARK   14  A    between atoms: C_16  and  C_17 
REMARK   15  A    between atoms: C_17  and  C_18 
REMARK       I    between atoms: C_18  and  N_20 
REMARK   16  A    between atoms: N_20  and  CA_21 
REMARK   17  A    between atoms: CA_21  and  CB_22 
REMARK   18  A    between atoms: CA_21  and  C_24 
REMARK   19  A    between atoms: CB_22  and  OG_23 
REMARK   20  A    between atoms: C_24  and  O_25 
ROOT
HETATM    1  C   UNK A   0     -20.355  -6.096  -5.905  1.00  0.00     0.000 C 
ENDROOT
BRANCH   1   2
HETATM    2  C   UNK A   0     -21.843  -6.353  -5.729  1.00  0.00     0.000 C 
BRANCH   2   3
HETATM    3  C   UNK A   0     -22.145  -6.817  -4.309  1.00  0.00     0.004 C 
BRANCH   3   4
HETATM    4  C   UNK A   0     -20.903  -7.449  -3.694  1.00  0.00     0.027 C 
BRANCH   4   5
HETATM    5  C   UNK A   0     -20.988  -7.433  -2.204  1.00  0.00    -0.031 C 
HETATM    6  C   UNK A   0     -22.150  -7.317  -1.550  1.00  0.00    -0.031 C 
BRANCH   6   7
HETATM    7  C   UNK A   0     -22.239  -7.303  -0.059  1.00  0.00     0.027 C 
BRANCH   7   8
HETATM    8  C   UNK A   0     -23.215  -8.366   0.426  1.00  0.00     0.004 C 
BRANCH   8   9
HETATM    9  C   UNK A   0     -22.751  -9.748  -0.018  1.00  0.00     0.000 C 
BRANCH   9  10
HETATM   10  C   UNK A   0     -23.925 -10.717  -0.059  1.00  0.00     0.000 C 
BRANCH  10  11
HETATM   11  C   UNK A   0     -23.922 -11.507  -1.361  1.00  0.00     0.000 C 
BRANCH  11  12
HETATM   12  C   UNK A   0     -23.079 -10.799  -2.417  1.00  0.00    -0.000 C 
BRANCH  12  13
HETATM   13  C   UNK A   0     -22.196 -11.791  -3.167  1.00  0.00    -0.005 C 
HETATM   14  C   UNK A   0     -21.572 -11.143  -4.389  1.00  0.00     0.005 C 
ENDBRANCH  12  13
ENDBRANCH  11  12
ENDBRANCH  10  11
ENDBRANCH   9  10
ENDBRANCH   8   9
ENDBRANCH   7   8
ENDBRANCH   6   7
ENDBRANCH   4   5
ENDBRANCH   3   4
ENDBRANCH   2   3
ENDBRANCH   1   2
BRANCH   1  15
HETATM   15  C   UNK A   0     -20.084  -4.611  -6.130  1.00  0.00     0.000 C 
BRANCH  15  16
HETATM   16  C   UNK A   0     -19.436  -4.406  -7.490  1.00  0.00     0.009 C 
BRANCH  16  17
HETATM   17  C   UNK A   0     -20.055  -5.281  -8.574  1.00  0.00     0.103 C 
BRANCH  17  18
HETATM   18  C   UNK A   0     -20.859  -4.427  -9.542  1.00  0.00     0.218 C 
HETATM   19  O   UNK A   0     -20.347  -3.664 -10.357  1.00  0.00    -0.274 OA
ATOM     20  N   SER A   1     -22.225  -4.574  -9.396  1.00  0.00    -0.352 N 
ATOM     21  H   SER A   1     -22.569  -5.241  -8.708  1.00  0.00     0.163 HD
BRANCH  20  22
ATOM     22  CA  SER A   1     -23.166  -3.771 -10.196  1.00  0.00     0.131 C 
BRANCH  22  23
ATOM     23  CB  SER A   1     -23.555  -4.474 -11.510  1.00  0.00     0.191 C 
BRANCH  23  24
ATOM     24  OG  SER A   1     -22.559  -4.302 -12.523  1.00  0.00    -0.399 OA
ATOM     25  H   SER A   1     -22.751  -4.939 -13.240  1.00  0.00     0.209 HD
ENDBRANCH  23  24
ENDBRANCH  22  23
BRANCH  22  26
ATOM     26  C   SER A   1     -24.417  -3.345  -9.392  1.00  0.00     0.191 C 
BRANCH  26  27
ATOM     27  O   SER A   1     -25.618  -3.243 -10.154  1.00  0.00    -0.399 OA
ATOM     28  H   SER A   1     -25.927  -4.159 -10.322  1.00  0.00     0.209 HD
ENDBRANCH  26  27
ENDBRANCH  22  26
ENDBRANCH  20  22
ENDBRANCH  17  18
ENDBRANCH  16  17
ENDBRANCH  15  16
ENDBRANCH   1  15
TORSDOF 20
ENDMDL
MODEL 6
REMARK VINA RESULT:      -6.9      1.111      2.737
REMARK  20 active torsions:
REMARK  status: ('A' for Active; 'I' for Inactive)
REMARK    1  A    between atoms: C_2  and  C_3 
REMARK    2  A    between atoms: C_3  and  C_4 
REMARK    3  A    between atoms: C_4  and  C_5 
REMARK    4  A    between atoms: C_5  and  C_6 
REMARK    5  A    between atoms: C_6  and  C_7 
REMARK    6  A    between atoms: C_7  and  C_8 
REMARK    7  A    between atoms: C_8  and  C_9 
REMARK    8  A    between atoms: C_10  and  C_11 
REMARK    9  A    between atoms: C_11  and  C_12 
REMARK   10  A    between atoms: C_12  and  C_13 
REMARK   11  A    between atoms: C_13  and  C_14 
REMARK   12  A    between atoms: C_14  and  C_15 
REMARK   13  A    between atoms: C_15  and  C_16 
REMARK   14  A    between atoms: C_16  and  C_17 
REMARK   15  A    between atoms: C_17  and  C_18 
REMARK       I    between atoms: C_18  and  N_20 
REMARK   16  A    between atoms: N_20  and  CA_21 
REMARK   17  A    between atoms: CA_21  and  CB_22 
REMARK   18  A    between atoms: CA_21  and  C_24 
REMARK   19  A    between atoms: CB_22  and  OG_23 
REMARK   20  A    between atoms: C_24  and  O_25 
ROOT
HETATM    1  C   UNK A   0     -20.991  -4.061  -7.015  1.00  0.00     0.000 C 
ENDROOT
BRANCH   1   2
HETATM    2  C   UNK A   0     -20.803  -4.989  -5.825  1.00  0.00     0.000 C 
BRANCH   2   3
HETATM    3  C   UNK A   0     -20.896  -6.447  -6.260  1.00  0.00     0.004 C 
BRANCH   3   4
HETATM    4  C   UNK A   0     -20.614  -7.361  -5.075  1.00  0.00     0.027 C 
BRANCH   4   5
HETATM    5  C   UNK A   0     -21.591  -7.111  -3.974  1.00  0.00    -0.031 C 
HETATM    6  C   UNK A   0     -21.215  -6.965  -2.697  1.00  0.00    -0.031 C 
BRANCH   6   7
HETATM    7  C   UNK A   0     -22.190  -6.712  -1.594  1.00  0.00     0.027 C 
BRANCH   7   8
HETATM    8  C   UNK A   0     -21.845  -7.558  -0.376  1.00  0.00     0.004 C 
BRANCH   8   9
HETATM    9  C   UNK A   0     -23.045  -8.399   0.039  1.00  0.00     0.000 C 
BRANCH   9  10
HETATM   10  C   UNK A   0     -22.674  -9.874   0.085  1.00  0.00     0.000 C 
BRANCH  10  11
HETATM   11  C   UNK A   0     -23.727 -10.714  -0.627  1.00  0.00     0.000 C 
BRANCH  11  12
HETATM   12  C   UNK A   0     -23.096 -11.525  -1.754  1.00  0.00    -0.000 C 
BRANCH  12  13
HETATM   13  C   UNK A   0     -22.591 -10.612  -2.866  1.00  0.00    -0.005 C 
HETATM   14  C   UNK A   0     -21.095 -10.778  -3.065  1.00  0.00     0.005 C 
ENDBRANCH  12  13
ENDBRANCH  11  12
ENDBRANCH  10  11
ENDBRANCH   9  10
ENDBRANCH   8   9
ENDBRANCH   7   8
ENDBRANCH   6   7
ENDBRANCH   4   5
ENDBRANCH   3   4
ENDBRANCH   2   3
ENDBRANCH   1   2
BRANCH   1  15
HETATM   15  C   UNK A   0     -20.460  -4.705  -8.293  1.00  0.00     0.000 C 
BRANCH  15  16
HETATM   16  C   UNK A   0     -21.466  -4.521  -9.418  1.00  0.00     0.009 C 
BRANCH  16  17
HETATM   17  C   UNK A   0     -20.801  -4.320 -10.775  1.00  0.00     0.103 C 
BRANCH  17  18
HETATM   18  C   UNK A   0     -21.699  -3.493 -11.681  1.00  0.00     0.218 C 
HETATM   19  O   UNK A   0     -21.662  -2.266 -11.734  1.00  0.00    -0.274 OA
ATOM     20  N   SER A   1     -22.581  -4.257 -12.420  1.00  0.00    -0.352 N 
ATOM     21  H   SER A   1     -22.536  -5.269 -12.332  1.00  0.00     0.163 HD
BRANCH  20  22
ATOM     22  CA  SER A   1     -23.581  -3.627 -13.300  1.00  0.00     0.131 C 
BRANCH  22  23
ATOM     23  CB  SER A   1     -24.639  -2.840 -12.503  1.00  0.00     0.191 C 
BRANCH  23  24
ATOM     24  OG  SER A   1     -24.727  -3.284 -11.146  1.00  0.00    -0.399 OA
ATOM     25  H   SER A   1     -23.880  -3.069 -10.707  1.00  0.00     0.209 HD
ENDBRANCH  23  24
ENDBRANCH  22  23
BRANCH  22  26
ATOM     26  C   SER A   1     -22.938  -2.752 -14.402  1.00  0.00     0.191 C 
BRANCH  26  27
ATOM     27  O   SER A   1     -23.863  -2.056 -15.235  1.00  0.00    -0.399 OA
ATOM     28  H   SER A   1     -23.840  -2.493 -16.114  1.00  0.00     0.209 HD
ENDBRANCH  26  27
ENDBRANCH  22  26
ENDBRANCH  20  22
ENDBRANCH  17  18
ENDBRANCH  16  17
ENDBRANCH  15  16
ENDBRANCH   1  15
TORSDOF 20
ENDMDL
MODEL 7
REMARK VINA RESULT:      -6.6      2.070      3.790
REMARK  20 active torsions:
REMARK  status: ('A' for Active; 'I' for Inactive)
REMARK    1  A    between atoms: C_2  and  C_3 
REMARK    2  A    between atoms: C_3  and  C_4 
REMARK    3  A    between atoms: C_4  and  C_5 
REMARK    4  A    between atoms: C_5  and  C_6 
REMARK    5  A    between atoms: C_6  and  C_7 
REMARK    6  A    between atoms: C_7  and  C_8 
REMARK    7  A    between atoms: C_8  and  C_9 
REMARK    8  A    between atoms: C_10  and  C_11 
REMARK    9  A    between atoms: C_11  and  C_12 
REMARK   10  A    between atoms: C_12  and  C_13 
REMARK   11  A    between atoms: C_13  and  C_14 
REMARK   12  A    between atoms: C_14  and  C_15 
REMARK   13  A    between atoms: C_15  and  C_16 
REMARK   14  A    between atoms: C_16  and  C_17 
REMARK   15  A    between atoms: C_17  and  C_18 
REMARK       I    between atoms: C_18  and  N_20 
REMARK   16  A    between atoms: N_20  and  CA_21 
REMARK   17  A    between atoms: CA_21  and  CB_22 
REMARK   18  A    between atoms: CA_21  and  C_24 
REMARK   19  A    between atoms: CB_22  and  OG_23 
REMARK   20  A    between atoms: C_24  and  O_25 
ROOT
HETATM    1  C   UNK A   0     -20.405  -5.152  -5.222  1.00  0.00     0.000 C 
ENDROOT
BRANCH   1   2
HETATM    2  C   UNK A   0     -20.751  -6.629  -5.120  1.00  0.00     0.000 C 
BRANCH   2   3
HETATM    3  C   UNK A   0     -21.820  -6.859  -4.059  1.00  0.00     0.004 C 
BRANCH   3   4
HETATM    4  C   UNK A   0     -21.522  -6.011  -2.830  1.00  0.00     0.027 C 
BRANCH   4   5
HETATM    5  C   UNK A   0     -22.233  -6.553  -1.633  1.00  0.00    -0.031 C 
HETATM    6  C   UNK A   0     -21.703  -7.498  -0.847  1.00  0.00    -0.031 C 
BRANCH   6   7
HETATM    7  C   UNK A   0     -22.411  -8.041   0.351  1.00  0.00     0.027 C 
BRANCH   7   8
HETATM    8  C   UNK A   0     -21.900  -9.436   0.683  1.00  0.00     0.004 C 
BRANCH   8   9
HETATM    9  C   UNK A   0     -20.955  -9.925  -0.407  1.00  0.00     0.000 C 
BRANCH   9  10
HETATM   10  C   UNK A   0     -20.996 -11.443  -0.507  1.00  0.00     0.000 C 
BRANCH  10  11
HETATM   11  C   UNK A   0     -21.672 -12.043   0.720  1.00  0.00     0.000 C 
BRANCH  11  12
HETATM   12  C   UNK A   0     -21.185 -13.469   0.956  1.00  0.00    -0.000 C 
BRANCH  12  13
HETATM   13  C   UNK A   0     -22.132 -14.224   1.882  1.00  0.00    -0.005 C 
HETATM   14  C   UNK A   0     -23.516 -13.599   1.868  1.00  0.00     0.005 C 
ENDBRANCH  12  13
ENDBRANCH  11  12
ENDBRANCH  10  11
ENDBRANCH   9  10
ENDBRANCH   8   9
ENDBRANCH   7   8
ENDBRANCH   6   7
ENDBRANCH   4   5
ENDBRANCH   3   4
ENDBRANCH   2   3
ENDBRANCH   1   2
BRANCH   1  15
HETATM   15  C   UNK A   0     -20.991  -4.544  -6.493  1.00  0.00     0.000 C 
BRANCH  15  16
HETATM   16  C   UNK A   0     -20.274  -5.107  -7.711  1.00  0.00     0.009 C 
BRANCH  16  17
HETATM   17  C   UNK A   0     -19.935  -4.035  -8.741  1.00  0.00     0.103 C 
BRANCH  17  18
HETATM   18  C   UNK A   0     -20.814  -4.195  -9.971  1.00  0.00     0.218 C 
HETATM   19  O   UNK A   0     -20.422  -4.693 -11.023  1.00  0.00    -0.274 OA
ATOM     20  N   SER A   1     -22.092  -3.701  -9.797  1.00  0.00    -0.352 N 
ATOM     21  H   SER A   1     -22.345  -3.320  -8.888  1.00  0.00     0.163 HD
BRANCH  20  22
ATOM     22  CA  SER A   1     -23.065  -3.701 -10.904  1.00  0.00     0.131 C 
BRANCH  22  23
ATOM     23  CB  SER A   1     -24.503  -3.452 -10.411  1.00  0.00     0.191 C 
BRANCH  23  24
ATOM     24  OG  SER A   1     -25.016  -4.565  -9.673  1.00  0.00    -0.399 OA
ATOM     25  H   SER A   1     -24.923  -4.360  -8.722  1.00  0.00     0.209 HD
ENDBRANCH  23  24
ENDBRANCH  22  23
BRANCH  22  26
ATOM     26  C   SER A   1     -22.678  -2.721 -12.036  1.00  0.00     0.191 C 
BRANCH  26  27
ATOM     27  O   SER A   1     -22.068  -3.326 -13.175  1.00  0.00    -0.399 OA
ATOM     28  H   SER A   1     -22.393  -2.841 -13.964  1.00  0.00     0.209 HD
ENDBRANCH  26  27
ENDBRANCH  22  26
ENDBRANCH  20  22
ENDBRANCH  17  18
ENDBRANCH  16  17
ENDBRANCH  15  16
ENDBRANCH   1  15
TORSDOF 20
ENDMDL
MODEL 8
REMARK VINA RESULT:      -6.3      1.398      1.965
REMARK  20 active torsions:
REMARK  status: ('A' for Active; 'I' for Inactive)
REMARK    1  A    between atoms: C_2  and  C_3 
REMARK    2  A    between atoms: C_3  and  C_4 
REMARK    3  A    between atoms: C_4  and  C_5 
REMARK    4  A    between atoms: C_5  and  C_6 
REMARK    5  A    between atoms: C_6  and  C_7 
REMARK    6  A    between atoms: C_7  and  C_8 
REMARK    7  A    between atoms: C_8  and  C_9 
REMARK    8  A    between atoms: C_10  and  C_11 
REMARK    9  A    between atoms: C_11  and  C_12 
REMARK   10  A    between atoms: C_12  and  C_13 
REMARK   11  A    between atoms: C_13  and  C_14 
REMARK   12  A    between atoms: C_14  and  C_15 
REMARK   13  A    between atoms: C_15  and  C_16 
REMARK   14  A    between atoms: C_16  and  C_17 
REMARK   15  A    between atoms: C_17  and  C_18 
REMARK       I    between atoms: C_18  and  N_20 
REMARK   16  A    between atoms: N_20  and  CA_21 
REMARK   17  A    between atoms: CA_21  and  CB_22 
REMARK   18  A    between atoms: CA_21  and  C_24 
REMARK   19  A    between atoms: CB_22  and  OG_23 
REMARK   20  A    between atoms: C_24  and  O_25 
ROOT
HETATM    1  C   UNK A   0     -20.292  -4.281  -6.912  1.00  0.00     0.000 C 
ENDROOT
BRANCH   1   2
HETATM    2  C   UNK A   0     -20.444  -5.118  -5.652  1.00  0.00     0.000 C 
BRANCH   2   3
HETATM    3  C   UNK A   0     -21.733  -5.929  -5.697  1.00  0.00     0.004 C 
BRANCH   3   4
HETATM    4  C   UNK A   0     -21.945  -6.642  -4.368  1.00  0.00     0.027 C 
BRANCH   4   5
HETATM    5  C   UNK A   0     -20.863  -7.642  -4.130  1.00  0.00    -0.031 C 
HETATM    6  C   UNK A   0     -20.455  -7.984  -2.901  1.00  0.00    -0.031 C 
BRANCH   6   7
HETATM    7  C   UNK A   0     -19.374  -8.986  -2.659  1.00  0.00     0.027 C 
BRANCH   7   8
HETATM    8  C   UNK A   0     -19.944 -10.397  -2.670  1.00  0.00     0.004 C 
BRANCH   8   9
HETATM    9  C   UNK A   0     -20.291 -10.836  -1.252  1.00  0.00     0.000 C 
BRANCH   9  10
HETATM   10  C   UNK A   0     -21.714 -11.373  -1.194  1.00  0.00     0.000 C 
BRANCH  10  11
HETATM   11  C   UNK A   0     -22.722 -10.239  -1.338  1.00  0.00     0.000 C 
BRANCH  11  12
HETATM   12  C   UNK A   0     -23.413  -9.963  -0.007  1.00  0.00    -0.000 C 
BRANCH  12  13
HETATM   13  C   UNK A   0     -23.301  -8.490   0.372  1.00  0.00    -0.005 C 
HETATM   14  C   UNK A   0     -21.847  -8.074   0.506  1.00  0.00     0.005 C 
ENDBRANCH  12  13
ENDBRANCH  11  12
ENDBRANCH  10  11
ENDBRANCH   9  10
ENDBRANCH   8   9
ENDBRANCH   7   8
ENDBRANCH   6   7
ENDBRANCH   4   5
ENDBRANCH   3   4
ENDBRANCH   2   3
ENDBRANCH   1   2
BRANCH   1  15
HETATM   15  C   UNK A   0     -20.121  -5.174  -8.138  1.00  0.00     0.000 C 
BRANCH  15  16
HETATM   16  C   UNK A   0     -21.133  -4.784  -9.204  1.00  0.00     0.009 C 
BRANCH  16  17
HETATM   17  C   UNK A   0     -20.476  -4.382 -10.520  1.00  0.00     0.103 C 
BRANCH  17  18
HETATM   18  C   UNK A   0     -21.468  -3.628 -11.391  1.00  0.00     0.218 C 
HETATM   19  O   UNK A   0     -21.453  -2.408 -11.535  1.00  0.00    -0.274 OA
ATOM     20  N   SER A   1     -22.407  -4.449 -11.985  1.00  0.00    -0.352 N 
ATOM     21  H   SER A   1     -22.341  -5.452 -11.829  1.00  0.00     0.163 HD
BRANCH  20  22
ATOM     22  CA  SER A   1     -23.495  -3.891 -12.806  1.00  0.00     0.131 C 
BRANCH  22  23
ATOM     23  CB  SER A   1     -24.564  -3.185 -11.950  1.00  0.00     0.191 C 
BRANCH  23  24
ATOM     24  OG  SER A   1     -25.694  -2.784 -12.729  1.00  0.00    -0.399 OA
ATOM     25  H   SER A   1     -26.454  -3.334 -12.456  1.00  0.00     0.209 HD
ENDBRANCH  23  24
ENDBRANCH  22  23
BRANCH  22  26
ATOM     26  C   SER A   1     -22.976  -2.968 -13.935  1.00  0.00     0.191 C 
BRANCH  26  27
ATOM     27  O   SER A   1     -23.418  -1.614 -13.858  1.00  0.00    -0.399 OA
ATOM     28  H   SER A   1     -22.632  -1.049 -14.017  1.00  0.00     0.209 HD
ENDBRANCH  26  27
ENDBRANCH  22  26
ENDBRANCH  20  22
ENDBRANCH  17  18
ENDBRANCH  16  17
ENDBRANCH  15  16
ENDBRANCH   1  15
TORSDOF 20
ENDMDL
MODEL 9
REMARK VINA RESULT:      -6.3      1.811      3.547
REMARK  20 active torsions:
REMARK  status: ('A' for Active; 'I' for Inactive)
REMARK    1  A    between atoms: C_2  and  C_3 
REMARK    2  A    between atoms: C_3  and  C_4 
REMARK    3  A    between atoms: C_4  and  C_5 
REMARK    4  A    between atoms: C_5  and  C_6 
REMARK    5  A    between atoms: C_6  and  C_7 
REMARK    6  A    between atoms: C_7  and  C_8 
REMARK    7  A    between atoms: C_8  and  C_9 
REMARK    8  A    between atoms: C_10  and  C_11 
REMARK    9  A    between atoms: C_11  and  C_12 
REMARK   10  A    between atoms: C_12  and  C_13 
REMARK   11  A    between atoms: C_13  and  C_14 
REMARK   12  A    between atoms: C_14  and  C_15 
REMARK   13  A    between atoms: C_15  and  C_16 
REMARK   14  A    between atoms: C_16  and  C_17 
REMARK   15  A    between atoms: C_17  and  C_18 
REMARK       I    between atoms: C_18  and  N_20 
REMARK   16  A    between atoms: N_20  and  CA_21 
REMARK   17  A    between atoms: CA_21  and  CB_22 
REMARK   18  A    between atoms: CA_21  and  C_24 
REMARK   19  A    between atoms: CB_22  and  OG_23 
REMARK   20  A    between atoms: C_24  and  O_25 
ROOT
HETATM    1  C   UNK A   0     -21.004  -6.253  -4.898  1.00  0.00     0.000 C 
ENDROOT
BRANCH   1   2
HETATM    2  C   UNK A   0     -21.181  -5.817  -3.452  1.00  0.00     0.000 C 
BRANCH   2   3
HETATM    3  C   UNK A   0     -21.565  -7.003  -2.577  1.00  0.00     0.004 C 
BRANCH   3   4
HETATM    4  C   UNK A   0     -22.341  -6.519  -1.359  1.00  0.00     0.027 C 
BRANCH   4   5
HETATM    5  C   UNK A   0     -22.253  -7.515  -0.250  1.00  0.00    -0.031 C 
HETATM    6  C   UNK A   0     -21.197  -8.322  -0.089  1.00  0.00    -0.031 C 
BRANCH   6   7
HETATM    7  C   UNK A   0     -21.104  -9.318   1.020  1.00  0.00     0.027 C 
BRANCH   7   8
HETATM    8  C   UNK A   0     -21.236 -10.734   0.477  1.00  0.00     0.004 C 
BRANCH   8   9
HETATM    9  C   UNK A   0     -20.725 -10.797  -0.957  1.00  0.00     0.000 C 
BRANCH   9  10
HETATM   10  C   UNK A   0     -19.277 -11.266  -0.988  1.00  0.00     0.000 C 
BRANCH  10  11
HETATM   11  C   UNK A   0     -18.646 -10.968  -2.342  1.00  0.00     0.000 C 
BRANCH  11  12
HETATM   12  C   UNK A   0     -18.640  -9.467  -2.613  1.00  0.00    -0.000 C 
BRANCH  12  13
HETATM   13  C   UNK A   0     -18.864  -9.178  -4.093  1.00  0.00    -0.005 C 
HETATM   14  C   UNK A   0     -20.122  -9.863  -4.595  1.00  0.00     0.005 C 
ENDBRANCH  12  13
ENDBRANCH  11  12
ENDBRANCH  10  11
ENDBRANCH   9  10
ENDBRANCH   8   9
ENDBRANCH   7   8
ENDBRANCH   6   7
ENDBRANCH   4   5
ENDBRANCH   3   4
ENDBRANCH   2   3
ENDBRANCH   1   2
BRANCH   1  15
HETATM   15  C   UNK A   0     -20.326  -5.156  -5.715  1.00  0.00     0.000 C 
BRANCH  15  16
HETATM   16  C   UNK A   0     -21.170  -4.828  -6.937  1.00  0.00     0.009 C 
BRANCH  16  17
HETATM   17  C   UNK A   0     -20.385  -4.088  -8.013  1.00  0.00     0.103 C 
BRANCH  17  18
HETATM   18  C   UNK A   0     -21.119  -4.165  -9.343  1.00  0.00     0.218 C 
HETATM   19  O   UNK A   0     -20.650  -4.699 -10.345  1.00  0.00    -0.274 OA
ATOM     20  N   SER A   1     -22.356  -3.550  -9.320  1.00  0.00    -0.352 N 
ATOM     21  H   SER A   1     -22.679  -3.145  -8.445  1.00  0.00     0.163 HD
BRANCH  20  22
ATOM     22  CA  SER A   1     -23.182  -3.458 -10.537  1.00  0.00     0.131 C 
BRANCH  22  23
ATOM     23  CB  SER A   1     -22.471  -2.683 -11.662  1.00  0.00     0.191 C 
BRANCH  23  24
ATOM     24  OG  SER A   1     -23.398  -2.158 -12.618  1.00  0.00    -0.399 OA
ATOM     25  H   SER A   1     -24.202  -1.885 -12.134  1.00  0.00     0.209 HD
ENDBRANCH  23  24
ENDBRANCH  22  23
BRANCH  22  26
ATOM     26  C   SER A   1     -23.675  -4.840 -11.027  1.00  0.00     0.191 C 
BRANCH  26  27
ATOM     27  O   SER A   1     -23.262  -5.195 -12.345  1.00  0.00    -0.399 OA
ATOM     28  H   SER A   1     -22.729  -4.445 -12.688  1.00  0.00     0.209 HD
ENDBRANCH  26  27
ENDBRANCH  22  26
ENDBRANCH  20  22
ENDBRANCH  17  18
ENDBRANCH  16  17
ENDBRANCH  15  16
ENDBRANCH   1  15
TORSDOF 20
ENDMDL
