MODEL 1
REMARK VINA RESULT:      -1.3      0.000      0.000
REMARK  12 active torsions:
REMARK  status: ('A' for Active; 'I' for Inactive)
REMARK    1  A    between atoms: C_1  and  C_2 
REMARK    2  A    between atoms: C_1  and  N_12 
REMARK    3  A    between atoms: C_2  and  N_3 
REMARK    4  A    between atoms: N_3  and  C_4 
REMARK    5  A    between atoms: N_3  and  C_8 
REMARK    6  A    between atoms: C_4  and  C_5 
REMARK    7  A    between atoms: C_8  and  C_9 
REMARK    8  A    between atoms: N_12  and  C_13 
REMARK    9  A    between atoms: N_12  and  C_17 
REMARK   10  A    between atoms: C_13  and  C_14 
REMARK   11  A    between atoms: C_17  and  C_18 
REMARK   12  A    between atoms: C_18  and  O_19 
ROOT
HETATM    1 NA   UNL     3     -32.324  -8.576   4.529  1.00  0.00     0.000 Na
ENDROOT
TORSDOF 12
ENDMDL
MODEL 2
REMARK VINA RESULT:      -1.3     23.494     23.494
REMARK  12 active torsions:
REMARK  status: ('A' for Active; 'I' for Inactive)
REMARK    1  A    between atoms: C_1  and  C_2 
REMARK    2  A    between atoms: C_1  and  N_12 
REMARK    3  A    between atoms: C_2  and  N_3 
REMARK    4  A    between atoms: N_3  and  C_4 
REMARK    5  A    between atoms: N_3  and  C_8 
REMARK    6  A    between atoms: C_4  and  C_5 
REMARK    7  A    between atoms: C_8  and  C_9 
REMARK    8  A    between atoms: N_12  and  C_13 
REMARK    9  A    between atoms: N_12  and  C_17 
REMARK   10  A    between atoms: C_13  and  C_14 
REMARK   11  A    between atoms: C_17  and  C_18 
REMARK   12  A    between atoms: C_18  and  O_19 
ROOT
HETATM    1 NA   UNL     3     -11.257   1.620   2.468  1.00  0.00     0.000 Na
ENDROOT
TORSDOF 12
ENDMDL
MODEL 3
REMARK VINA RESULT:      -1.2     19.033     19.033
REMARK  12 active torsions:
REMARK  status: ('A' for Active; 'I' for Inactive)
REMARK    1  A    between atoms: C_1  and  C_2 
REMARK    2  A    between atoms: C_1  and  N_12 
REMARK    3  A    between atoms: C_2  and  N_3 
REMARK    4  A    between atoms: N_3  and  C_4 
REMARK    5  A    between atoms: N_3  and  C_8 
REMARK    6  A    between atoms: C_4  and  C_5 
REMARK    7  A    between atoms: C_8  and  C_9 
REMARK    8  A    between atoms: N_12  and  C_13 
REMARK    9  A    between atoms: N_12  and  C_17 
REMARK   10  A    between atoms: C_13  and  C_14 
REMARK   11  A    between atoms: C_17  and  C_18 
REMARK   12  A    between atoms: C_18  and  O_19 
ROOT
HETATM    1 NA   UNL     3     -27.015 -13.665 -13.026  1.00  0.00     0.000 Na
ENDROOT
TORSDOF 12
ENDMDL
MODEL 4
REMARK VINA RESULT:      -1.2     22.209     22.209
REMARK  12 active torsions:
REMARK  status: ('A' for Active; 'I' for Inactive)
REMARK    1  A    between atoms: C_1  and  C_2 
REMARK    2  A    between atoms: C_1  and  N_12 
REMARK    3  A    between atoms: C_2  and  N_3 
REMARK    4  A    between atoms: N_3  and  C_4 
REMARK    5  A    between atoms: N_3  and  C_8 
REMARK    6  A    between atoms: C_4  and  C_5 
REMARK    7  A    between atoms: C_8  and  C_9 
REMARK    8  A    between atoms: N_12  and  C_13 
REMARK    9  A    between atoms: N_12  and  C_17 
REMARK   10  A    between atoms: C_13  and  C_14 
REMARK   11  A    between atoms: C_17  and  C_18 
REMARK   12  A    between atoms: C_18  and  O_19 
ROOT
HETATM    1 NA   UNL     3     -25.113   0.407 -14.459  1.00  0.00     0.000 Na
ENDROOT
TORSDOF 12
ENDMDL
MODEL 5
REMARK VINA RESULT:      -1.2     14.857     14.857
REMARK  12 active torsions:
REMARK  status: ('A' for Active; 'I' for Inactive)
REMARK    1  A    between atoms: C_1  and  C_2 
REMARK    2  A    between atoms: C_1  and  N_12 
REMARK    3  A    between atoms: C_2  and  N_3 
REMARK    4  A    between atoms: N_3  and  C_4 
REMARK    5  A    between atoms: N_3  and  C_8 
REMARK    6  A    between atoms: C_4  and  C_5 
REMARK    7  A    between atoms: C_8  and  C_9 
REMARK    8  A    between atoms: N_12  and  C_13 
REMARK    9  A    between atoms: N_12  and  C_17 
REMARK   10  A    between atoms: C_13  and  C_14 
REMARK   11  A    between atoms: C_17  and  C_18 
REMARK   12  A    between atoms: C_18  and  O_19 
ROOT
HETATM    1 NA   UNL     3     -27.307  -5.634  -9.142  1.00  0.00     0.000 Na
ENDROOT
TORSDOF 12
ENDMDL
MODEL 6
REMARK VINA RESULT:      -1.1     27.170     27.170
REMARK  12 active torsions:
REMARK  status: ('A' for Active; 'I' for Inactive)
REMARK    1  A    between atoms: C_1  and  C_2 
REMARK    2  A    between atoms: C_1  and  N_12 
REMARK    3  A    between atoms: C_2  and  N_3 
REMARK    4  A    between atoms: N_3  and  C_4 
REMARK    5  A    between atoms: N_3  and  C_8 
REMARK    6  A    between atoms: C_4  and  C_5 
REMARK    7  A    between atoms: C_8  and  C_9 
REMARK    8  A    between atoms: N_12  and  C_13 
REMARK    9  A    between atoms: N_12  and  C_17 
REMARK   10  A    between atoms: C_13  and  C_14 
REMARK   11  A    between atoms: C_17  and  C_18 
REMARK   12  A    between atoms: C_18  and  O_19 
ROOT
HETATM    1 NA   UNL     3     -11.563   1.299  -9.953  1.00  0.00     0.000 Na
ENDROOT
TORSDOF 12
ENDMDL
MODEL 7
REMARK VINA RESULT:      -1.0      9.903      9.903
REMARK  12 active torsions:
REMARK  status: ('A' for Active; 'I' for Inactive)
REMARK    1  A    between atoms: C_1  and  C_2 
REMARK    2  A    between atoms: C_1  and  N_12 
REMARK    3  A    between atoms: C_2  and  N_3 
REMARK    4  A    between atoms: N_3  and  C_4 
REMARK    5  A    between atoms: N_3  and  C_8 
REMARK    6  A    between atoms: C_4  and  C_5 
REMARK    7  A    between atoms: C_8  and  C_9 
REMARK    8  A    between atoms: N_12  and  C_13 
REMARK    9  A    between atoms: N_12  and  C_17 
REMARK   10  A    between atoms: C_13  and  C_14 
REMARK   11  A    between atoms: C_17  and  C_18 
REMARK   12  A    between atoms: C_18  and  O_19 
ROOT
HETATM    1 NA   UNL     3     -32.732  -6.045  -5.036  1.00  0.00     0.000 Na
ENDROOT
TORSDOF 12
ENDMDL
MODEL 8
REMARK VINA RESULT:      -1.0     15.718     15.718
REMARK  12 active torsions:
REMARK  status: ('A' for Active; 'I' for Inactive)
REMARK    1  A    between atoms: C_1  and  C_2 
REMARK    2  A    between atoms: C_1  and  N_12 
REMARK    3  A    between atoms: C_2  and  N_3 
REMARK    4  A    between atoms: N_3  and  C_4 
REMARK    5  A    between atoms: N_3  and  C_8 
REMARK    6  A    between atoms: C_4  and  C_5 
REMARK    7  A    between atoms: C_8  and  C_9 
REMARK    8  A    between atoms: N_12  and  C_13 
REMARK    9  A    between atoms: N_12  and  C_17 
REMARK   10  A    between atoms: C_13  and  C_14 
REMARK   11  A    between atoms: C_17  and  C_18 
REMARK   12  A    between atoms: C_18  and  O_19 
ROOT
HETATM    1 NA   UNL     3     -26.952  -3.578  -9.372  1.00  0.00     0.000 Na
ENDROOT
TORSDOF 12
ENDMDL
MODEL 9
REMARK VINA RESULT:      -1.0     24.995     24.995
REMARK  12 active torsions:
REMARK  status: ('A' for Active; 'I' for Inactive)
REMARK    1  A    between atoms: C_1  and  C_2 
REMARK    2  A    between atoms: C_1  and  N_12 
REMARK    3  A    between atoms: C_2  and  N_3 
REMARK    4  A    between atoms: N_3  and  C_4 
REMARK    5  A    between atoms: N_3  and  C_8 
REMARK    6  A    between atoms: C_4  and  C_5 
REMARK    7  A    between atoms: C_8  and  C_9 
REMARK    8  A    between atoms: N_12  and  C_13 
REMARK    9  A    between atoms: N_12  and  C_17 
REMARK   10  A    between atoms: C_13  and  C_14 
REMARK   11  A    between atoms: C_17  and  C_18 
REMARK   12  A    between atoms: C_18  and  O_19 
ROOT
HETATM    1 NA   UNL     3     -23.031  -0.065 -17.057  1.00  0.00     0.000 Na
ENDROOT
TORSDOF 12
ENDMDL
