MODEL 1
REMARK VINA RESULT:      -9.4      0.000      0.000
REMARK  4 active torsions:
REMARK  status: ('A' for Active; 'I' for Inactive)
REMARK    1  A    between atoms: C_5  and  C_6 
REMARK    2  A    between atoms: C_5  and  C_14 
REMARK    3  A    between atoms: C_9  and  N_12 
REMARK    4  A    between atoms: C_17  and  N_20 
ROOT
HETATM    1  C   UNL     1     -20.824 -10.021   0.043  1.00  0.00     0.050 C 
HETATM    2  C   UNL     1     -21.203  -8.863  -0.842  1.00  0.00    -0.035 A 
HETATM    3  C   UNL     1     -20.779  -8.851  -2.114  1.00  0.00     0.021 A 
HETATM    4  C   UNL     1     -21.095  -7.723  -3.033  1.00  0.00    -0.024 A 
HETATM    5  C   UNL     1     -20.736  -7.779  -4.342  1.00  0.00    -0.005 C 
HETATM    6  C   UNL     1     -21.842  -6.553  -2.473  1.00  0.00     0.014 A 
HETATM    7  C   UNL     1     -22.292  -6.569  -1.210  1.00  0.00     0.030 A 
HETATM    8  C   UNL     1     -22.034  -7.736  -0.332  1.00  0.00     0.031 A 
HETATM    9  N   UNL     1     -22.548  -7.787   0.847  1.00  0.00    -0.399 N 
ATOM     10  HN  UNL     1     -22.355  -8.596   1.437  1.00  0.00     0.156 HD
HETATM   11  H   UNL     1     -23.149  -7.033   1.210  1.00  0.00     0.156 HD
ENDROOT
BRANCH   5  12
HETATM   12  C   UNL     1     -21.085  -6.698  -5.277  1.00  0.00    -0.024 A 
HETATM   13  C   UNL     1     -20.079  -6.044  -5.996  1.00  0.00     0.021 A 
HETATM   14  C   UNL     1     -20.395  -4.995  -6.874  1.00  0.00    -0.035 A 
HETATM   15  C   UNL     1     -21.748  -4.603  -7.027  1.00  0.00     0.031 A 
HETATM   16  C   UNL     1     -19.288  -4.308  -7.625  1.00  0.00     0.050 C 
HETATM   17  C   UNL     1     -22.746  -5.271  -6.300  1.00  0.00     0.030 A 
HETATM   18  C   UNL     1     -22.418  -6.309  -5.432  1.00  0.00     0.014 A 
BRANCH  15  19
HETATM   19  N   UNL     1     -22.122  -3.545  -7.896  1.00  0.00    -0.399 N 
HETATM   20  H   UNL     1     -21.996  -3.608  -8.916  1.00  0.00     0.156 HD
HETATM   21  H   UNL     1     -22.531  -2.679  -7.515  1.00  0.00     0.156 HD
ENDBRANCH  15  19
ENDBRANCH   5  12
BRANCH   5  22
HETATM   22  C   UNL     1     -20.130  -9.001  -4.916  1.00  0.00    -0.024 A 
HETATM   23  C   UNL     1     -18.743  -9.147  -5.040  1.00  0.00     0.021 A 
HETATM   24  C   UNL     1     -18.198 -10.337  -5.565  1.00  0.00    -0.035 A 
HETATM   25  C   UNL     1     -19.066 -11.383  -5.960  1.00  0.00     0.031 A 
HETATM   26  C   UNL     1     -16.705 -10.474  -5.691  1.00  0.00     0.050 C 
HETATM   27  C   UNL     1     -20.451 -11.222  -5.823  1.00  0.00     0.030 A 
HETATM   28  C   UNL     1     -20.977 -10.042  -5.306  1.00  0.00     0.014 A 
BRANCH  25  29
HETATM   29  N   UNL     1     -18.570 -12.605  -6.494  1.00  0.00    -0.399 N 
HETATM   30  H   UNL     1     -19.142 -13.205  -7.102  1.00  0.00     0.156 HD
HETATM   31  H   UNL     1     -17.615 -12.919  -6.271  1.00  0.00     0.156 HD
ENDBRANCH  25  29
ENDBRANCH   5  22
TORSDOF 4
ENDMDL
MODEL 2
REMARK VINA RESULT:      -9.3      0.375      1.435
REMARK  4 active torsions:
REMARK  status: ('A' for Active; 'I' for Inactive)
REMARK    1  A    between atoms: C_5  and  C_6 
REMARK    2  A    between atoms: C_5  and  C_14 
REMARK    3  A    between atoms: C_9  and  N_12 
REMARK    4  A    between atoms: C_17  and  N_20 
ROOT
HETATM    1  C   UNL     1     -21.012 -10.121   0.063  1.00  0.00     0.050 C 
HETATM    2  C   UNL     1     -21.332  -8.940  -0.813  1.00  0.00    -0.035 A 
HETATM    3  C   UNL     1     -20.921  -8.947  -2.089  1.00  0.00     0.021 A 
HETATM    4  C   UNL     1     -21.181  -7.798  -3.000  1.00  0.00    -0.024 A 
HETATM    5  C   UNL     1     -20.839  -7.869  -4.314  1.00  0.00    -0.005 C 
HETATM    6  C   UNL     1     -21.854  -6.590  -2.428  1.00  0.00     0.014 A 
HETATM    7  C   UNL     1     -22.292  -6.586  -1.161  1.00  0.00     0.030 A 
HETATM    8  C   UNL     1     -22.092  -7.770  -0.290  1.00  0.00     0.031 A 
HETATM    9  N   UNL     1     -22.596  -7.797   0.894  1.00  0.00    -0.399 N 
ATOM     10  HN  UNL     1     -22.444  -8.618   1.479  1.00  0.00     0.156 HD
HETATM   11  H   UNL     1     -23.150  -7.011   1.266  1.00  0.00     0.156 HD
ENDROOT
BRANCH   5  12
HETATM   12  C   UNL     1     -21.135  -6.765  -5.240  1.00  0.00    -0.024 A 
HETATM   13  C   UNL     1     -20.091  -6.107  -5.900  1.00  0.00     0.021 A 
HETATM   14  C   UNL     1     -20.356  -5.038  -6.769  1.00  0.00    -0.035 A 
HETATM   15  C   UNL     1     -21.698  -4.628  -6.975  1.00  0.00     0.031 A 
HETATM   16  C   UNL     1     -19.210  -4.348  -7.455  1.00  0.00     0.050 C 
HETATM   17  C   UNL     1     -22.734  -5.300  -6.308  1.00  0.00     0.030 A 
HETATM   18  C   UNL     1     -22.456  -6.359  -5.447  1.00  0.00     0.014 A 
BRANCH  15  19
HETATM   19  N   UNL     1     -22.022  -3.549  -7.838  1.00  0.00    -0.399 N 
HETATM   20  H   UNL     1     -22.824  -3.589  -8.482  1.00  0.00     0.156 HD
HETATM   21  H   UNL     1     -21.448  -2.693  -7.836  1.00  0.00     0.156 HD
ENDBRANCH  15  19
ENDBRANCH   5  12
BRANCH   5  22
HETATM   22  C   UNL     1     -20.309  -9.120  -4.898  1.00  0.00    -0.024 A 
HETATM   23  C   UNL     1     -21.154 -10.093  -5.447  1.00  0.00     0.021 A 
HETATM   24  C   UNL     1     -20.613 -11.261  -6.022  1.00  0.00    -0.035 A 
HETATM   25  C   UNL     1     -19.208 -11.438  -6.043  1.00  0.00     0.031 A 
HETATM   26  C   UNL     1     -21.537 -12.295  -6.606  1.00  0.00     0.050 C 
HETATM   27  C   UNL     1     -18.378 -10.452  -5.495  1.00  0.00     0.030 A 
HETATM   28  C   UNL     1     -18.924  -9.304  -4.927  1.00  0.00     0.014 A 
BRANCH  25  29
HETATM   29  N   UNL     1     -18.609 -12.597  -6.612  1.00  0.00    -0.399 N 
HETATM   30  H   UNL     1     -18.456 -12.688  -7.625  1.00  0.00     0.156 HD
HETATM   31  H   UNL     1     -18.319 -13.380  -6.010  1.00  0.00     0.156 HD
ENDBRANCH  25  29
ENDBRANCH   5  22
TORSDOF 4
ENDMDL
MODEL 3
REMARK VINA RESULT:      -8.7      1.835      5.627
REMARK  4 active torsions:
REMARK  status: ('A' for Active; 'I' for Inactive)
REMARK    1  A    between atoms: C_5  and  C_6 
REMARK    2  A    between atoms: C_5  and  C_14 
REMARK    3  A    between atoms: C_9  and  N_12 
REMARK    4  A    between atoms: C_17  and  N_20 
ROOT
HETATM    1  C   UNL     1     -19.542  -5.557  -7.747  1.00  0.00     0.050 C 
HETATM    2  C   UNL     1     -20.468  -6.069  -6.676  1.00  0.00    -0.035 A 
HETATM    3  C   UNL     1     -20.140  -7.188  -6.014  1.00  0.00     0.021 A 
HETATM    4  C   UNL     1     -21.026  -7.763  -4.964  1.00  0.00    -0.024 A 
HETATM    5  C   UNL     1     -20.627  -8.843  -4.241  1.00  0.00    -0.005 C 
HETATM    6  C   UNL     1     -22.342  -7.094  -4.716  1.00  0.00     0.014 A 
HETATM    7  C   UNL     1     -22.665  -5.961  -5.353  1.00  0.00     0.030 A 
HETATM    8  C   UNL     1     -21.735  -5.360  -6.342  1.00  0.00     0.031 A 
HETATM    9  N   UNL     1     -22.008  -4.224  -6.881  1.00  0.00    -0.399 N 
ATOM     10  HN  UNL     1     -21.358  -3.830  -7.562  1.00  0.00     0.156 HD
HETATM   11  H   UNL     1     -22.865  -3.702  -6.644  1.00  0.00     0.156 HD
ENDROOT
BRANCH   5  12
HETATM   12  C   UNL     1     -21.465  -9.393  -3.164  1.00  0.00    -0.024 A 
HETATM   13  C   UNL     1     -21.560  -8.720  -1.940  1.00  0.00     0.021 A 
HETATM   14  C   UNL     1     -22.338  -9.245  -0.896  1.00  0.00    -0.035 A 
HETATM   15  C   UNL     1     -23.030 -10.466  -1.092  1.00  0.00     0.031 A 
HETATM   16  C   UNL     1     -22.412  -8.501   0.409  1.00  0.00     0.050 C 
HETATM   17  C   UNL     1     -22.926 -11.127  -2.327  1.00  0.00     0.030 A 
HETATM   18  C   UNL     1     -22.150 -10.596  -3.354  1.00  0.00     0.014 A 
BRANCH  15  19
HETATM   19  N   UNL     1     -23.825 -11.044  -0.069  1.00  0.00    -0.399 N 
HETATM   20  H   UNL     1     -24.478 -11.817  -0.257  1.00  0.00     0.156 HD
HETATM   21  H   UNL     1     -23.762 -10.692   0.898  1.00  0.00     0.156 HD
ENDBRANCH  15  19
ENDBRANCH   5  12
BRANCH   5  22
HETATM   22  C   UNL     1     -19.266  -9.404  -4.394  1.00  0.00    -0.024 A 
HETATM   23  C   UNL     1     -18.267  -9.185  -3.438  1.00  0.00     0.021 A 
HETATM   24  C   UNL     1     -16.990  -9.759  -3.601  1.00  0.00    -0.035 A 
HETATM   25  C   UNL     1     -16.729 -10.562  -4.739  1.00  0.00     0.031 A 
HETATM   26  C   UNL     1     -15.929  -9.511  -2.564  1.00  0.00     0.050 C 
HETATM   27  C   UNL     1     -17.743 -10.775  -5.681  1.00  0.00     0.030 A 
HETATM   28  C   UNL     1     -18.999 -10.201  -5.511  1.00  0.00     0.014 A 
BRANCH  25  29
HETATM   29  N   UNL     1     -15.459 -11.166  -4.952  1.00  0.00    -0.399 N 
HETATM   30  H   UNL     1     -14.722 -10.704  -5.500  1.00  0.00     0.156 HD
HETATM   31  H   UNL     1     -15.255 -12.097  -4.561  1.00  0.00     0.156 HD
ENDBRANCH  25  29
ENDBRANCH   5  22
TORSDOF 4
ENDMDL
MODEL 4
REMARK VINA RESULT:      -8.3      0.982      5.180
REMARK  4 active torsions:
REMARK  status: ('A' for Active; 'I' for Inactive)
REMARK    1  A    between atoms: C_5  and  C_6 
REMARK    2  A    between atoms: C_5  and  C_14 
REMARK    3  A    between atoms: C_9  and  N_12 
REMARK    4  A    between atoms: C_17  and  N_20 
ROOT
HETATM    1  C   UNL     1     -22.622  -7.063  -0.282  1.00  0.00     0.050 C 
HETATM    2  C   UNL     1     -21.744  -8.080  -0.960  1.00  0.00    -0.035 A 
HETATM    3  C   UNL     1     -21.533  -7.980  -2.280  1.00  0.00     0.021 A 
HETATM    4  C   UNL     1     -20.697  -8.970  -3.015  1.00  0.00    -0.024 A 
HETATM    5  C   UNL     1     -20.420  -8.793  -4.334  1.00  0.00    -0.005 C 
HETATM    6  C   UNL     1     -20.155 -10.135  -2.248  1.00  0.00     0.014 A 
HETATM    7  C   UNL     1     -20.339 -10.227  -0.923  1.00  0.00     0.030 A 
HETATM    8  C   UNL     1     -21.110  -9.190  -0.194  1.00  0.00     0.031 A 
HETATM    9  N   UNL     1     -21.204  -9.234   1.088  1.00  0.00    -0.399 N 
ATOM     10  HN  UNL     1     -21.742  -8.514   1.571  1.00  0.00     0.156 HD
HETATM   11  H   UNL     1     -20.750  -9.976   1.641  1.00  0.00     0.156 HD
ENDROOT
BRANCH   5  12
HETATM   12  C   UNL     1     -19.554  -9.732  -5.064  1.00  0.00    -0.024 A 
HETATM   13  C   UNL     1     -18.168  -9.541  -5.074  1.00  0.00     0.021 A 
HETATM   14  C   UNL     1     -17.332 -10.415  -5.785  1.00  0.00    -0.035 A 
HETATM   15  C   UNL     1     -17.905 -11.499  -6.497  1.00  0.00     0.031 A 
HETATM   16  C   UNL     1     -15.847 -10.176  -5.781  1.00  0.00     0.050 C 
HETATM   17  C   UNL     1     -19.297 -11.678  -6.474  1.00  0.00     0.030 A 
HETATM   18  C   UNL     1     -20.116 -10.802  -5.765  1.00  0.00     0.014 A 
BRANCH  15  19
HETATM   19  N   UNL     1     -17.106 -12.409  -7.237  1.00  0.00    -0.399 N 
HETATM   20  H   UNL     1     -16.819 -13.319  -6.851  1.00  0.00     0.156 HD
HETATM   21  H   UNL     1     -16.792 -12.169  -8.188  1.00  0.00     0.156 HD
ENDBRANCH  15  19
ENDBRANCH   5  12
BRANCH   5  22
HETATM   22  C   UNL     1     -20.839  -7.565  -5.044  1.00  0.00    -0.024 A 
HETATM   23  C   UNL     1     -19.936  -6.805  -5.798  1.00  0.00     0.021 A 
HETATM   24  C   UNL     1     -20.375  -5.656  -6.486  1.00  0.00    -0.035 A 
HETATM   25  C   UNL     1     -21.739  -5.280  -6.411  1.00  0.00     0.031 A 
HETATM   26  C   UNL     1     -19.389  -4.852  -7.288  1.00  0.00     0.050 C 
HETATM   27  C   UNL     1     -22.629  -6.056  -5.658  1.00  0.00     0.030 A 
HETATM   28  C   UNL     1     -22.183  -7.187  -4.981  1.00  0.00     0.014 A 
BRANCH  25  29
HETATM   29  N   UNL     1     -22.236  -4.132  -7.087  1.00  0.00    -0.399 N 
HETATM   30  H   UNL     1     -22.576  -3.305  -6.577  1.00  0.00     0.156 HD
HETATM   31  H   UNL     1     -22.272  -4.109  -8.116  1.00  0.00     0.156 HD
ENDBRANCH  25  29
ENDBRANCH   5  22
TORSDOF 4
ENDMDL
MODEL 5
REMARK VINA RESULT:      -8.2      1.413      4.969
REMARK  4 active torsions:
REMARK  status: ('A' for Active; 'I' for Inactive)
REMARK    1  A    between atoms: C_5  and  C_6 
REMARK    2  A    between atoms: C_5  and  C_14 
REMARK    3  A    between atoms: C_9  and  N_12 
REMARK    4  A    between atoms: C_17  and  N_20 
ROOT
HETATM    1  C   UNL     1     -17.861 -11.692  -2.277  1.00  0.00     0.050 C 
HETATM    2  C   UNL     1     -18.190 -10.666  -3.328  1.00  0.00    -0.035 A 
HETATM    3  C   UNL     1     -19.281  -9.903  -3.172  1.00  0.00     0.021 A 
HETATM    4  C   UNL     1     -19.678  -8.890  -4.189  1.00  0.00    -0.024 A 
HETATM    5  C   UNL     1     -20.733  -8.063  -3.962  1.00  0.00    -0.005 C 
HETATM    6  C   UNL     1     -18.861  -8.797  -5.439  1.00  0.00     0.014 A 
HETATM    7  C   UNL     1     -17.754  -9.537  -5.591  1.00  0.00     0.030 A 
HETATM    8  C   UNL     1     -17.331 -10.487  -4.533  1.00  0.00     0.031 A 
HETATM    9  N   UNL     1     -16.220 -11.125  -4.641  1.00  0.00    -0.399 N 
ATOM     10  HN  UNL     1     -15.948 -11.777  -3.905  1.00  0.00     0.156 HD
HETATM   11  H   UNL     1     -15.596 -10.996  -5.452  1.00  0.00     0.156 HD
ENDROOT
BRANCH   5  12
HETATM   12  C   UNL     1     -21.108  -7.021  -4.931  1.00  0.00    -0.024 A 
HETATM   13  C   UNL     1     -20.114  -6.324  -5.627  1.00  0.00     0.021 A 
HETATM   14  C   UNL     1     -20.456  -5.312  -6.537  1.00  0.00    -0.035 A 
HETATM   15  C   UNL     1     -21.823  -5.001  -6.748  1.00  0.00     0.031 A 
HETATM   16  C   UNL     1     -19.363  -4.576  -7.262  1.00  0.00     0.050 C 
HETATM   17  C   UNL     1     -22.808  -5.712  -6.044  1.00  0.00     0.030 A 
HETATM   18  C   UNL     1     -22.454  -6.713  -5.143  1.00  0.00     0.014 A 
BRANCH  15  19
HETATM   19  N   UNL     1     -22.224  -3.983  -7.652  1.00  0.00    -0.399 N 
HETATM   20  H   UNL     1     -23.076  -3.425  -7.501  1.00  0.00     0.156 HD
HETATM   21  H   UNL     1     -21.661  -3.783  -8.492  1.00  0.00     0.156 HD
ENDBRANCH  15  19
ENDBRANCH   5  12
BRANCH   5  22
HETATM   22  C   UNL     1     -21.440  -8.065  -2.663  1.00  0.00    -0.024 A 
HETATM   23  C   UNL     1     -21.900  -9.251  -2.076  1.00  0.00     0.021 A 
HETATM   24  C   UNL     1     -22.544  -9.220  -0.823  1.00  0.00    -0.035 A 
HETATM   25  C   UNL     1     -22.717  -7.979  -0.161  1.00  0.00     0.031 A 
HETATM   26  C   UNL     1     -23.031 -10.504  -0.209  1.00  0.00     0.050 C 
HETATM   27  C   UNL     1     -22.245  -6.804  -0.760  1.00  0.00     0.030 A 
HETATM   28  C   UNL     1     -21.613  -6.847  -2.000  1.00  0.00     0.014 A 
BRANCH  25  29
HETATM   29  N   UNL     1     -23.359  -7.891   1.105  1.00  0.00    -0.399 N 
HETATM   30  H   UNL     1     -24.383  -7.893   1.198  1.00  0.00     0.156 HD
HETATM   31  H   UNL     1     -22.799  -7.814   1.967  1.00  0.00     0.156 HD
ENDBRANCH  25  29
ENDBRANCH   5  22
TORSDOF 4
ENDMDL
MODEL 6
REMARK VINA RESULT:      -7.9      1.980      6.119
REMARK  4 active torsions:
REMARK  status: ('A' for Active; 'I' for Inactive)
REMARK    1  A    between atoms: C_5  and  C_6 
REMARK    2  A    between atoms: C_5  and  C_14 
REMARK    3  A    between atoms: C_9  and  N_12 
REMARK    4  A    between atoms: C_17  and  N_20 
ROOT
HETATM    1  C   UNL     1     -23.850  -5.578  -5.446  1.00  0.00     0.050 C 
HETATM    2  C   UNL     1     -22.451  -6.090  -5.666  1.00  0.00    -0.035 A 
HETATM    3  C   UNL     1     -22.000  -7.094  -4.901  1.00  0.00     0.021 A 
HETATM    4  C   UNL     1     -20.617  -7.628  -5.050  1.00  0.00    -0.024 A 
HETATM    5  C   UNL     1     -20.215  -8.709  -4.330  1.00  0.00    -0.005 C 
HETATM    6  C   UNL     1     -19.710  -6.957  -6.032  1.00  0.00     0.014 A 
HETATM    7  C   UNL     1     -20.162  -5.971  -6.819  1.00  0.00     0.030 A 
HETATM    8  C   UNL     1     -21.566  -5.503  -6.711  1.00  0.00     0.031 A 
HETATM    9  N   UNL     1     -22.022  -4.622  -7.531  1.00  0.00    -0.399 N 
ATOM     10  HN  UNL     1     -22.988  -4.311  -7.437  1.00  0.00     0.156 HD
HETATM   11  H   UNL     1     -21.436  -4.224  -8.279  1.00  0.00     0.156 HD
ENDROOT
BRANCH   5  12
HETATM   12  C   UNL     1     -18.871  -9.282  -4.500  1.00  0.00    -0.024 A 
HETATM   13  C   UNL     1     -18.000  -9.360  -3.407  1.00  0.00     0.021 A 
HETATM   14  C   UNL     1     -16.707  -9.883  -3.560  1.00  0.00    -0.035 A 
HETATM   15  C   UNL     1     -16.288 -10.336  -4.837  1.00  0.00     0.031 A 
HETATM   16  C   UNL     1     -15.794  -9.944  -2.367  1.00  0.00     0.050 C 
HETATM   17  C   UNL     1     -17.174 -10.254  -5.922  1.00  0.00     0.030 A 
HETATM   18  C   UNL     1     -18.455  -9.731  -5.756  1.00  0.00     0.014 A 
BRANCH  15  19
HETATM   19  N   UNL     1     -14.990 -10.868  -5.048  1.00  0.00    -0.399 N 
HETATM   20  H   UNL     1     -14.184 -10.580  -4.476  1.00  0.00     0.156 HD
HETATM   21  H   UNL     1     -14.828 -11.562  -5.793  1.00  0.00     0.156 HD
ENDBRANCH  15  19
ENDBRANCH   5  12
BRANCH   5  22
HETATM   22  C   UNL     1     -21.164  -9.452  -3.472  1.00  0.00    -0.024 A 
HETATM   23  C   UNL     1     -21.453  -9.041  -2.164  1.00  0.00     0.021 A 
HETATM   24  C   UNL     1     -22.385  -9.756  -1.385  1.00  0.00    -0.035 A 
HETATM   25  C   UNL     1     -23.029 -10.890  -1.939  1.00  0.00     0.031 A 
HETATM   26  C   UNL     1     -22.681  -9.300   0.017  1.00  0.00     0.050 C 
HETATM   27  C   UNL     1     -22.733 -11.282  -3.250  1.00  0.00     0.030 A 
HETATM   28  C   UNL     1     -21.808 -10.570  -4.009  1.00  0.00     0.014 A 
BRANCH  25  29
HETATM   29  N   UNL     1     -23.979 -11.646  -1.197  1.00  0.00    -0.399 N 
HETATM   30  H   UNL     1     -24.911 -11.276  -0.970  1.00  0.00     0.156 HD
HETATM   31  H   UNL     1     -23.743 -12.591  -0.863  1.00  0.00     0.156 HD
ENDBRANCH  25  29
ENDBRANCH   5  22
TORSDOF 4
ENDMDL
MODEL 7
REMARK VINA RESULT:      -7.6      3.467      7.896
REMARK  4 active torsions:
REMARK  status: ('A' for Active; 'I' for Inactive)
REMARK    1  A    between atoms: C_5  and  C_6 
REMARK    2  A    between atoms: C_5  and  C_14 
REMARK    3  A    between atoms: C_9  and  N_12 
REMARK    4  A    between atoms: C_17  and  N_20 
ROOT
HETATM    1  C   UNL     1     -15.957  -9.704  -2.676  1.00  0.00     0.050 C 
HETATM    2  C   UNL     1     -16.955 -10.784  -2.352  1.00  0.00    -0.035 A 
HETATM    3  C   UNL     1     -18.206 -10.434  -2.023  1.00  0.00     0.021 A 
HETATM    4  C   UNL     1     -19.234 -11.451  -1.664  1.00  0.00    -0.024 A 
HETATM    5  C   UNL     1     -20.519 -11.078  -1.428  1.00  0.00    -0.005 C 
HETATM    6  C   UNL     1     -18.808 -12.884  -1.606  1.00  0.00     0.014 A 
HETATM    7  C   UNL     1     -17.566 -13.245  -1.959  1.00  0.00     0.030 A 
HETATM    8  C   UNL     1     -16.578 -12.225  -2.388  1.00  0.00     0.031 A 
HETATM    9  N   UNL     1     -15.419 -12.584  -2.816  1.00  0.00    -0.399 N 
ATOM     10  HN  UNL     1     -14.752 -11.868  -3.102  1.00  0.00     0.156 HD
HETATM   11  H   UNL     1     -15.147 -13.577  -2.877  1.00  0.00     0.156 HD
ENDROOT
BRANCH   5  12
HETATM   12  C   UNL     1     -21.559 -12.074  -1.124  1.00  0.00    -0.024 A 
HETATM   13  C   UNL     1     -21.815 -12.433   0.205  1.00  0.00     0.021 A 
HETATM   14  C   UNL     1     -22.788 -13.398   0.509  1.00  0.00    -0.035 A 
HETATM   15  C   UNL     1     -23.512 -14.008  -0.546  1.00  0.00     0.031 A 
HETATM   16  C   UNL     1     -23.032 -13.766   1.946  1.00  0.00     0.050 C 
HETATM   17  C   UNL     1     -23.245 -13.635  -1.872  1.00  0.00     0.030 A 
HETATM   18  C   UNL     1     -22.276 -12.677  -2.160  1.00  0.00     0.014 A 
BRANCH  15  19
HETATM   19  N   UNL     1     -24.502 -14.994  -0.295  1.00  0.00    -0.399 N 
HETATM   20  H   UNL     1     -24.447 -15.627   0.515  1.00  0.00     0.156 HD
HETATM   21  H   UNL     1     -25.306 -15.096  -0.931  1.00  0.00     0.156 HD
ENDBRANCH  15  19
ENDBRANCH   5  12
BRANCH   5  22
HETATM   22  C   UNL     1     -20.959  -9.681  -1.632  1.00  0.00    -0.024 A 
HETATM   23  C   UNL     1     -21.079  -9.124  -2.911  1.00  0.00     0.021 A 
HETATM   24  C   UNL     1     -21.528  -7.798  -3.070  1.00  0.00    -0.035 A 
HETATM   25  C   UNL     1     -21.862  -7.035  -1.924  1.00  0.00     0.031 A 
HETATM   26  C   UNL     1     -21.649  -7.218  -4.453  1.00  0.00     0.050 C 
HETATM   27  C   UNL     1     -21.743  -7.610  -0.652  1.00  0.00     0.030 A 
HETATM   28  C   UNL     1     -21.295  -8.920  -0.508  1.00  0.00     0.014 A 
BRANCH  25  29
HETATM   29  N   UNL     1     -22.323  -5.694  -2.027  1.00  0.00    -0.399 N 
HETATM   30  H   UNL     1     -22.870  -5.366  -2.834  1.00  0.00     0.156 HD
HETATM   31  H   UNL     1     -22.106  -5.012  -1.285  1.00  0.00     0.156 HD
ENDBRANCH  25  29
ENDBRANCH   5  22
TORSDOF 4
ENDMDL
MODEL 8
REMARK VINA RESULT:      -7.4      2.769      5.566
REMARK  4 active torsions:
REMARK  status: ('A' for Active; 'I' for Inactive)
REMARK    1  A    between atoms: C_5  and  C_6 
REMARK    2  A    between atoms: C_5  and  C_14 
REMARK    3  A    between atoms: C_9  and  N_12 
REMARK    4  A    between atoms: C_17  and  N_20 
ROOT
HETATM    1  C   UNL     1     -16.264 -13.459  -4.844  1.00  0.00     0.050 C 
HETATM    2  C   UNL     1     -16.775 -12.169  -4.258  1.00  0.00    -0.035 A 
HETATM    3  C   UNL     1     -18.068 -11.852  -4.414  1.00  0.00     0.021 A 
HETATM    4  C   UNL     1     -18.630 -10.579  -3.883  1.00  0.00    -0.024 A 
HETATM    5  C   UNL     1     -19.963 -10.325  -3.969  1.00  0.00    -0.005 C 
HETATM    6  C   UNL     1     -17.687  -9.617  -3.232  1.00  0.00     0.014 A 
HETATM    7  C   UNL     1     -16.399  -9.938  -3.049  1.00  0.00     0.030 A 
HETATM    8  C   UNL     1     -15.873 -11.244  -3.516  1.00  0.00     0.031 A 
HETATM    9  N   UNL     1     -14.661 -11.586  -3.255  1.00  0.00    -0.399 N 
ATOM     10  HN  UNL     1     -14.317 -12.487  -3.588  1.00  0.00     0.156 HD
HETATM   11  H   UNL     1     -14.028 -10.975  -2.718  1.00  0.00     0.156 HD
ENDROOT
BRANCH   5  12
HETATM   12  C   UNL     1     -20.543  -9.097  -3.405  1.00  0.00    -0.024 A 
HETATM   13  C   UNL     1     -20.936  -9.063  -2.062  1.00  0.00     0.021 A 
HETATM   14  C   UNL     1     -21.512  -7.905  -1.516  1.00  0.00    -0.035 A 
HETATM   15  C   UNL     1     -21.694  -6.766  -2.340  1.00  0.00     0.031 A 
HETATM   16  C   UNL     1     -21.930  -7.905  -0.071  1.00  0.00     0.050 C 
HETATM   17  C   UNL     1     -21.293  -6.816  -3.683  1.00  0.00     0.030 A 
HETATM   18  C   UNL     1     -20.723  -7.971  -4.213  1.00  0.00     0.014 A 
BRANCH  15  19
HETATM   19  N   UNL     1     -22.277  -5.573  -1.840  1.00  0.00    -0.399 N 
HETATM   20  H   UNL     1     -22.512  -5.456  -0.844  1.00  0.00     0.156 HD
HETATM   21  H   UNL     1     -22.483  -4.789  -2.477  1.00  0.00     0.156 HD
ENDBRANCH  15  19
ENDBRANCH   5  12
BRANCH   5  22
HETATM   22  C   UNL     1     -20.903 -11.346  -4.482  1.00  0.00    -0.024 A 
HETATM   23  C   UNL     1     -21.492 -12.296  -3.639  1.00  0.00     0.021 A 
HETATM   24  C   UNL     1     -22.406 -13.236  -4.156  1.00  0.00    -0.035 A 
HETATM   25  C   UNL     1     -22.726 -13.206  -5.536  1.00  0.00     0.031 A 
HETATM   26  C   UNL     1     -23.027 -14.249  -3.234  1.00  0.00     0.050 C 
HETATM   27  C   UNL     1     -22.132 -12.245  -6.363  1.00  0.00     0.030 A 
HETATM   28  C   UNL     1     -21.229 -11.324  -5.841  1.00  0.00     0.014 A 
BRANCH  25  29
HETATM   29  N   UNL     1     -23.643 -14.130  -6.110  1.00  0.00    -0.399 N 
HETATM   30  H   UNL     1     -24.330 -13.845  -6.821  1.00  0.00     0.156 HD
HETATM   31  H   UNL     1     -23.641 -15.116  -5.814  1.00  0.00     0.156 HD
ENDBRANCH  25  29
ENDBRANCH   5  22
TORSDOF 4
ENDMDL
MODEL 9
REMARK VINA RESULT:      -7.4      3.421      7.388
REMARK  4 active torsions:
REMARK  status: ('A' for Active; 'I' for Inactive)
REMARK    1  A    between atoms: C_5  and  C_6 
REMARK    2  A    between atoms: C_5  and  C_14 
REMARK    3  A    between atoms: C_9  and  N_12 
REMARK    4  A    between atoms: C_17  and  N_20 
ROOT
HETATM    1  C   UNL     1     -15.900  -9.328  -3.008  1.00  0.00     0.050 C 
HETATM    2  C   UNL     1     -16.886 -10.393  -2.605  1.00  0.00    -0.035 A 
HETATM    3  C   UNL     1     -18.194 -10.099  -2.602  1.00  0.00     0.021 A 
HETATM    4  C   UNL     1     -19.218 -11.098  -2.187  1.00  0.00    -0.024 A 
HETATM    5  C   UNL     1     -20.543 -10.807  -2.284  1.00  0.00    -0.005 C 
HETATM    6  C   UNL     1     -18.739 -12.428  -1.697  1.00  0.00     0.014 A 
HETATM    7  C   UNL     1     -17.436 -12.739  -1.723  1.00  0.00     0.030 A 
HETATM    8  C   UNL     1     -16.436 -11.757  -2.212  1.00  0.00     0.031 A 
HETATM    9  N   UNL     1     -15.199 -12.093  -2.323  1.00  0.00    -0.399 N 
ATOM     10  HN  UNL     1     -14.526 -11.403  -2.657  1.00  0.00     0.156 HD
HETATM   11  H   UNL     1     -14.869 -13.040  -2.084  1.00  0.00     0.156 HD
ENDROOT
BRANCH   5  12
HETATM   12  C   UNL     1     -21.569 -11.799  -1.929  1.00  0.00    -0.024 A 
HETATM   13  C   UNL     1     -22.012 -11.904  -0.605  1.00  0.00     0.021 A 
HETATM   14  C   UNL     1     -22.974 -12.861  -0.247  1.00  0.00    -0.035 A 
HETATM   15  C   UNL     1     -23.497 -13.725  -1.243  1.00  0.00     0.031 A 
HETATM   16  C   UNL     1     -23.421 -12.952   1.186  1.00  0.00     0.050 C 
HETATM   17  C   UNL     1     -23.044 -13.605  -2.566  1.00  0.00     0.030 A 
HETATM   18  C   UNL     1     -22.088 -12.652  -2.907  1.00  0.00     0.014 A 
BRANCH  15  19
HETATM   19  N   UNL     1     -24.466 -14.714  -0.934  1.00  0.00    -0.399 N 
HETATM   20  H   UNL     1     -25.328 -14.489  -0.418  1.00  0.00     0.156 HD
HETATM   21  H   UNL     1     -24.321 -15.692  -1.225  1.00  0.00     0.156 HD
ENDBRANCH  15  19
ENDBRANCH   5  12
BRANCH   5  22
HETATM   22  C   UNL     1     -21.005  -9.547  -2.906  1.00  0.00    -0.024 A 
HETATM   23  C   UNL     1     -21.334  -8.423  -2.138  1.00  0.00     0.021 A 
HETATM   24  C   UNL     1     -21.743  -7.229  -2.765  1.00  0.00    -0.035 A 
HETATM   25  C   UNL     1     -21.814  -7.176  -4.179  1.00  0.00     0.031 A 
HETATM   26  C   UNL     1     -22.094  -6.033  -1.923  1.00  0.00     0.050 C 
HETATM   27  C   UNL     1     -21.475  -8.308  -4.931  1.00  0.00     0.030 A 
HETATM   28  C   UNL     1     -21.075  -9.482  -4.300  1.00  0.00     0.014 A 
BRANCH  25  29
HETATM   29  N   UNL     1     -22.218  -5.997  -4.863  1.00  0.00    -0.399 N 
HETATM   30  H   UNL     1     -22.148  -5.066  -4.432  1.00  0.00     0.156 HD
HETATM   31  H   UNL     1     -22.603  -6.056  -5.817  1.00  0.00     0.156 HD
ENDBRANCH  25  29
ENDBRANCH   5  22
TORSDOF 4
ENDMDL
