MODEL 1
REMARK VINA RESULT:      -8.5      0.000      0.000
REMARK  5 active torsions:
REMARK  status: ('A' for Active; 'I' for Inactive)
REMARK    1  A    between atoms: C_4  and  S_26 
REMARK    2  A    between atoms: C_5  and  N_8 
REMARK    3  A    between atoms: N_10  and  C_12 
REMARK    4  A    between atoms: C_14  and  C_22 
REMARK    5  A    between atoms: C_22  and  O_24 
ROOT
HETATM    1  S   UNL     1     -18.175 -11.696  -6.017  1.00  0.00     0.327 S 
HETATM    2  O   UNL     1     -19.459 -11.956  -5.403  1.00  0.00    -0.191 OA
HETATM    3  O   UNL     1     -18.093 -10.387  -6.688  1.00  0.00    -0.086 OA
HETATM    4  O   UNL     1     -17.565 -12.767  -6.799  1.00  0.00    -0.191 OA
HETATM    5 NA   UNL     2     -18.146  -8.535  -7.429  1.00  0.00     0.000 Na
ENDROOT
BRANCH   1   6
HETATM    6  C   UNL     1     -17.036 -11.540  -4.633  1.00  0.00     0.117 A 
HETATM    7  C   UNL     1     -16.122 -12.603  -4.467  1.00  0.00     0.035 A 
HETATM    8  C   UNL     1     -15.240 -12.634  -3.395  1.00  0.00    -0.060 A 
HETATM    9  C   UNL     1     -14.231 -13.732  -3.279  1.00  0.00     0.048 C 
HETATM   10  C   UNL     1     -15.286 -11.593  -2.472  1.00  0.00     0.009 A 
HETATM   11  C   UNL     1     -16.196 -10.534  -2.644  1.00  0.00     0.033 A 
HETATM   12  C   UNL     1     -17.098 -10.463  -3.728  1.00  0.00     0.072 A 
BRANCH  12  13
HETATM   13  N   UNL     1     -17.964  -9.334  -3.891  1.00  0.00    -0.299 N 
HETATM   14  N   UNL     1     -19.090  -9.514  -3.355  1.00  0.00    -0.296 N 
ATOM     15  HN  UNL     1     -19.364 -10.416  -2.964  1.00  0.00     0.187 HD
ATOM     16  HN  UNL     1     -17.699  -8.482  -4.385  1.00  0.00     0.187 HD
BRANCH  14  17
HETATM   17  C   UNL     1     -19.972  -8.369  -3.327  1.00  0.00     0.110 A 
HETATM   18  C   UNL     1     -20.272  -7.622  -4.523  1.00  0.00     0.217 A 
HETATM   19  C   UNL     1     -21.211  -6.548  -4.361  1.00  0.00     0.090 A 
HETATM   20  O   UNL     1     -19.789  -7.893  -5.679  1.00  0.00    -0.285 OA
HETATM   21  C   UNL     1     -21.893  -6.327  -3.156  1.00  0.00     0.034 A 
HETATM   22  C   UNL     1     -21.679  -7.129  -2.044  1.00  0.00    -0.022 A 
HETATM   23  C   UNL     1     -22.490  -6.948  -0.909  1.00  0.00     0.012 A 
HETATM   24  C   UNL     1     -20.676  -8.123  -2.083  1.00  0.00     0.006 A 
HETATM   25  C   UNL     1     -22.313  -7.727   0.226  1.00  0.00     0.001 A 
HETATM   26  C   UNL     1     -21.288  -8.662   0.253  1.00  0.00     0.001 A 
HETATM   27  C   UNL     1     -20.478  -8.849  -0.880  1.00  0.00     0.015 A 
BRANCH  19  28
HETATM   28  C   UNL     1     -21.588  -5.597  -5.475  1.00  0.00     0.180 C 
HETATM   29  O   UNL     1     -22.738  -5.449  -5.871  1.00  0.00    -0.646 OA
BRANCH  28  30
HETATM   30  O   UNL     1     -20.554  -4.905  -6.006  1.00  0.00    -0.773 OA
HETATM   31  H   UNL     1     -19.726  -5.403  -5.765  1.00  0.00     0.167 HD
ENDBRANCH  28  30
ENDBRANCH  19  28
ENDBRANCH  14  17
ENDBRANCH  12  13
ENDBRANCH   1   6
TORSDOF 5
ENDMDL
MODEL 2
REMARK VINA RESULT:      -8.2      1.836      2.026
REMARK  5 active torsions:
REMARK  status: ('A' for Active; 'I' for Inactive)
REMARK    1  A    between atoms: C_4  and  S_26 
REMARK    2  A    between atoms: C_5  and  N_8 
REMARK    3  A    between atoms: N_10  and  C_12 
REMARK    4  A    between atoms: C_14  and  C_22 
REMARK    5  A    between atoms: C_22  and  O_24 
ROOT
HETATM    1  S   UNL     1     -15.815 -10.980  -5.665  1.00  0.00     0.327 S 
HETATM    2  O   UNL     1     -15.648  -9.545  -5.751  1.00  0.00    -0.191 OA
HETATM    3  O   UNL     1     -14.615 -11.740  -6.055  1.00  0.00    -0.086 OA
HETATM    4  O   UNL     1     -17.044 -11.556  -6.203  1.00  0.00    -0.191 OA
HETATM    5 NA   UNL     2     -12.859 -12.577  -6.501  1.00  0.00     0.000 Na
ENDROOT
BRANCH   1   6
HETATM    6  C   UNL     1     -15.979 -11.311  -3.905  1.00  0.00     0.117 A 
HETATM    7  C   UNL     1     -15.210 -12.384  -3.407  1.00  0.00     0.035 A 
HETATM    8  C   UNL     1     -15.304 -12.785  -2.080  1.00  0.00    -0.060 A 
HETATM    9  C   UNL     1     -14.425 -13.876  -1.556  1.00  0.00     0.048 C 
HETATM   10  C   UNL     1     -16.191 -12.107  -1.248  1.00  0.00     0.009 A 
HETATM   11  C   UNL     1     -16.953 -11.035  -1.747  1.00  0.00     0.033 A 
HETATM   12  C   UNL     1     -16.874 -10.594  -3.087  1.00  0.00     0.072 A 
BRANCH  12  13
HETATM   13  N   UNL     1     -17.626  -9.460  -3.532  1.00  0.00    -0.299 N 
HETATM   14  N   UNL     1     -18.867  -9.624  -3.390  1.00  0.00    -0.296 N 
ATOM     15  HN  UNL     1     -19.264 -10.519  -3.101  1.00  0.00     0.187 HD
ATOM     16  HN  UNL     1     -17.206  -8.616  -3.920  1.00  0.00     0.187 HD
BRANCH  14  17
HETATM   17  C   UNL     1     -19.697  -8.471  -3.659  1.00  0.00     0.110 A 
HETATM   18  C   UNL     1     -19.846  -7.948  -4.994  1.00  0.00     0.217 A 
HETATM   19  C   UNL     1     -20.749  -6.840  -5.126  1.00  0.00     0.090 A 
HETATM   20  O   UNL     1     -19.265  -8.439  -6.027  1.00  0.00    -0.285 OA
HETATM   21  C   UNL     1     -21.535  -6.385  -4.058  1.00  0.00     0.034 A 
HETATM   22  C   UNL     1     -21.466  -6.975  -2.804  1.00  0.00    -0.022 A 
HETATM   23  C   UNL     1     -22.375  -6.569  -1.810  1.00  0.00     0.012 A 
HETATM   24  C   UNL     1     -20.508  -7.985  -2.560  1.00  0.00     0.006 A 
HETATM   25  C   UNL     1     -22.343  -7.131  -0.541  1.00  0.00     0.001 A 
HETATM   26  C   UNL     1     -21.367  -8.071  -0.241  1.00  0.00     0.001 A 
HETATM   27  C   UNL     1     -20.460  -8.483  -1.231  1.00  0.00     0.015 A 
BRANCH  19  28
HETATM   28  C   UNL     1     -20.974  -6.099  -6.426  1.00  0.00     0.180 C 
HETATM   29  O   UNL     1     -22.005  -5.489  -6.680  1.00  0.00    -0.646 OA
BRANCH  28  30
HETATM   30  O   UNL     1     -19.941  -6.154  -7.297  1.00  0.00    -0.773 OA
HETATM   31  H   UNL     1     -19.229  -5.564  -6.929  1.00  0.00     0.167 HD
ENDBRANCH  28  30
ENDBRANCH  19  28
ENDBRANCH  14  17
ENDBRANCH  12  13
ENDBRANCH   1   6
TORSDOF 5
ENDMDL
MODEL 3
REMARK VINA RESULT:      -7.5      2.548      3.226
REMARK  5 active torsions:
REMARK  status: ('A' for Active; 'I' for Inactive)
REMARK    1  A    between atoms: C_4  and  S_26 
REMARK    2  A    between atoms: C_5  and  N_8 
REMARK    3  A    between atoms: N_10  and  C_12 
REMARK    4  A    between atoms: C_14  and  C_22 
REMARK    5  A    between atoms: C_22  and  O_24 
ROOT
HETATM    1  S   UNL     1     -17.843 -11.126  -5.664  1.00  0.00     0.327 S 
HETATM    2  O   UNL     1     -16.752 -11.902  -6.214  1.00  0.00    -0.191 OA
HETATM    3  O   UNL     1     -18.072  -9.849  -6.360  1.00  0.00    -0.086 OA
HETATM    4  O   UNL     1     -17.922 -10.996  -4.212  1.00  0.00    -0.191 OA
HETATM    5 NA   UNL     2     -18.296  -8.231  -7.506  1.00  0.00     0.000 Na
ENDROOT
BRANCH   1   6
HETATM    6  C   UNL     1     -19.315 -12.088  -6.039  1.00  0.00     0.117 A 
HETATM    7  C   UNL     1     -19.110 -13.468  -6.255  1.00  0.00     0.035 A 
HETATM    8  C   UNL     1     -20.156 -14.304  -6.622  1.00  0.00    -0.060 A 
HETATM    9  C   UNL     1     -19.931 -15.775  -6.773  1.00  0.00     0.048 C 
HETATM   10  C   UNL     1     -21.420 -13.745  -6.787  1.00  0.00     0.009 A 
HETATM   11  C   UNL     1     -21.622 -12.371  -6.568  1.00  0.00     0.033 A 
HETATM   12  C   UNL     1     -20.584 -11.493  -6.182  1.00  0.00     0.072 A 
BRANCH  12  13
HETATM   13  N   UNL     1     -20.851 -10.113  -5.912  1.00  0.00    -0.299 N 
HETATM   14  N   UNL     1     -20.730  -9.833  -4.689  1.00  0.00    -0.296 N 
ATOM     15  HN  UNL     1     -20.578 -10.553  -3.983  1.00  0.00     0.187 HD
ATOM     16  HN  UNL     1     -21.110  -9.433  -6.627  1.00  0.00     0.187 HD
BRANCH  14  17
HETATM   17  C   UNL     1     -20.821  -8.431  -4.345  1.00  0.00     0.110 A 
HETATM   18  C   UNL     1     -20.616  -7.401  -5.331  1.00  0.00     0.217 A 
HETATM   19  C   UNL     1     -20.798  -6.056  -4.865  1.00  0.00     0.090 A 
HETATM   20  O   UNL     1     -20.334  -7.630  -6.561  1.00  0.00    -0.285 OA
HETATM   21  C   UNL     1     -21.276  -5.768  -3.579  1.00  0.00     0.034 A 
HETATM   22  C   UNL     1     -21.580  -6.777  -2.676  1.00  0.00    -0.022 A 
HETATM   23  C   UNL     1     -22.184  -6.435  -1.453  1.00  0.00     0.012 A 
HETATM   24  C   UNL     1     -21.304  -8.121  -3.013  1.00  0.00     0.006 A 
HETATM   25  C   UNL     1     -22.507  -7.411  -0.519  1.00  0.00     0.001 A 
HETATM   26  C   UNL     1     -22.182  -8.734  -0.782  1.00  0.00     0.001 A 
HETATM   27  C   UNL     1     -21.582  -9.081  -2.004  1.00  0.00     0.015 A 
BRANCH  19  28
HETATM   28  C   UNL     1     -20.546  -4.836  -5.723  1.00  0.00     0.180 C 
HETATM   29  O   UNL     1     -21.435  -4.078  -6.091  1.00  0.00    -0.646 OA
BRANCH  28  30
HETATM   30  O   UNL     1     -19.250  -4.633  -6.055  1.00  0.00    -0.773 OA
HETATM   31  H   UNL     1     -18.851  -4.089  -5.324  1.00  0.00     0.167 HD
ENDBRANCH  28  30
ENDBRANCH  19  28
ENDBRANCH  14  17
ENDBRANCH  12  13
ENDBRANCH   1   6
TORSDOF 5
ENDMDL
MODEL 4
REMARK VINA RESULT:      -7.4      3.108      4.698
REMARK  5 active torsions:
REMARK  status: ('A' for Active; 'I' for Inactive)
REMARK    1  A    between atoms: C_4  and  S_26 
REMARK    2  A    between atoms: C_5  and  N_8 
REMARK    3  A    between atoms: N_10  and  C_12 
REMARK    4  A    between atoms: C_14  and  C_22 
REMARK    5  A    between atoms: C_22  and  O_24 
ROOT
HETATM    1  S   UNL     1     -16.945 -11.155  -5.503  1.00  0.00     0.327 S 
HETATM    2  O   UNL     1     -16.853  -9.826  -6.066  1.00  0.00    -0.191 OA
HETATM    3  O   UNL     1     -17.530 -11.188  -4.152  1.00  0.00    -0.086 OA
HETATM    4  O   UNL     1     -15.786 -12.033  -5.634  1.00  0.00    -0.191 OA
HETATM    5 NA   UNL     2     -18.450 -11.030  -2.388  1.00  0.00     0.000 Na
ENDROOT
BRANCH   1   6
HETATM    6  C   UNL     1     -18.170 -11.993  -6.520  1.00  0.00     0.117 A 
HETATM    7  C   UNL     1     -17.668 -12.958  -7.419  1.00  0.00     0.035 A 
HETATM    8  C   UNL     1     -18.504 -13.621  -8.307  1.00  0.00    -0.060 A 
HETATM    9  C   UNL     1     -17.962 -14.692  -9.199  1.00  0.00     0.048 C 
HETATM   10  C   UNL     1     -19.859 -13.300  -8.302  1.00  0.00     0.009 A 
HETATM   11  C   UNL     1     -20.356 -12.341  -7.402  1.00  0.00     0.033 A 
HETATM   12  C   UNL     1     -19.537 -11.656  -6.477  1.00  0.00     0.072 A 
BRANCH  12  13
HETATM   13  N   UNL     1     -20.101 -10.731  -5.540  1.00  0.00    -0.299 N 
HETATM   14  N   UNL     1     -19.688  -9.555  -5.724  1.00  0.00    -0.296 N 
ATOM     15  HN  UNL     1     -18.947  -9.340  -6.391  1.00  0.00     0.187 HD
ATOM     16  HN  UNL     1     -20.761 -10.994  -4.809  1.00  0.00     0.187 HD
BRANCH  14  17
HETATM   17  C   UNL     1     -20.326  -8.526  -4.932  1.00  0.00     0.110 A 
HETATM   18  C   UNL     1     -20.767  -8.781  -3.584  1.00  0.00     0.217 A 
HETATM   19  C   UNL     1     -21.325  -7.653  -2.894  1.00  0.00     0.090 A 
HETATM   20  O   UNL     1     -20.646  -9.911  -2.990  1.00  0.00    -0.285 OA
HETATM   21  C   UNL     1     -21.317  -6.363  -3.441  1.00  0.00     0.034 A 
HETATM   22  C   UNL     1     -20.782  -6.111  -4.696  1.00  0.00    -0.022 A 
HETATM   23  C   UNL     1     -20.676  -4.779  -5.135  1.00  0.00     0.012 A 
HETATM   24  C   UNL     1     -20.332  -7.188  -5.492  1.00  0.00     0.006 A 
HETATM   25  C   UNL     1     -20.146  -4.479  -6.384  1.00  0.00     0.001 A 
HETATM   26  C   UNL     1     -19.764  -5.515  -7.224  1.00  0.00     0.001 A 
HETATM   27  C   UNL     1     -19.865  -6.847  -6.788  1.00  0.00     0.015 A 
BRANCH  19  28
HETATM   28  C   UNL     1     -21.922  -7.738  -1.506  1.00  0.00     0.180 C 
HETATM   29  O   UNL     1     -22.079  -6.763  -0.782  1.00  0.00    -0.646 OA
BRANCH  28  30
HETATM   30  O   UNL     1     -22.282  -8.983  -1.118  1.00  0.00    -0.773 OA
HETATM   31  H   UNL     1     -21.545  -9.591  -1.398  1.00  0.00     0.167 HD
ENDBRANCH  28  30
ENDBRANCH  19  28
ENDBRANCH  14  17
ENDBRANCH  12  13
ENDBRANCH   1   6
TORSDOF 5
ENDMDL
MODEL 5
REMARK VINA RESULT:      -7.3      1.900      2.023
REMARK  5 active torsions:
REMARK  status: ('A' for Active; 'I' for Inactive)
REMARK    1  A    between atoms: C_4  and  S_26 
REMARK    2  A    between atoms: C_5  and  N_8 
REMARK    3  A    between atoms: N_10  and  C_12 
REMARK    4  A    between atoms: C_14  and  C_22 
REMARK    5  A    between atoms: C_22  and  O_24 
ROOT
HETATM    1  S   UNL     1     -19.278 -12.684  -4.937  1.00  0.00     0.327 S 
HETATM    2  O   UNL     1     -18.963 -14.095  -4.893  1.00  0.00    -0.191 OA
HETATM    3  O   UNL     1     -19.769 -12.146  -3.657  1.00  0.00    -0.086 OA
HETATM    4  O   UNL     1     -20.038 -12.190  -6.081  1.00  0.00    -0.191 OA
HETATM    5 NA   UNL     2     -20.295 -11.591  -1.814  1.00  0.00     0.000 Na
ENDROOT
BRANCH   1   6
HETATM    6  C   UNL     1     -17.688 -11.873  -5.160  1.00  0.00     0.117 A 
HETATM    7  C   UNL     1     -16.567 -12.726  -5.234  1.00  0.00     0.035 A 
HETATM    8  C   UNL     1     -15.278 -12.219  -5.334  1.00  0.00    -0.060 A 
HETATM    9  C   UNL     1     -14.111 -13.142  -5.485  1.00  0.00     0.048 C 
HETATM   10  C   UNL     1     -15.113 -10.836  -5.345  1.00  0.00     0.009 A 
HETATM   11  C   UNL     1     -16.233  -9.989  -5.275  1.00  0.00     0.033 A 
HETATM   12  C   UNL     1     -17.558 -10.470  -5.185  1.00  0.00     0.072 A 
BRANCH  12  13
HETATM   13  N   UNL     1     -18.669  -9.567  -5.176  1.00  0.00    -0.299 N 
HETATM   14  N   UNL     1     -18.857  -9.052  -4.041  1.00  0.00    -0.296 N 
ATOM     15  HN  UNL     1     -18.337  -9.356  -3.218  1.00  0.00     0.187 HD
ATOM     16  HN  UNL     1     -19.243  -9.364  -5.994  1.00  0.00     0.187 HD
BRANCH  14  17
HETATM   17  C   UNL     1     -19.853  -8.005  -3.974  1.00  0.00     0.110 A 
HETATM   18  C   UNL     1     -20.274  -7.293  -5.154  1.00  0.00     0.217 A 
HETATM   19  C   UNL     1     -21.313  -6.324  -4.952  1.00  0.00     0.090 A 
HETATM   20  O   UNL     1     -19.809  -7.510  -6.329  1.00  0.00    -0.285 OA
HETATM   21  C   UNL     1     -21.969  -6.177  -3.722  1.00  0.00     0.034 A 
HETATM   22  C   UNL     1     -21.631  -6.954  -2.623  1.00  0.00    -0.022 A 
HETATM   23  C   UNL     1     -22.413  -6.860  -1.457  1.00  0.00     0.012 A 
HETATM   24  C   UNL     1     -20.531  -7.837  -2.704  1.00  0.00     0.006 A 
HETATM   25  C   UNL     1     -22.113  -7.618  -0.333  1.00  0.00     0.001 A 
HETATM   26  C   UNL     1     -20.995  -8.440  -0.349  1.00  0.00     0.001 A 
HETATM   27  C   UNL     1     -20.213  -8.540  -1.513  1.00  0.00     0.015 A 
BRANCH  19  28
HETATM   28  C   UNL     1     -21.830  -5.416  -6.046  1.00  0.00     0.180 C 
HETATM   29  O   UNL     1     -23.017  -5.153  -6.195  1.00  0.00    -0.646 OA
BRANCH  28  30
HETATM   30  O   UNL     1     -20.876  -4.903  -6.856  1.00  0.00    -0.773 OA
HETATM   31  H   UNL     1     -20.606  -5.634  -7.475  1.00  0.00     0.167 HD
ENDBRANCH  28  30
ENDBRANCH  19  28
ENDBRANCH  14  17
ENDBRANCH  12  13
ENDBRANCH   1   6
TORSDOF 5
ENDMDL
MODEL 6
REMARK VINA RESULT:      -7.2      1.972      2.444
REMARK  5 active torsions:
REMARK  status: ('A' for Active; 'I' for Inactive)
REMARK    1  A    between atoms: C_4  and  S_26 
REMARK    2  A    between atoms: C_5  and  N_8 
REMARK    3  A    between atoms: N_10  and  C_12 
REMARK    4  A    between atoms: C_14  and  C_22 
REMARK    5  A    between atoms: C_22  and  O_24 
ROOT
HETATM    1  S   UNL     1     -18.812 -12.383  -6.975  1.00  0.00     0.327 S 
HETATM    2  O   UNL     1     -19.275 -13.560  -6.273  1.00  0.00    -0.191 OA
HETATM    3  O   UNL     1     -19.708 -11.221  -6.840  1.00  0.00    -0.086 OA
HETATM    4  O   UNL     1     -18.315 -12.553  -8.337  1.00  0.00    -0.191 OA
HETATM    5 NA   UNL     2     -20.983  -9.741  -6.436  1.00  0.00     0.000 Na
ENDROOT
BRANCH   1   6
HETATM    6  C   UNL     1     -17.327 -11.884  -6.090  1.00  0.00     0.117 A 
HETATM    7  C   UNL     1     -16.107 -12.349  -6.624  1.00  0.00     0.035 A 
HETATM    8  C   UNL     1     -14.898 -12.092  -5.993  1.00  0.00    -0.060 A 
HETATM    9  C   UNL     1     -13.611 -12.532  -6.616  1.00  0.00     0.048 C 
HETATM   10  C   UNL     1     -14.916 -11.371  -4.802  1.00  0.00     0.009 A 
HETATM   11  C   UNL     1     -16.134 -10.905  -4.275  1.00  0.00     0.033 A 
HETATM   12  C   UNL     1     -17.381 -11.137  -4.897  1.00  0.00     0.072 A 
BRANCH  12  13
HETATM   13  N   UNL     1     -18.587 -10.591  -4.352  1.00  0.00    -0.299 N 
HETATM   14  N   UNL     1     -18.451 -10.238  -3.150  1.00  0.00    -0.296 N 
ATOM     15  HN  UNL     1     -17.603 -10.442  -2.620  1.00  0.00     0.187 HD
ATOM     16  HN  UNL     1     -19.457 -10.498  -4.876  1.00  0.00     0.187 HD
BRANCH  14  17
HETATM   17  C   UNL     1     -19.566  -9.526  -2.566  1.00  0.00     0.110 A 
HETATM   18  C   UNL     1     -20.133  -8.365  -3.203  1.00  0.00     0.217 A 
HETATM   19  C   UNL     1     -21.274  -7.795  -2.546  1.00  0.00     0.090 A 
HETATM   20  O   UNL     1     -19.704  -7.869  -4.306  1.00  0.00    -0.285 OA
HETATM   21  C   UNL     1     -21.880  -8.404  -1.438  1.00  0.00     0.034 A 
HETATM   22  C   UNL     1     -21.391  -9.588  -0.904  1.00  0.00    -0.022 A 
HETATM   23  C   UNL     1     -22.119 -10.225   0.117  1.00  0.00     0.012 A 
HETATM   24  C   UNL     1     -20.195 -10.141  -1.413  1.00  0.00     0.006 A 
HETATM   25  C   UNL     1     -21.669 -11.412   0.681  1.00  0.00     0.001 A 
HETATM   26  C   UNL     1     -20.459 -11.945   0.261  1.00  0.00     0.001 A 
HETATM   27  C   UNL     1     -19.730 -11.314  -0.762  1.00  0.00     0.015 A 
BRANCH  19  28
HETATM   28  C   UNL     1     -21.956  -6.527  -3.010  1.00  0.00     0.180 C 
HETATM   29  O   UNL     1     -22.282  -6.328  -4.174  1.00  0.00    -0.646 OA
BRANCH  28  30
HETATM   30  O   UNL     1     -22.191  -5.619  -2.036  1.00  0.00    -0.773 OA
HETATM   31  H   UNL     1     -22.081  -6.097  -1.170  1.00  0.00     0.167 HD
ENDBRANCH  28  30
ENDBRANCH  19  28
ENDBRANCH  14  17
ENDBRANCH  12  13
ENDBRANCH   1   6
TORSDOF 5
ENDMDL
MODEL 7
REMARK VINA RESULT:      -7.2      2.181      2.579
REMARK  5 active torsions:
REMARK  status: ('A' for Active; 'I' for Inactive)
REMARK    1  A    between atoms: C_4  and  S_26 
REMARK    2  A    between atoms: C_5  and  N_8 
REMARK    3  A    between atoms: N_10  and  C_12 
REMARK    4  A    between atoms: C_14  and  C_22 
REMARK    5  A    between atoms: C_22  and  O_24 
ROOT
HETATM    1  S   UNL     1     -16.549 -10.962  -2.716  1.00  0.00     0.327 S 
HETATM    2  O   UNL     1     -15.553 -11.799  -2.082  1.00  0.00    -0.191 OA
HETATM    3  O   UNL     1     -15.986  -9.989  -3.668  1.00  0.00    -0.086 OA
HETATM    4  O   UNL     1     -17.589 -10.383  -1.871  1.00  0.00    -0.191 OA
HETATM    5 NA   UNL     2     -15.044  -8.836  -4.997  1.00  0.00     0.000 Na
ENDROOT
BRANCH   1   6
HETATM    6  C   UNL     1     -17.488 -12.087  -3.758  1.00  0.00     0.117 A 
HETATM    7  C   UNL     1     -17.060 -13.432  -3.753  1.00  0.00     0.035 A 
HETATM    8  C   UNL     1     -17.658 -14.383  -4.570  1.00  0.00    -0.060 A 
HETATM    9  C   UNL     1     -17.237 -15.816  -4.495  1.00  0.00     0.048 C 
HETATM   10  C   UNL     1     -18.689 -13.974  -5.411  1.00  0.00     0.009 A 
HETATM   11  C   UNL     1     -19.116 -12.634  -5.410  1.00  0.00     0.033 A 
HETATM   12  C   UNL     1     -18.539 -11.644  -4.584  1.00  0.00     0.072 A 
BRANCH  12  13
HETATM   13  N   UNL     1     -19.048 -10.305  -4.576  1.00  0.00    -0.299 N 
HETATM   14  N   UNL     1     -20.009 -10.165  -3.773  1.00  0.00    -0.296 N 
ATOM     15  HN  UNL     1     -20.430 -10.959  -3.290  1.00  0.00     0.187 HD
ATOM     16  HN  UNL     1     -18.676  -9.552  -5.154  1.00  0.00     0.187 HD
BRANCH  14  17
HETATM   17  C   UNL     1     -20.482  -8.813  -3.576  1.00  0.00     0.110 A 
HETATM   18  C   UNL     1     -20.601  -7.891  -4.677  1.00  0.00     0.217 A 
HETATM   19  C   UNL     1     -21.142  -6.603  -4.348  1.00  0.00     0.090 A 
HETATM   20  O   UNL     1     -20.296  -8.176  -5.890  1.00  0.00    -0.285 OA
HETATM   21  C   UNL     1     -21.649  -6.308  -3.075  1.00  0.00     0.034 A 
HETATM   22  C   UNL     1     -21.634  -7.247  -2.053  1.00  0.00    -0.022 A 
HETATM   23  C   UNL     1     -22.279  -6.943  -0.841  1.00  0.00     0.012 A 
HETATM   24  C   UNL     1     -21.000  -8.493  -2.260  1.00  0.00     0.006 A 
HETATM   25  C   UNL     1     -22.291  -7.852   0.209  1.00  0.00     0.001 A 
HETATM   26  C   UNL     1     -21.613  -9.055   0.071  1.00  0.00     0.001 A 
HETATM   27  C   UNL     1     -20.971  -9.365  -1.140  1.00  0.00     0.015 A 
BRANCH  19  28
HETATM   28  C   UNL     1     -21.265  -5.471  -5.345  1.00  0.00     0.180 C 
HETATM   29  O   UNL     1     -22.264  -5.284  -6.028  1.00  0.00    -0.646 OA
BRANCH  28  30
HETATM   30  O   UNL     1     -20.181  -4.666  -5.426  1.00  0.00    -0.773 OA
HETATM   31  H   UNL     1     -19.517  -5.018  -4.773  1.00  0.00     0.167 HD
ENDBRANCH  28  30
ENDBRANCH  19  28
ENDBRANCH  14  17
ENDBRANCH  12  13
ENDBRANCH   1   6
TORSDOF 5
ENDMDL
MODEL 8
REMARK VINA RESULT:      -7.2      1.991      2.152
REMARK  5 active torsions:
REMARK  status: ('A' for Active; 'I' for Inactive)
REMARK    1  A    between atoms: C_4  and  S_26 
REMARK    2  A    between atoms: C_5  and  N_8 
REMARK    3  A    between atoms: N_10  and  C_12 
REMARK    4  A    between atoms: C_14  and  C_22 
REMARK    5  A    between atoms: C_22  and  O_24 
ROOT
HETATM    1  S   UNL     1     -18.778 -11.753  -6.866  1.00  0.00     0.327 S 
HETATM    2  O   UNL     1     -18.162 -12.650  -7.820  1.00  0.00    -0.191 OA
HETATM    3  O   UNL     1     -20.229 -11.589  -7.059  1.00  0.00    -0.086 OA
HETATM    4  O   UNL     1     -18.104 -10.490  -6.584  1.00  0.00    -0.191 OA
HETATM    5 NA   UNL     2     -22.194 -11.597  -7.410  1.00  0.00     0.000 Na
ENDROOT
BRANCH   1   6
HETATM    6  C   UNL     1     -18.650 -12.612  -5.291  1.00  0.00     0.117 A 
HETATM    7  C   UNL     1     -17.844 -13.770  -5.285  1.00  0.00     0.035 A 
HETATM    8  C   UNL     1     -17.723 -14.560  -4.149  1.00  0.00    -0.060 A 
HETATM    9  C   UNL     1     -16.805 -15.741  -4.144  1.00  0.00     0.048 C 
HETATM   10  C   UNL     1     -18.431 -14.189  -3.010  1.00  0.00     0.009 A 
HETATM   11  C   UNL     1     -19.231 -13.032  -3.018  1.00  0.00     0.033 A 
HETATM   12  C   UNL     1     -19.367 -12.199  -4.151  1.00  0.00     0.072 A 
BRANCH  12  13
HETATM   13  N   UNL     1     -20.146 -10.999  -4.091  1.00  0.00    -0.299 N 
HETATM   14  N   UNL     1     -19.708 -10.188  -3.231  1.00  0.00    -0.296 N 
ATOM     15  HN  UNL     1     -18.958 -10.437  -2.586  1.00  0.00     0.187 HD
ATOM     16  HN  UNL     1     -20.962 -10.821  -4.676  1.00  0.00     0.187 HD
BRANCH  14  17
HETATM   17  C   UNL     1     -20.330  -8.883  -3.213  1.00  0.00     0.110 A 
HETATM   18  C   UNL     1     -20.506  -8.117  -4.421  1.00  0.00     0.217 A 
HETATM   19  C   UNL     1     -21.195  -6.867  -4.265  1.00  0.00     0.090 A 
HETATM   20  O   UNL     1     -20.127  -8.510  -5.582  1.00  0.00    -0.285 OA
HETATM   21  C   UNL     1     -21.777  -6.481  -3.050  1.00  0.00     0.034 A 
HETATM   22  C   UNL     1     -21.699  -7.284  -1.921  1.00  0.00    -0.022 A 
HETATM   23  C   UNL     1     -22.418  -6.912  -0.771  1.00  0.00     0.012 A 
HETATM   24  C   UNL     1     -20.928  -8.467  -1.958  1.00  0.00     0.006 A 
HETATM   25  C   UNL     1     -22.371  -7.685   0.382  1.00  0.00     0.001 A 
HETATM   26  C   UNL     1     -21.564  -8.813   0.408  1.00  0.00     0.001 A 
HETATM   27  C   UNL     1     -20.847  -9.191  -0.740  1.00  0.00     0.015 A 
BRANCH  19  28
HETATM   28  C   UNL     1     -21.400  -5.883  -5.396  1.00  0.00     0.180 C 
HETATM   29  O   UNL     1     -22.492  -5.404  -5.678  1.00  0.00    -0.646 OA
BRANCH  28  30
HETATM   30  O   UNL     1     -20.278  -5.559  -6.078  1.00  0.00    -0.773 OA
HETATM   31  H   UNL     1     -20.458  -4.686  -6.520  1.00  0.00     0.167 HD
ENDBRANCH  28  30
ENDBRANCH  19  28
ENDBRANCH  14  17
ENDBRANCH  12  13
ENDBRANCH   1   6
TORSDOF 5
ENDMDL
MODEL 9
REMARK VINA RESULT:      -7.2      2.144      7.012
REMARK  5 active torsions:
REMARK  status: ('A' for Active; 'I' for Inactive)
REMARK    1  A    between atoms: C_4  and  S_26 
REMARK    2  A    between atoms: C_5  and  N_8 
REMARK    3  A    between atoms: N_10  and  C_12 
REMARK    4  A    between atoms: C_14  and  C_22 
REMARK    5  A    between atoms: C_22  and  O_24 
ROOT
HETATM    1  S   UNL     1     -21.266  -7.152  -5.163  1.00  0.00     0.327 S 
HETATM    2  O   UNL     1     -20.005  -6.517  -5.479  1.00  0.00    -0.191 OA
HETATM    3  O   UNL     1     -21.563  -8.327  -5.999  1.00  0.00    -0.086 OA
HETATM    4  O   UNL     1     -22.430  -6.294  -4.967  1.00  0.00    -0.191 OA
HETATM    5 NA   UNL     2     -21.721  -9.953  -7.147  1.00  0.00     0.000 Na
ENDROOT
BRANCH   1   6
HETATM    6  C   UNL     1     -21.024  -7.844  -3.521  1.00  0.00     0.117 A 
HETATM    7  C   UNL     1     -21.801  -7.272  -2.492  1.00  0.00     0.035 A 
HETATM    8  C   UNL     1     -21.654  -7.670  -1.169  1.00  0.00    -0.060 A 
HETATM    9  C   UNL     1     -22.540  -7.102  -0.106  1.00  0.00     0.048 C 
HETATM   10  C   UNL     1     -20.705  -8.645  -0.877  1.00  0.00     0.009 A 
HETATM   11  C   UNL     1     -19.935  -9.216  -1.905  1.00  0.00     0.033 A 
HETATM   12  C   UNL     1     -20.067  -8.844  -3.262  1.00  0.00     0.072 A 
BRANCH  12  13
HETATM   13  N   UNL     1     -19.302  -9.498  -4.281  1.00  0.00    -0.299 N 
HETATM   14  N   UNL     1     -18.861 -10.617  -3.903  1.00  0.00    -0.296 N 
ATOM     15  HN  UNL     1     -18.954 -10.936  -2.939  1.00  0.00     0.187 HD
ATOM     16  HN  UNL     1     -19.132  -9.103  -5.206  1.00  0.00     0.187 HD
BRANCH  14  17
HETATM   17  C   UNL     1     -18.216 -11.422  -4.917  1.00  0.00     0.110 A 
HETATM   18  C   UNL     1     -18.853 -11.689  -6.182  1.00  0.00     0.217 A 
HETATM   19  C   UNL     1     -18.073 -12.448  -7.117  1.00  0.00     0.090 A 
HETATM   20  O   UNL     1     -20.017 -11.259  -6.505  1.00  0.00    -0.285 OA
HETATM   21  C   UNL     1     -16.736 -12.789  -6.873  1.00  0.00     0.034 A 
HETATM   22  C   UNL     1     -16.098 -12.423  -5.696  1.00  0.00    -0.022 A 
HETATM   23  C   UNL     1     -14.719 -12.670  -5.564  1.00  0.00     0.012 A 
HETATM   24  C   UNL     1     -16.835 -11.788  -4.671  1.00  0.00     0.006 A 
HETATM   25  C   UNL     1     -14.039 -12.321  -4.405  1.00  0.00     0.001 A 
HETATM   26  C   UNL     1     -14.744 -11.766  -3.347  1.00  0.00     0.001 A 
HETATM   27  C   UNL     1     -16.121 -11.513  -3.475  1.00  0.00     0.015 A 
BRANCH  19  28
HETATM   28  C   UNL     1     -18.597 -12.904  -8.461  1.00  0.00     0.180 C 
HETATM   29  O   UNL     1     -17.880 -13.058  -9.443  1.00  0.00    -0.646 OA
BRANCH  28  30
HETATM   30  O   UNL     1     -19.928 -13.139  -8.503  1.00  0.00    -0.773 OA
HETATM   31  H   UNL     1     -20.052 -14.106  -8.304  1.00  0.00     0.167 HD
ENDBRANCH  28  30
ENDBRANCH  19  28
ENDBRANCH  14  17
ENDBRANCH  12  13
ENDBRANCH   1   6
TORSDOF 5
ENDMDL
