MODEL 1
REMARK VINA RESULT:      -6.2      0.000      0.000
REMARK  17 active torsions:
REMARK  status: ('A' for Active; 'I' for Inactive)
REMARK    1  A    between atoms: C_2  and  C_3 
REMARK    2  A    between atoms: C_3  and  C_4 
REMARK    3  A    between atoms: C_4  and  C_5 
REMARK    4  A    between atoms: C_5  and  C_6 
REMARK    5  A    between atoms: C_6  and  C_7 
REMARK    6  A    between atoms: C_7  and  C_8 
REMARK    7  A    between atoms: C_8  and  C_9 
REMARK    8  A    between atoms: C_9  and  C_10 
REMARK    9  A    between atoms: C_10  and  C_11 
REMARK   10  A    between atoms: C_11  and  C_12 
REMARK   11  A    between atoms: C_12  and  O_13 
REMARK   12  A    between atoms: O_13  and  C_14 
REMARK   13  A    between atoms: C_14  and  C_15 
REMARK   14  A    between atoms: C_15  and  O_16 
REMARK   15  A    between atoms: O_16  and  C_17 
REMARK   16  A    between atoms: C_17  and  C_18 
REMARK   17  A    between atoms: C_18  and  O_19 
ROOT
HETATM    1  C   UNL     1     -20.878  -4.176  -7.284  1.00  0.00     0.002 C 
ENDROOT
BRANCH   1   2
HETATM    2  C   UNL     1     -20.291  -4.973  -6.125  1.00  0.00     0.000 C 
BRANCH   2   3
HETATM    3  C   UNL     1     -20.683  -6.443  -6.242  1.00  0.00     0.000 C 
BRANCH   3   4
HETATM    4  C   UNL     1     -20.652  -7.126  -4.881  1.00  0.00     0.000 C 
BRANCH   4   5
HETATM    5  C   UNL     1     -21.872  -6.736  -4.053  1.00  0.00     0.000 C 
BRANCH   5   6
HETATM    6  C   UNL     1     -21.449  -6.030  -2.770  1.00  0.00     0.000 C 
BRANCH   6   7
HETATM    7  C   UNL     1     -22.165  -6.621  -1.559  1.00  0.00     0.000 C 
BRANCH   7   8
HETATM    8  C   UNL     1     -21.354  -7.766  -0.958  1.00  0.00    -0.000 C 
BRANCH   8   9
HETATM    9  C   UNL     1     -21.907  -8.178   0.404  1.00  0.00    -0.005 C 
HETATM   10  C   UNL     1     -23.352  -8.633   0.291  1.00  0.00     0.005 C 
ENDBRANCH   8   9
ENDBRANCH   7   8
ENDBRANCH   6   7
ENDBRANCH   5   6
ENDBRANCH   4   5
ENDBRANCH   3   4
ENDBRANCH   2   3
ENDBRANCH   1   2
BRANCH   1  11
HETATM   11  C   UNL     1     -20.232  -4.562  -8.609  1.00  0.00     0.026 C 
BRANCH  11  12
HETATM   12  C   UNL     1     -21.054  -4.029  -9.773  1.00  0.00     0.167 C 
BRANCH  12  13
HETATM   13  O   UNL     1     -22.353  -4.609  -9.718  1.00  0.00    -0.389 OA
BRANCH  13  14
HETATM   14  C   UNL     1     -23.006  -4.525 -10.983  1.00  0.00     0.193 C 
BRANCH  14  15
HETATM   15  C   UNL     1     -24.248  -3.658 -10.843  1.00  0.00     0.193 C 
BRANCH  15  16
HETATM   16  O   UNL     1     -24.330  -2.778 -11.960  1.00  0.00    -0.387 OA
BRANCH  16  17
HETATM   17  C   UNL     1     -23.080  -2.716 -12.657  1.00  0.00     0.193 C 
BRANCH  17  18
HETATM   18  C   UNL     1     -23.390  -2.569 -14.139  1.00  0.00     0.190 C 
BRANCH  18  19
HETATM   19  O   UNL     1     -23.803  -3.828 -14.667  1.00  0.00    -0.399 OA
HETATM   20  H   UNL     1     -23.059  -4.116 -15.234  1.00  0.00     0.209 HD
ENDBRANCH  18  19
ENDBRANCH  17  18
ENDBRANCH  16  17
ENDBRANCH  15  16
ENDBRANCH  14  15
ENDBRANCH  13  14
ENDBRANCH  12  13
ENDBRANCH  11  12
ENDBRANCH   1  11
TORSDOF 17
ENDMDL
MODEL 2
REMARK VINA RESULT:      -6.0     12.660     14.622
REMARK  17 active torsions:
REMARK  status: ('A' for Active; 'I' for Inactive)
REMARK    1  A    between atoms: C_2  and  C_3 
REMARK    2  A    between atoms: C_3  and  C_4 
REMARK    3  A    between atoms: C_4  and  C_5 
REMARK    4  A    between atoms: C_5  and  C_6 
REMARK    5  A    between atoms: C_6  and  C_7 
REMARK    6  A    between atoms: C_7  and  C_8 
REMARK    7  A    between atoms: C_8  and  C_9 
REMARK    8  A    between atoms: C_9  and  C_10 
REMARK    9  A    between atoms: C_10  and  C_11 
REMARK   10  A    between atoms: C_11  and  C_12 
REMARK   11  A    between atoms: C_12  and  O_13 
REMARK   12  A    between atoms: O_13  and  C_14 
REMARK   13  A    between atoms: C_14  and  C_15 
REMARK   14  A    between atoms: C_15  and  O_16 
REMARK   15  A    between atoms: O_16  and  C_17 
REMARK   16  A    between atoms: C_17  and  C_18 
REMARK   17  A    between atoms: C_18  and  O_19 
ROOT
HETATM    1  C   UNL     1     -34.795   0.538 -14.756  1.00  0.00     0.002 C 
ENDROOT
BRANCH   1   2
HETATM    2  C   UNL     1     -34.970   0.591 -13.244  1.00  0.00     0.000 C 
BRANCH   2   3
HETATM    3  C   UNL     1     -35.912  -0.516 -12.781  1.00  0.00     0.000 C 
BRANCH   3   4
HETATM    4  C   UNL     1     -35.132  -1.737 -12.310  1.00  0.00     0.000 C 
BRANCH   4   5
HETATM    5  C   UNL     1     -35.047  -1.769 -10.787  1.00  0.00     0.000 C 
BRANCH   5   6
HETATM    6  C   UNL     1     -33.824  -2.556 -10.332  1.00  0.00     0.000 C 
BRANCH   6   7
HETATM    7  C   UNL     1     -33.095  -3.171 -11.523  1.00  0.00     0.000 C 
BRANCH   7   8
HETATM    8  C   UNL     1     -33.208  -4.693 -11.497  1.00  0.00    -0.000 C 
BRANCH   8   9
HETATM    9  C   UNL     1     -34.155  -5.156 -10.392  1.00  0.00    -0.005 C 
HETATM   10  C   UNL     1     -34.443  -6.643 -10.508  1.00  0.00     0.005 C 
ENDBRANCH   8   9
ENDBRANCH   7   8
ENDBRANCH   6   7
ENDBRANCH   5   6
ENDBRANCH   4   5
ENDBRANCH   3   4
ENDBRANCH   2   3
ENDBRANCH   1   2
BRANCH   1  11
HETATM   11  C   UNL     1     -36.108   0.219 -15.458  1.00  0.00     0.026 C 
BRANCH  11  12
HETATM   12  C   UNL     1     -35.910  -0.900 -16.469  1.00  0.00     0.167 C 
BRANCH  12  13
HETATM   13  O   UNL     1     -35.135  -1.930 -15.864  1.00  0.00    -0.389 OA
BRANCH  13  14
HETATM   14  C   UNL     1     -34.461  -2.711 -16.849  1.00  0.00     0.193 C 
BRANCH  14  15
HETATM   15  C   UNL     1     -34.078  -4.051 -16.241  1.00  0.00     0.193 C 
BRANCH  15  16
HETATM   16  O   UNL     1     -32.676  -4.064 -15.987  1.00  0.00    -0.387 OA
BRANCH  16  17
HETATM   17  C   UNL     1     -31.940  -4.312 -17.191  1.00  0.00     0.193 C 
BRANCH  17  18
HETATM   18  C   UNL     1     -31.104  -5.563 -16.965  1.00  0.00     0.190 C 
BRANCH  18  19
HETATM   19  O   UNL     1     -30.372  -5.434 -15.747  1.00  0.00    -0.399 OA
HETATM   20  H   UNL     1     -29.479  -5.143 -16.023  1.00  0.00     0.209 HD
ENDBRANCH  18  19
ENDBRANCH  17  18
ENDBRANCH  16  17
ENDBRANCH  15  16
ENDBRANCH  14  15
ENDBRANCH  13  14
ENDBRANCH  12  13
ENDBRANCH  11  12
ENDBRANCH   1  11
TORSDOF 17
ENDMDL
MODEL 3
REMARK VINA RESULT:      -6.0      1.497      2.677
REMARK  17 active torsions:
REMARK  status: ('A' for Active; 'I' for Inactive)
REMARK    1  A    between atoms: C_2  and  C_3 
REMARK    2  A    between atoms: C_3  and  C_4 
REMARK    3  A    between atoms: C_4  and  C_5 
REMARK    4  A    between atoms: C_5  and  C_6 
REMARK    5  A    between atoms: C_6  and  C_7 
REMARK    6  A    between atoms: C_7  and  C_8 
REMARK    7  A    between atoms: C_8  and  C_9 
REMARK    8  A    between atoms: C_9  and  C_10 
REMARK    9  A    between atoms: C_10  and  C_11 
REMARK   10  A    between atoms: C_11  and  C_12 
REMARK   11  A    between atoms: C_12  and  O_13 
REMARK   12  A    between atoms: O_13  and  C_14 
REMARK   13  A    between atoms: C_14  and  C_15 
REMARK   14  A    between atoms: C_15  and  O_16 
REMARK   15  A    between atoms: O_16  and  C_17 
REMARK   16  A    between atoms: C_17  and  C_18 
REMARK   17  A    between atoms: C_18  and  O_19 
ROOT
HETATM    1  C   UNL     1     -21.579  -4.010  -9.875  1.00  0.00     0.002 C 
ENDROOT
BRANCH   1   2
HETATM    2  C   UNL     1     -20.327  -4.617  -9.256  1.00  0.00     0.000 C 
BRANCH   2   3
HETATM    3  C   UNL     1     -20.015  -3.941  -7.923  1.00  0.00     0.000 C 
BRANCH   3   4
HETATM    4  C   UNL     1     -19.894  -4.968  -6.805  1.00  0.00     0.000 C 
BRANCH   4   5
HETATM    5  C   UNL     1     -21.230  -5.151  -6.092  1.00  0.00     0.000 C 
BRANCH   5   6
HETATM    6  C   UNL     1     -21.033  -5.843  -4.748  1.00  0.00     0.000 C 
BRANCH   6   7
HETATM    7  C   UNL     1     -21.794  -7.165  -4.698  1.00  0.00     0.000 C 
BRANCH   7   8
HETATM    8  C   UNL     1     -21.477  -7.921  -3.411  1.00  0.00    -0.000 C 
BRANCH   8   9
HETATM    9  C   UNL     1     -21.110  -6.960  -2.283  1.00  0.00    -0.005 C 
HETATM   10  C   UNL     1     -22.338  -6.567  -1.479  1.00  0.00     0.005 C 
ENDBRANCH   8   9
ENDBRANCH   7   8
ENDBRANCH   6   7
ENDBRANCH   5   6
ENDBRANCH   4   5
ENDBRANCH   3   4
ENDBRANCH   2   3
ENDBRANCH   1   2
BRANCH   1  11
HETATM   11  C   UNL     1     -22.844  -4.580  -9.247  1.00  0.00     0.026 C 
BRANCH  11  12
HETATM   12  C   UNL     1     -24.049  -3.726  -9.613  1.00  0.00     0.167 C 
BRANCH  12  13
HETATM   13  O   UNL     1     -23.702  -2.896 -10.716  1.00  0.00    -0.389 OA
BRANCH  13  14
HETATM   14  C   UNL     1     -24.533  -3.166 -11.843  1.00  0.00     0.193 C 
BRANCH  14  15
HETATM   15  C   UNL     1     -23.682  -3.757 -12.956  1.00  0.00     0.193 C 
BRANCH  15  16
HETATM   16  O   UNL     1     -22.857  -2.733 -13.505  1.00  0.00    -0.387 OA
BRANCH  16  17
HETATM   17  C   UNL     1     -23.207  -2.471 -14.870  1.00  0.00     0.193 C 
BRANCH  17  18
HETATM   18  C   UNL     1     -23.518  -0.987 -14.985  1.00  0.00     0.190 C 
BRANCH  18  19
HETATM   19  O   UNL     1     -24.859  -0.746 -14.560  1.00  0.00    -0.399 OA
HETATM   20  H   UNL     1     -24.822   0.115 -14.096  1.00  0.00     0.209 HD
ENDBRANCH  18  19
ENDBRANCH  17  18
ENDBRANCH  16  17
ENDBRANCH  15  16
ENDBRANCH  14  15
ENDBRANCH  13  14
ENDBRANCH  12  13
ENDBRANCH  11  12
ENDBRANCH   1  11
TORSDOF 17
ENDMDL
MODEL 4
REMARK VINA RESULT:      -5.9      1.483      2.485
REMARK  17 active torsions:
REMARK  status: ('A' for Active; 'I' for Inactive)
REMARK    1  A    between atoms: C_2  and  C_3 
REMARK    2  A    between atoms: C_3  and  C_4 
REMARK    3  A    between atoms: C_4  and  C_5 
REMARK    4  A    between atoms: C_5  and  C_6 
REMARK    5  A    between atoms: C_6  and  C_7 
REMARK    6  A    between atoms: C_7  and  C_8 
REMARK    7  A    between atoms: C_8  and  C_9 
REMARK    8  A    between atoms: C_9  and  C_10 
REMARK    9  A    between atoms: C_10  and  C_11 
REMARK   10  A    between atoms: C_11  and  C_12 
REMARK   11  A    between atoms: C_12  and  O_13 
REMARK   12  A    between atoms: O_13  and  C_14 
REMARK   13  A    between atoms: C_14  and  C_15 
REMARK   14  A    between atoms: C_15  and  O_16 
REMARK   15  A    between atoms: O_16  and  C_17 
REMARK   16  A    between atoms: C_17  and  C_18 
REMARK   17  A    between atoms: C_18  and  O_19 
ROOT
HETATM    1  C   UNL     1     -20.536  -5.193  -5.570  1.00  0.00     0.002 C 
ENDROOT
BRANCH   1   2
HETATM    2  C   UNL     1     -20.364  -6.705  -5.644  1.00  0.00     0.000 C 
BRANCH   2   3
HETATM    3  C   UNL     1     -20.860  -7.358  -4.357  1.00  0.00     0.000 C 
BRANCH   3   4
HETATM    4  C   UNL     1     -21.942  -6.512  -3.697  1.00  0.00     0.000 C 
BRANCH   4   5
HETATM    5  C   UNL     1     -21.835  -6.589  -2.177  1.00  0.00     0.000 C 
BRANCH   5   6
HETATM    6  C   UNL     1     -20.864  -7.687  -1.760  1.00  0.00     0.000 C 
BRANCH   6   7
HETATM    7  C   UNL     1     -21.244  -8.265  -0.400  1.00  0.00     0.000 C 
BRANCH   7   8
HETATM    8  C   UNL     1     -22.615  -7.757   0.038  1.00  0.00    -0.000 C 
BRANCH   8   9
HETATM    9  C   UNL     1     -23.526  -8.912   0.446  1.00  0.00    -0.005 C 
HETATM   10  C   UNL     1     -23.280 -10.134  -0.422  1.00  0.00     0.005 C 
ENDBRANCH   8   9
ENDBRANCH   7   8
ENDBRANCH   6   7
ENDBRANCH   5   6
ENDBRANCH   4   5
ENDBRANCH   3   4
ENDBRANCH   2   3
ENDBRANCH   1   2
BRANCH   1  11
HETATM   11  C   UNL     1     -20.074  -4.516  -6.854  1.00  0.00     0.026 C 
BRANCH  11  12
HETATM   12  C   UNL     1     -21.251  -3.861  -7.560  1.00  0.00     0.167 C 
BRANCH  12  13
HETATM   13  O   UNL     1     -21.627  -4.670  -8.670  1.00  0.00    -0.389 OA
BRANCH  13  14
HETATM   14  C   UNL     1     -20.819  -4.384  -9.810  1.00  0.00     0.193 C 
BRANCH  14  15
HETATM   15  C   UNL     1     -21.712  -4.295 -11.039  1.00  0.00     0.193 C 
BRANCH  15  16
HETATM   16  O   UNL     1     -22.445  -3.074 -10.994  1.00  0.00    -0.387 OA
BRANCH  16  17
HETATM   17  C   UNL     1     -23.808  -3.281 -11.386  1.00  0.00     0.193 C 
BRANCH  17  18
HETATM   18  C   UNL     1     -24.562  -3.790 -10.167  1.00  0.00     0.190 C 
BRANCH  18  19
HETATM   19  O   UNL     1     -24.243  -2.980  -9.036  1.00  0.00    -0.399 OA
HETATM   20  H   UNL     1     -25.095  -2.580  -8.769  1.00  0.00     0.209 HD
ENDBRANCH  18  19
ENDBRANCH  17  18
ENDBRANCH  16  17
ENDBRANCH  15  16
ENDBRANCH  14  15
ENDBRANCH  13  14
ENDBRANCH  12  13
ENDBRANCH  11  12
ENDBRANCH   1  11
TORSDOF 17
ENDMDL
MODEL 5
REMARK VINA RESULT:      -5.6      2.114      3.932
REMARK  17 active torsions:
REMARK  status: ('A' for Active; 'I' for Inactive)
REMARK    1  A    between atoms: C_2  and  C_3 
REMARK    2  A    between atoms: C_3  and  C_4 
REMARK    3  A    between atoms: C_4  and  C_5 
REMARK    4  A    between atoms: C_5  and  C_6 
REMARK    5  A    between atoms: C_6  and  C_7 
REMARK    6  A    between atoms: C_7  and  C_8 
REMARK    7  A    between atoms: C_8  and  C_9 
REMARK    8  A    between atoms: C_9  and  C_10 
REMARK    9  A    between atoms: C_10  and  C_11 
REMARK   10  A    between atoms: C_11  and  C_12 
REMARK   11  A    between atoms: C_12  and  O_13 
REMARK   12  A    between atoms: O_13  and  C_14 
REMARK   13  A    between atoms: C_14  and  C_15 
REMARK   14  A    between atoms: C_15  and  O_16 
REMARK   15  A    between atoms: O_16  and  C_17 
REMARK   16  A    between atoms: C_17  and  C_18 
REMARK   17  A    between atoms: C_18  and  O_19 
ROOT
HETATM    1  C   UNL     1     -21.599  -7.651  -4.739  1.00  0.00     0.002 C 
ENDROOT
BRANCH   1   2
HETATM    2  C   UNL     1     -21.202  -7.448  -3.283  1.00  0.00     0.000 C 
BRANCH   2   3
HETATM    3  C   UNL     1     -21.994  -6.295  -2.674  1.00  0.00     0.000 C 
BRANCH   3   4
HETATM    4  C   UNL     1     -22.288  -6.552  -1.201  1.00  0.00     0.000 C 
BRANCH   4   5
HETATM    5  C   UNL     1     -21.750  -7.913  -0.772  1.00  0.00     0.000 C 
BRANCH   5   6
HETATM    6  C   UNL     1     -22.499  -8.427   0.452  1.00  0.00     0.000 C 
BRANCH   6   7
HETATM    7  C   UNL     1     -23.519  -9.492   0.062  1.00  0.00     0.000 C 
BRANCH   7   8
HETATM    8  C   UNL     1     -22.852 -10.859  -0.060  1.00  0.00    -0.000 C 
BRANCH   8   9
HETATM    9  C   UNL     1     -23.366 -11.616  -1.282  1.00  0.00    -0.005 C 
HETATM   10  C   UNL     1     -22.957 -10.919  -2.569  1.00  0.00     0.005 C 
ENDBRANCH   8   9
ENDBRANCH   7   8
ENDBRANCH   6   7
ENDBRANCH   5   6
ENDBRANCH   4   5
ENDBRANCH   3   4
ENDBRANCH   2   3
ENDBRANCH   1   2
BRANCH   1  11
HETATM   11  C   UNL     1     -21.930  -6.326  -5.416  1.00  0.00     0.026 C 
BRANCH  11  12
HETATM   12  C   UNL     1     -20.707  -5.780  -6.137  1.00  0.00     0.167 C 
BRANCH  12  13
HETATM   13  O   UNL     1     -20.877  -5.977  -7.537  1.00  0.00    -0.389 OA
BRANCH  13  14
HETATM   14  C   UNL     1     -20.535  -4.799  -8.266  1.00  0.00     0.193 C 
BRANCH  14  15
HETATM   15  C   UNL     1     -21.457  -4.676  -9.469  1.00  0.00     0.193 C 
BRANCH  15  16
HETATM   16  O   UNL     1     -22.324  -3.562  -9.279  1.00  0.00    -0.387 OA
BRANCH  16  17
HETATM   17  C   UNL     1     -23.651  -3.995  -8.954  1.00  0.00     0.193 C 
BRANCH  17  18
HETATM   18  C   UNL     1     -24.605  -3.305  -9.917  1.00  0.00     0.190 C 
BRANCH  18  19
HETATM   19  O   UNL     1     -25.950  -3.647  -9.582  1.00  0.00    -0.399 OA
HETATM   20  H   UNL     1     -26.340  -3.970 -10.420  1.00  0.00     0.209 HD
ENDBRANCH  18  19
ENDBRANCH  17  18
ENDBRANCH  16  17
ENDBRANCH  15  16
ENDBRANCH  14  15
ENDBRANCH  13  14
ENDBRANCH  12  13
ENDBRANCH  11  12
ENDBRANCH   1  11
TORSDOF 17
ENDMDL
MODEL 6
REMARK VINA RESULT:      -5.5     12.273     14.674
REMARK  17 active torsions:
REMARK  status: ('A' for Active; 'I' for Inactive)
REMARK    1  A    between atoms: C_2  and  C_3 
REMARK    2  A    between atoms: C_3  and  C_4 
REMARK    3  A    between atoms: C_4  and  C_5 
REMARK    4  A    between atoms: C_5  and  C_6 
REMARK    5  A    between atoms: C_6  and  C_7 
REMARK    6  A    between atoms: C_7  and  C_8 
REMARK    7  A    between atoms: C_8  and  C_9 
REMARK    8  A    between atoms: C_9  and  C_10 
REMARK    9  A    between atoms: C_10  and  C_11 
REMARK   10  A    between atoms: C_11  and  C_12 
REMARK   11  A    between atoms: C_12  and  O_13 
REMARK   12  A    between atoms: O_13  and  C_14 
REMARK   13  A    between atoms: C_14  and  C_15 
REMARK   14  A    between atoms: C_15  and  O_16 
REMARK   15  A    between atoms: O_16  and  C_17 
REMARK   16  A    between atoms: C_17  and  C_18 
REMARK   17  A    between atoms: C_18  and  O_19 
ROOT
HETATM    1  C   UNL     1     -35.377  -1.417 -16.701  1.00  0.00     0.002 C 
ENDROOT
BRANCH   1   2
HETATM    2  C   UNL     1     -36.037  -0.622 -15.581  1.00  0.00     0.000 C 
BRANCH   2   3
HETATM    3  C   UNL     1     -35.214   0.622 -15.260  1.00  0.00     0.000 C 
BRANCH   3   4
HETATM    4  C   UNL     1     -34.860   0.676 -13.780  1.00  0.00     0.000 C 
BRANCH   4   5
HETATM    5  C   UNL     1     -35.642  -0.375 -12.998  1.00  0.00     0.000 C 
BRANCH   5   6
HETATM    6  C   UNL     1     -34.770  -1.004 -11.918  1.00  0.00     0.000 C 
BRANCH   6   7
HETATM    7  C   UNL     1     -34.435  -2.453 -12.260  1.00  0.00     0.000 C 
BRANCH   7   8
HETATM    8  C   UNL     1     -33.350  -2.989 -11.331  1.00  0.00    -0.000 C 
BRANCH   8   9
HETATM    9  C   UNL     1     -32.797  -4.318 -11.839  1.00  0.00    -0.005 C 
HETATM   10  C   UNL     1     -33.533  -5.491 -11.214  1.00  0.00     0.005 C 
ENDBRANCH   8   9
ENDBRANCH   7   8
ENDBRANCH   6   7
ENDBRANCH   5   6
ENDBRANCH   4   5
ENDBRANCH   3   4
ENDBRANCH   2   3
ENDBRANCH   1   2
BRANCH   1  11
HETATM   11  C   UNL     1     -34.760  -2.708 -16.179  1.00  0.00     0.026 C 
BRANCH  11  12
HETATM   12  C   UNL     1     -33.680  -3.201 -17.130  1.00  0.00     0.167 C 
BRANCH  12  13
HETATM   13  O   UNL     1     -32.858  -4.138 -16.441  1.00  0.00    -0.389 OA
BRANCH  13  14
HETATM   14  C   UNL     1     -31.602  -4.299 -17.099  1.00  0.00     0.193 C 
BRANCH  14  15
HETATM   15  C   UNL     1     -31.212  -5.769 -17.066  1.00  0.00     0.193 C 
BRANCH  15  16
HETATM   16  O   UNL     1     -29.834  -5.878 -16.723  1.00  0.00    -0.387 OA
BRANCH  16  17
HETATM   17  C   UNL     1     -29.206  -6.938 -17.453  1.00  0.00     0.193 C 
BRANCH  17  18
HETATM   18  C   UNL     1     -28.091  -6.323 -18.285  1.00  0.00     0.190 C 
BRANCH  18  19
HETATM   19  O   UNL     1     -27.086  -5.796 -17.419  1.00  0.00    -0.399 OA
HETATM   20  H   UNL     1     -27.544  -5.104 -16.900  1.00  0.00     0.209 HD
ENDBRANCH  18  19
ENDBRANCH  17  18
ENDBRANCH  16  17
ENDBRANCH  15  16
ENDBRANCH  14  15
ENDBRANCH  13  14
ENDBRANCH  12  13
ENDBRANCH  11  12
ENDBRANCH   1  11
TORSDOF 17
ENDMDL
MODEL 7
REMARK VINA RESULT:      -5.4      1.228      1.636
REMARK  17 active torsions:
REMARK  status: ('A' for Active; 'I' for Inactive)
REMARK    1  A    between atoms: C_2  and  C_3 
REMARK    2  A    between atoms: C_3  and  C_4 
REMARK    3  A    between atoms: C_4  and  C_5 
REMARK    4  A    between atoms: C_5  and  C_6 
REMARK    5  A    between atoms: C_6  and  C_7 
REMARK    6  A    between atoms: C_7  and  C_8 
REMARK    7  A    between atoms: C_8  and  C_9 
REMARK    8  A    between atoms: C_9  and  C_10 
REMARK    9  A    between atoms: C_10  and  C_11 
REMARK   10  A    between atoms: C_11  and  C_12 
REMARK   11  A    between atoms: C_12  and  O_13 
REMARK   12  A    between atoms: O_13  and  C_14 
REMARK   13  A    between atoms: C_14  and  C_15 
REMARK   14  A    between atoms: C_15  and  O_16 
REMARK   15  A    between atoms: O_16  and  C_17 
REMARK   16  A    between atoms: C_17  and  C_18 
REMARK   17  A    between atoms: C_18  and  O_19 
ROOT
HETATM    1  C   UNL     1     -20.467  -3.938  -7.195  1.00  0.00     0.002 C 
ENDROOT
BRANCH   1   2
HETATM    2  C   UNL     1     -20.596  -4.776  -5.930  1.00  0.00     0.000 C 
BRANCH   2   3
HETATM    3  C   UNL     1     -21.920  -5.535  -5.930  1.00  0.00     0.000 C 
BRANCH   3   4
HETATM    4  C   UNL     1     -21.796  -6.851  -5.173  1.00  0.00     0.000 C 
BRANCH   4   5
HETATM    5  C   UNL     1     -20.330  -7.201  -4.935  1.00  0.00     0.000 C 
BRANCH   5   6
HETATM    6  C   UNL     1     -20.207  -8.504  -4.154  1.00  0.00     0.000 C 
BRANCH   6   7
HETATM    7  C   UNL     1     -20.154  -8.239  -2.652  1.00  0.00     0.000 C 
BRANCH   7   8
HETATM    8  C   UNL     1     -21.508  -8.519  -2.007  1.00  0.00    -0.000 C 
BRANCH   8   9
HETATM    9  C   UNL     1     -22.074  -7.264  -1.347  1.00  0.00    -0.005 C 
HETATM   10  C   UNL     1     -22.644  -7.578   0.026  1.00  0.00     0.005 C 
ENDBRANCH   8   9
ENDBRANCH   7   8
ENDBRANCH   6   7
ENDBRANCH   5   6
ENDBRANCH   4   5
ENDBRANCH   3   4
ENDBRANCH   2   3
ENDBRANCH   1   2
BRANCH   1  11
HETATM   11  C   UNL     1     -19.664  -4.666  -8.266  1.00  0.00     0.026 C 
BRANCH  11  12
HETATM   12  C   UNL     1     -20.379  -4.592  -9.606  1.00  0.00     0.167 C 
BRANCH  12  13
HETATM   13  O   UNL     1     -21.778  -4.744  -9.386  1.00  0.00    -0.389 OA
BRANCH  13  14
HETATM   14  C   UNL     1     -22.531  -4.046 -10.376  1.00  0.00     0.193 C 
BRANCH  14  15
HETATM   15  C   UNL     1     -21.587  -3.181 -11.197  1.00  0.00     0.193 C 
BRANCH  15  16
HETATM   16  O   UNL     1     -22.354  -2.316 -12.030  1.00  0.00    -0.387 OA
BRANCH  16  17
HETATM   17  C   UNL     1     -22.945  -3.041 -13.116  1.00  0.00     0.193 C 
BRANCH  17  18
HETATM   18  C   UNL     1     -23.888  -2.092 -13.839  1.00  0.00     0.190 C 
BRANCH  18  19
HETATM   19  O   UNL     1     -23.575  -2.078 -15.231  1.00  0.00    -0.399 OA
HETATM   20  H   UNL     1     -22.888  -1.387 -15.324  1.00  0.00     0.209 HD
ENDBRANCH  18  19
ENDBRANCH  17  18
ENDBRANCH  16  17
ENDBRANCH  15  16
ENDBRANCH  14  15
ENDBRANCH  13  14
ENDBRANCH  12  13
ENDBRANCH  11  12
ENDBRANCH   1  11
TORSDOF 17
ENDMDL
MODEL 8
REMARK VINA RESULT:      -5.3      3.417      5.948
REMARK  17 active torsions:
REMARK  status: ('A' for Active; 'I' for Inactive)
REMARK    1  A    between atoms: C_2  and  C_3 
REMARK    2  A    between atoms: C_3  and  C_4 
REMARK    3  A    between atoms: C_4  and  C_5 
REMARK    4  A    between atoms: C_5  and  C_6 
REMARK    5  A    between atoms: C_6  and  C_7 
REMARK    6  A    between atoms: C_7  and  C_8 
REMARK    7  A    between atoms: C_8  and  C_9 
REMARK    8  A    between atoms: C_9  and  C_10 
REMARK    9  A    between atoms: C_10  and  C_11 
REMARK   10  A    between atoms: C_11  and  C_12 
REMARK   11  A    between atoms: C_12  and  O_13 
REMARK   12  A    between atoms: O_13  and  C_14 
REMARK   13  A    between atoms: C_14  and  C_15 
REMARK   14  A    between atoms: C_15  and  O_16 
REMARK   15  A    between atoms: O_16  and  C_17 
REMARK   16  A    between atoms: C_17  and  C_18 
REMARK   17  A    between atoms: C_18  and  O_19 
ROOT
HETATM    1  C   UNL     1     -20.694  -9.329  -2.621  1.00  0.00     0.002 C 
ENDROOT
BRANCH   1   2
HETATM    2  C   UNL     1     -20.392  -8.107  -1.763  1.00  0.00     0.000 C 
BRANCH   2   3
HETATM    3  C   UNL     1     -21.689  -7.418  -1.348  1.00  0.00     0.000 C 
BRANCH   3   4
HETATM    4  C   UNL     1     -22.029  -7.723   0.105  1.00  0.00     0.000 C 
BRANCH   4   5
HETATM    5  C   UNL     1     -23.263  -8.614   0.197  1.00  0.00     0.000 C 
BRANCH   5   6
HETATM    6  C   UNL     1     -22.872 -10.086   0.124  1.00  0.00     0.000 C 
BRANCH   6   7
HETATM    7  C   UNL     1     -23.937 -10.899  -0.605  1.00  0.00     0.000 C 
BRANCH   7   8
HETATM    8  C   UNL     1     -23.741 -12.391  -0.355  1.00  0.00    -0.000 C 
BRANCH   8   9
HETATM    9  C   UNL     1     -22.777 -12.634   0.803  1.00  0.00    -0.005 C 
HETATM   10  C   UNL     1     -23.339 -13.655   1.777  1.00  0.00     0.005 C 
ENDBRANCH   8   9
ENDBRANCH   7   8
ENDBRANCH   6   7
ENDBRANCH   5   6
ENDBRANCH   4   5
ENDBRANCH   3   4
ENDBRANCH   2   3
ENDBRANCH   1   2
BRANCH   1  11
HETATM   11  C   UNL     1     -21.574  -8.969  -3.812  1.00  0.00     0.026 C 
BRANCH  11  12
HETATM   12  C   UNL     1     -20.901  -9.384  -5.112  1.00  0.00     0.167 C 
BRANCH  12  13
HETATM   13  O   UNL     1     -21.218  -8.426  -6.116  1.00  0.00    -0.389 OA
BRANCH  13  14
HETATM   14  C   UNL     1     -21.423  -7.134  -5.547  1.00  0.00     0.193 C 
BRANCH  14  15
HETATM   15  C   UNL     1     -20.401  -6.169  -6.129  1.00  0.00     0.193 C 
BRANCH  15  16
HETATM   16  O   UNL     1     -20.525  -6.161  -7.548  1.00  0.00    -0.387 OA
BRANCH  16  17
HETATM   17  C   UNL     1     -20.345  -4.839  -8.070  1.00  0.00     0.193 C 
BRANCH  17  18
HETATM   18  C   UNL     1     -20.994  -3.870  -7.093  1.00  0.00     0.190 C 
BRANCH  18  19
HETATM   19  O   UNL     1     -22.269  -3.470  -7.594  1.00  0.00    -0.399 OA
HETATM   20  H   UNL     1     -22.788  -3.238  -6.797  1.00  0.00     0.209 HD
ENDBRANCH  18  19
ENDBRANCH  17  18
ENDBRANCH  16  17
ENDBRANCH  15  16
ENDBRANCH  14  15
ENDBRANCH  13  14
ENDBRANCH  12  13
ENDBRANCH  11  12
ENDBRANCH   1  11
TORSDOF 17
ENDMDL
MODEL 9
REMARK VINA RESULT:      -5.1      4.788     10.096
REMARK  17 active torsions:
REMARK  status: ('A' for Active; 'I' for Inactive)
REMARK    1  A    between atoms: C_2  and  C_3 
REMARK    2  A    between atoms: C_3  and  C_4 
REMARK    3  A    between atoms: C_4  and  C_5 
REMARK    4  A    between atoms: C_5  and  C_6 
REMARK    5  A    between atoms: C_6  and  C_7 
REMARK    6  A    between atoms: C_7  and  C_8 
REMARK    7  A    between atoms: C_8  and  C_9 
REMARK    8  A    between atoms: C_9  and  C_10 
REMARK    9  A    between atoms: C_10  and  C_11 
REMARK   10  A    between atoms: C_11  and  C_12 
REMARK   11  A    between atoms: C_12  and  O_13 
REMARK   12  A    between atoms: O_13  and  C_14 
REMARK   13  A    between atoms: C_14  and  C_15 
REMARK   14  A    between atoms: C_15  and  O_16 
REMARK   15  A    between atoms: O_16  and  C_17 
REMARK   16  A    between atoms: C_17  and  C_18 
REMARK   17  A    between atoms: C_18  and  O_19 
ROOT
HETATM    1  C   UNL     1     -22.018  -6.349  -4.867  1.00  0.00     0.002 C 
ENDROOT
BRANCH   1   2
HETATM    2  C   UNL     1     -20.997  -6.631  -5.962  1.00  0.00     0.000 C 
BRANCH   2   3
HETATM    3  C   UNL     1     -20.090  -5.421  -6.164  1.00  0.00     0.000 C 
BRANCH   3   4
HETATM    4  C   UNL     1     -20.320  -4.787  -7.529  1.00  0.00     0.000 C 
BRANCH   4   5
HETATM    5  C   UNL     1     -21.433  -3.746  -7.461  1.00  0.00     0.000 C 
BRANCH   5   6
HETATM    6  C   UNL     1     -22.632  -4.183  -8.296  1.00  0.00     0.000 C 
BRANCH   6   7
HETATM    7  C   UNL     1     -22.392  -3.915  -9.779  1.00  0.00     0.000 C 
BRANCH   7   8
HETATM    8  C   UNL     1     -23.264  -4.826 -10.639  1.00  0.00    -0.000 C 
BRANCH   8   9
HETATM    9  C   UNL     1     -23.550  -4.191 -11.998  1.00  0.00    -0.005 C 
HETATM   10  C   UNL     1     -22.397  -3.308 -12.442  1.00  0.00     0.005 C 
ENDBRANCH   8   9
ENDBRANCH   7   8
ENDBRANCH   6   7
ENDBRANCH   5   6
ENDBRANCH   4   5
ENDBRANCH   3   4
ENDBRANCH   2   3
ENDBRANCH   1   2
BRANCH   1  11
HETATM   11  C   UNL     1     -21.359  -6.277  -3.496  1.00  0.00     0.026 C 
BRANCH  11  12
HETATM   12  C   UNL     1     -21.404  -7.636  -2.814  1.00  0.00     0.167 C 
BRANCH  12  13
HETATM   13  O   UNL     1     -21.137  -7.460  -1.427  1.00  0.00    -0.389 OA
BRANCH  13  14
HETATM   14  C   UNL     1     -22.317  -7.085  -0.720  1.00  0.00     0.193 C 
BRANCH  14  15
HETATM   15  C   UNL     1     -22.511  -8.029   0.456  1.00  0.00     0.193 C 
BRANCH  15  16
HETATM   16  O   UNL     1     -23.343  -9.112   0.052  1.00  0.00    -0.387 OA
BRANCH  16  17
HETATM   17  C   UNL     1     -22.569 -10.296  -0.176  1.00  0.00     0.193 C 
BRANCH  17  18
HETATM   18  C   UNL     1     -23.129 -10.977  -1.415  1.00  0.00     0.190 C 
BRANCH  18  19
HETATM   19  O   UNL     1     -24.421 -11.507  -1.124  1.00  0.00    -0.399 OA
HETATM   20  H   UNL     1     -24.457 -12.356  -1.610  1.00  0.00     0.209 HD
ENDBRANCH  18  19
ENDBRANCH  17  18
ENDBRANCH  16  17
ENDBRANCH  15  16
ENDBRANCH  14  15
ENDBRANCH  13  14
ENDBRANCH  12  13
ENDBRANCH  11  12
ENDBRANCH   1  11
TORSDOF 17
ENDMDL
