MODEL 1
REMARK VINA RESULT:      -9.5      0.000      0.000
REMARK  3 active torsions:
REMARK  status: ('A' for Active; 'I' for Inactive)
REMARK    1  A    between atoms: C_4  and  C_7 
REMARK    2  A    between atoms: C_12  and  O_19 
REMARK    3  A    between atoms: C_14  and  O_18 
ROOT
HETATM    1  C   UNL     1     -22.369  -3.859  -9.232  1.00  0.00     0.090 A 
HETATM    2  C   UNL     1     -23.677  -3.663  -9.007  1.00  0.00     0.094 A 
HETATM    3  C   UNL     1     -24.552  -3.318 -10.134  1.00  0.00     0.190 A 
HETATM    4  O   UNL     1     -25.759  -3.147  -9.982  1.00  0.00    -0.287 OA
HETATM    5  C   UNL     1     -23.936  -3.235 -11.458  1.00  0.00     0.081 A 
HETATM    6  C   UNL     1     -24.701  -3.031 -12.612  1.00  0.00     0.085 A 
HETATM    7  C   UNL     1     -24.085  -2.951 -13.857  1.00  0.00     0.074 A 
HETATM    8  C   UNL     1     -22.698  -3.063 -13.935  1.00  0.00     0.071 A 
HETATM    9  C   UNL     1     -21.927  -3.272 -12.793  1.00  0.00     0.075 A 
HETATM   10  C   UNL     1     -22.554  -3.379 -11.552  1.00  0.00     0.095 A 
HETATM   11  O   UNL     1     -21.759  -3.653 -10.464  1.00  0.00    -0.309 OA
ENDROOT
BRANCH   1  12
HETATM   12  C   UNL     1     -21.459  -4.351  -8.172  1.00  0.00    -0.002 A 
HETATM   13  C   UNL     1     -20.062  -4.315  -8.334  1.00  0.00     0.014 A 
HETATM   14  C   UNL     1     -19.202  -4.719  -7.308  1.00  0.00     0.001 A 
HETATM   15  C   UNL     1     -19.723  -5.157  -6.096  1.00  0.00     0.000 A 
HETATM   16  C   UNL     1     -21.103  -5.196  -5.911  1.00  0.00     0.001 A 
HETATM   17  C   UNL     1     -21.964  -4.796  -6.940  1.00  0.00     0.014 A 
ENDBRANCH   1  12
BRANCH   6  18
HETATM   18  O   UNL     1     -26.066  -2.922 -12.590  1.00  0.00    -0.360 OA
HETATM   19  H   UNL     1     -26.446  -3.753 -12.954  1.00  0.00     0.217 HD
ENDBRANCH   6  18
BRANCH   8  20
HETATM   20  O   UNL     1     -22.051  -2.984 -15.132  1.00  0.00    -0.361 OA
HETATM   21  H   UNL     1     -21.243  -3.524 -15.087  1.00  0.00     0.217 HD
ENDBRANCH   8  20
TORSDOF 3
ENDMDL
MODEL 2
REMARK VINA RESULT:      -8.2      3.342      6.116
REMARK  3 active torsions:
REMARK  status: ('A' for Active; 'I' for Inactive)
REMARK    1  A    between atoms: C_4  and  C_7 
REMARK    2  A    between atoms: C_12  and  O_19 
REMARK    3  A    between atoms: C_14  and  O_18 
ROOT
HETATM    1  C   UNL     1     -21.274  -6.551  -4.763  1.00  0.00     0.090 A 
HETATM    2  C   UNL     1     -20.149  -6.786  -5.456  1.00  0.00     0.094 A 
HETATM    3  C   UNL     1     -20.028  -6.259  -6.821  1.00  0.00     0.190 A 
HETATM    4  O   UNL     1     -19.012  -6.432  -7.489  1.00  0.00    -0.287 OA
HETATM    5  C   UNL     1     -21.151  -5.476  -7.337  1.00  0.00     0.081 A 
HETATM    6  C   UNL     1     -21.086  -4.832  -8.578  1.00  0.00     0.085 A 
HETATM    7  C   UNL     1     -22.174  -4.099  -9.044  1.00  0.00     0.074 A 
HETATM    8  C   UNL     1     -23.327  -4.029  -8.267  1.00  0.00     0.071 A 
HETATM    9  C   UNL     1     -23.400  -4.662  -7.027  1.00  0.00     0.075 A 
HETATM   10  C   UNL     1     -22.297  -5.372  -6.553  1.00  0.00     0.095 A 
HETATM   11  O   UNL     1     -22.392  -5.921  -5.297  1.00  0.00    -0.309 OA
ENDROOT
BRANCH   1  12
HETATM   12  C   UNL     1     -21.403  -6.925  -3.335  1.00  0.00    -0.002 A 
HETATM   13  C   UNL     1     -22.175  -6.154  -2.446  1.00  0.00     0.014 A 
HETATM   14  C   UNL     1     -22.350  -6.543  -1.115  1.00  0.00     0.001 A 
HETATM   15  C   UNL     1     -21.765  -7.714  -0.649  1.00  0.00     0.000 A 
HETATM   16  C   UNL     1     -21.002  -8.497  -1.512  1.00  0.00     0.001 A 
HETATM   17  C   UNL     1     -20.822  -8.106  -2.845  1.00  0.00     0.014 A 
ENDBRANCH   1  12
BRANCH   6  18
HETATM   18  O   UNL     1     -19.975  -4.865  -9.376  1.00  0.00    -0.360 OA
HETATM   19  H   UNL     1     -19.186  -4.979  -8.800  1.00  0.00     0.217 HD
ENDBRANCH   6  18
BRANCH   8  20
HETATM   20  O   UNL     1     -24.419  -3.328  -8.686  1.00  0.00    -0.361 OA
HETATM   21  H   UNL     1     -24.473  -3.384  -9.655  1.00  0.00     0.217 HD
ENDBRANCH   8  20
TORSDOF 3
ENDMDL
MODEL 3
REMARK VINA RESULT:      -8.0      1.677      3.728
REMARK  3 active torsions:
REMARK  status: ('A' for Active; 'I' for Inactive)
REMARK    1  A    between atoms: C_4  and  C_7 
REMARK    2  A    between atoms: C_12  and  O_19 
REMARK    3  A    between atoms: C_14  and  O_18 
ROOT
HETATM    1  C   UNL     1     -21.384  -5.234  -7.382  1.00  0.00     0.090 A 
HETATM    2  C   UNL     1     -20.289  -5.215  -8.156  1.00  0.00     0.094 A 
HETATM    3  C   UNL     1     -20.397  -4.730  -9.537  1.00  0.00     0.190 A 
HETATM    4  O   UNL     1     -19.419  -4.677 -10.278  1.00  0.00    -0.287 OA
HETATM    5  C   UNL     1     -21.711  -4.266  -9.981  1.00  0.00     0.081 A 
HETATM    6  C   UNL     1     -21.894  -3.676 -11.236  1.00  0.00     0.085 A 
HETATM    7  C   UNL     1     -23.159  -3.249 -11.632  1.00  0.00     0.074 A 
HETATM    8  C   UNL     1     -24.236  -3.430 -10.768  1.00  0.00     0.071 A 
HETATM    9  C   UNL     1     -24.064  -4.011  -9.514  1.00  0.00     0.075 A 
HETATM   10  C   UNL     1     -22.790  -4.412  -9.112  1.00  0.00     0.095 A 
HETATM   11  O   UNL     1     -22.658  -4.916  -7.840  1.00  0.00    -0.309 OA
ENDROOT
BRANCH   1  12
HETATM   12  C   UNL     1     -21.317  -5.570  -5.940  1.00  0.00    -0.002 A 
HETATM   13  C   UNL     1     -20.365  -4.970  -5.095  1.00  0.00     0.014 A 
HETATM   14  C   UNL     1     -20.344  -5.238  -3.723  1.00  0.00     0.001 A 
HETATM   15  C   UNL     1     -21.280  -6.103  -3.169  1.00  0.00     0.000 A 
HETATM   16  C   UNL     1     -22.235  -6.703  -3.985  1.00  0.00     0.001 A 
HETATM   17  C   UNL     1     -22.254  -6.439  -5.360  1.00  0.00     0.014 A 
ENDBRANCH   1  12
BRANCH   6  18
HETATM   18  O   UNL     1     -20.868  -3.469 -12.119  1.00  0.00    -0.360 OA
HETATM   19  H   UNL     1     -21.257  -3.244 -12.994  1.00  0.00     0.217 HD
ENDBRANCH   6  18
BRANCH   8  20
HETATM   20  O   UNL     1     -25.494  -3.034 -11.116  1.00  0.00    -0.361 OA
HETATM   21  H   UNL     1     -25.994  -2.834 -10.307  1.00  0.00     0.217 HD
ENDBRANCH   8  20
TORSDOF 3
ENDMDL
MODEL 4
REMARK VINA RESULT:      -7.8      4.955      9.016
REMARK  3 active torsions:
REMARK  status: ('A' for Active; 'I' for Inactive)
REMARK    1  A    between atoms: C_4  and  C_7 
REMARK    2  A    between atoms: C_12  and  O_19 
REMARK    3  A    between atoms: C_14  and  O_18 
ROOT
HETATM    1  C   UNL     1     -20.797  -6.229  -5.854  1.00  0.00     0.090 A 
HETATM    2  C   UNL     1     -19.957  -7.271  -5.947  1.00  0.00     0.094 A 
HETATM    3  C   UNL     1     -19.791  -8.161  -4.791  1.00  0.00     0.190 A 
HETATM    4  O   UNL     1     -19.048  -9.138  -4.833  1.00  0.00    -0.287 OA
HETATM    5  C   UNL     1     -20.586  -7.863  -3.599  1.00  0.00     0.081 A 
HETATM    6  C   UNL     1     -20.590  -8.715  -2.489  1.00  0.00     0.085 A 
HETATM    7  C   UNL     1     -21.353  -8.402  -1.368  1.00  0.00     0.074 A 
HETATM    8  C   UNL     1     -22.097  -7.225  -1.362  1.00  0.00     0.071 A 
HETATM    9  C   UNL     1     -22.104  -6.372  -2.464  1.00  0.00     0.075 A 
HETATM   10  C   UNL     1     -21.360  -6.705  -3.595  1.00  0.00     0.095 A 
HETATM   11  O   UNL     1     -21.452  -5.869  -4.682  1.00  0.00    -0.309 OA
ENDROOT
BRANCH   1  12
HETATM   12  C   UNL     1     -21.122  -5.381  -7.025  1.00  0.00    -0.002 A 
HETATM   13  C   UNL     1     -20.232  -5.261  -8.108  1.00  0.00     0.014 A 
HETATM   14  C   UNL     1     -20.567  -4.514  -9.241  1.00  0.00     0.001 A 
HETATM   15  C   UNL     1     -21.802  -3.880  -9.317  1.00  0.00     0.000 A 
HETATM   16  C   UNL     1     -22.702  -3.991  -8.259  1.00  0.00     0.001 A 
HETATM   17  C   UNL     1     -22.365  -4.735  -7.122  1.00  0.00     0.014 A 
ENDBRANCH   1  12
BRANCH   6  18
HETATM   18  O   UNL     1     -19.882  -9.887  -2.447  1.00  0.00    -0.360 OA
HETATM   19  H   UNL     1     -19.370  -9.965  -3.284  1.00  0.00     0.217 HD
ENDBRANCH   6  18
BRANCH   8  20
HETATM   20  O   UNL     1     -22.853  -6.874  -0.284  1.00  0.00    -0.361 OA
HETATM   21  H   UNL     1     -22.801  -5.910  -0.165  1.00  0.00     0.217 HD
ENDBRANCH   8  20
TORSDOF 3
ENDMDL
MODEL 5
REMARK VINA RESULT:      -7.6      2.801      4.518
REMARK  3 active torsions:
REMARK  status: ('A' for Active; 'I' for Inactive)
REMARK    1  A    between atoms: C_4  and  C_7 
REMARK    2  A    between atoms: C_12  and  O_19 
REMARK    3  A    between atoms: C_14  and  O_18 
ROOT
HETATM    1  C   UNL     1     -20.828  -6.408  -6.154  1.00  0.00     0.090 A 
HETATM    2  C   UNL     1     -22.024  -5.898  -5.822  1.00  0.00     0.094 A 
HETATM    3  C   UNL     1     -22.692  -4.979  -6.750  1.00  0.00     0.190 A 
HETATM    4  O   UNL     1     -23.795  -4.501  -6.500  1.00  0.00    -0.287 OA
HETATM    5  C   UNL     1     -22.011  -4.693  -8.013  1.00  0.00     0.081 A 
HETATM    6  C   UNL     1     -22.616  -3.926  -9.015  1.00  0.00     0.085 A 
HETATM    7  C   UNL     1     -21.940  -3.666 -10.204  1.00  0.00     0.074 A 
HETATM    8  C   UNL     1     -20.651  -4.168 -10.373  1.00  0.00     0.071 A 
HETATM    9  C   UNL     1     -20.042  -4.938  -9.384  1.00  0.00     0.075 A 
HETATM   10  C   UNL     1     -20.735  -5.217  -8.208  1.00  0.00     0.095 A 
HETATM   11  O   UNL     1     -20.121  -6.037  -7.291  1.00  0.00    -0.309 OA
ENDROOT
BRANCH   1  12
HETATM   12  C   UNL     1     -20.169  -7.451  -5.334  1.00  0.00    -0.002 A 
HETATM   13  C   UNL     1     -20.584  -7.713  -4.015  1.00  0.00     0.014 A 
HETATM   14  C   UNL     1     -20.005  -8.741  -3.264  1.00  0.00     0.001 A 
HETATM   15  C   UNL     1     -19.008  -9.533  -3.821  1.00  0.00     0.000 A 
HETATM   16  C   UNL     1     -18.586  -9.296  -5.127  1.00  0.00     0.001 A 
HETATM   17  C   UNL     1     -19.161  -8.264  -5.878  1.00  0.00     0.014 A 
ENDBRANCH   1  12
BRANCH   6  18
HETATM   18  O   UNL     1     -23.881  -3.416  -8.900  1.00  0.00    -0.360 OA
HETATM   19  H   UNL     1     -24.474  -4.135  -8.584  1.00  0.00     0.217 HD
ENDBRANCH   6  18
BRANCH   8  20
HETATM   20  O   UNL     1     -19.948  -3.934 -11.518  1.00  0.00    -0.361 OA
HETATM   21  H   UNL     1     -19.634  -4.783 -11.872  1.00  0.00     0.217 HD
ENDBRANCH   8  20
TORSDOF 3
ENDMDL
MODEL 6
REMARK VINA RESULT:      -7.6      4.666      8.386
REMARK  3 active torsions:
REMARK  status: ('A' for Active; 'I' for Inactive)
REMARK    1  A    between atoms: C_4  and  C_7 
REMARK    2  A    between atoms: C_12  and  O_19 
REMARK    3  A    between atoms: C_14  and  O_18 
ROOT
HETATM    1  C   UNL     1     -21.139  -6.108  -6.346  1.00  0.00     0.090 A 
HETATM    2  C   UNL     1     -21.889  -5.761  -5.289  1.00  0.00     0.094 A 
HETATM    3  C   UNL     1     -21.715  -6.482  -4.022  1.00  0.00     0.190 A 
HETATM    4  O   UNL     1     -22.364  -6.190  -3.022  1.00  0.00    -0.287 OA
HETATM    5  C   UNL     1     -20.698  -7.533  -3.986  1.00  0.00     0.081 A 
HETATM    6  C   UNL     1     -20.372  -8.197  -2.798  1.00  0.00     0.085 A 
HETATM    7  C   UNL     1     -19.404  -9.197  -2.797  1.00  0.00     0.074 A 
HETATM    8  C   UNL     1     -18.777  -9.535  -3.994  1.00  0.00     0.071 A 
HETATM    9  C   UNL     1     -19.090  -8.876  -5.182  1.00  0.00     0.075 A 
HETATM   10  C   UNL     1     -20.041  -7.857  -5.171  1.00  0.00     0.095 A 
HETATM   11  O   UNL     1     -20.267  -7.190  -6.352  1.00  0.00    -0.309 OA
ENDROOT
BRANCH   1  12
HETATM   12  C   UNL     1     -21.158  -5.328  -7.607  1.00  0.00    -0.002 A 
HETATM   13  C   UNL     1     -20.035  -5.282  -8.453  1.00  0.00     0.014 A 
HETATM   14  C   UNL     1     -20.075  -4.600  -9.672  1.00  0.00     0.001 A 
HETATM   15  C   UNL     1     -21.242  -3.961 -10.075  1.00  0.00     0.000 A 
HETATM   16  C   UNL     1     -22.368  -4.000  -9.256  1.00  0.00     0.001 A 
HETATM   17  C   UNL     1     -22.327  -4.678  -8.032  1.00  0.00     0.014 A 
ENDBRANCH   1  12
BRANCH   6  18
HETATM   18  O   UNL     1     -20.953  -7.898  -1.595  1.00  0.00    -0.360 OA
HETATM   19  H   UNL     1     -20.977  -6.919  -1.500  1.00  0.00     0.217 HD
ENDBRANCH   6  18
BRANCH   8  20
HETATM   20  O   UNL     1     -17.828 -10.512  -4.042  1.00  0.00    -0.361 OA
HETATM   21  H   UNL     1     -17.003 -10.167  -3.661  1.00  0.00     0.217 HD
ENDBRANCH   8  20
TORSDOF 3
ENDMDL
MODEL 7
REMARK VINA RESULT:      -7.5      3.794      5.976
REMARK  3 active torsions:
REMARK  status: ('A' for Active; 'I' for Inactive)
REMARK    1  A    between atoms: C_4  and  C_7 
REMARK    2  A    between atoms: C_12  and  O_19 
REMARK    3  A    between atoms: C_14  and  O_18 
ROOT
HETATM    1  C   UNL     1     -20.108  -7.583  -5.347  1.00  0.00     0.090 A 
HETATM    2  C   UNL     1     -21.282  -7.349  -4.741  1.00  0.00     0.094 A 
HETATM    3  C   UNL     1     -22.181  -6.327  -5.292  1.00  0.00     0.190 A 
HETATM    4  O   UNL     1     -23.273  -6.090  -4.784  1.00  0.00    -0.287 OA
HETATM    5  C   UNL     1     -21.741  -5.636  -6.504  1.00  0.00     0.081 A 
HETATM    6  C   UNL     1     -22.573  -4.732  -7.175  1.00  0.00     0.085 A 
HETATM    7  C   UNL     1     -22.125  -4.085  -8.323  1.00  0.00     0.074 A 
HETATM    8  C   UNL     1     -20.835  -4.340  -8.783  1.00  0.00     0.071 A 
HETATM    9  C   UNL     1     -20.000  -5.242  -8.126  1.00  0.00     0.075 A 
HETATM   10  C   UNL     1     -20.466  -5.907  -6.993  1.00  0.00     0.095 A 
HETATM   11  O   UNL     1     -19.632  -6.838  -6.419  1.00  0.00    -0.309 OA
ENDROOT
BRANCH   1  12
HETATM   12  C   UNL     1     -19.223  -8.697  -4.932  1.00  0.00    -0.002 A 
HETATM   13  C   UNL     1     -18.336  -9.301  -5.842  1.00  0.00     0.014 A 
HETATM   14  C   UNL     1     -17.456 -10.308  -5.435  1.00  0.00     0.001 A 
HETATM   15  C   UNL     1     -17.438 -10.722  -4.108  1.00  0.00     0.000 A 
HETATM   16  C   UNL     1     -18.303 -10.133  -3.188  1.00  0.00     0.001 A 
HETATM   17  C   UNL     1     -19.188  -9.129  -3.597  1.00  0.00     0.014 A 
ENDBRANCH   1  12
BRANCH   6  18
HETATM   18  O   UNL     1     -23.850  -4.453  -6.767  1.00  0.00    -0.360 OA
HETATM   19  H   UNL     1     -24.305  -5.304  -6.576  1.00  0.00     0.217 HD
ENDBRANCH   6  18
BRANCH   8  20
HETATM   20  O   UNL     1     -20.350  -3.724  -9.899  1.00  0.00    -0.361 OA
HETATM   21  H   UNL     1     -20.017  -4.403 -10.511  1.00  0.00     0.217 HD
ENDBRANCH   8  20
TORSDOF 3
ENDMDL
MODEL 8
REMARK VINA RESULT:      -7.1      7.982     10.466
REMARK  3 active torsions:
REMARK  status: ('A' for Active; 'I' for Inactive)
REMARK    1  A    between atoms: C_4  and  C_7 
REMARK    2  A    between atoms: C_12  and  O_19 
REMARK    3  A    between atoms: C_14  and  O_18 
ROOT
HETATM    1  C   UNL     1     -19.068  -9.013  -3.746  1.00  0.00     0.090 A 
HETATM    2  C   UNL     1     -19.755  -8.166  -4.528  1.00  0.00     0.094 A 
HETATM    3  C   UNL     1     -20.872  -7.407  -3.953  1.00  0.00     0.190 A 
HETATM    4  O   UNL     1     -21.519  -6.607  -4.623  1.00  0.00    -0.287 OA
HETATM    5  C   UNL     1     -21.153  -7.607  -2.531  1.00  0.00     0.081 A 
HETATM    6  C   UNL     1     -22.117  -6.845  -1.860  1.00  0.00     0.085 A 
HETATM    7  C   UNL     1     -22.366  -7.063  -0.508  1.00  0.00     0.074 A 
HETATM    8  C   UNL     1     -21.653  -8.056   0.160  1.00  0.00     0.071 A 
HETATM    9  C   UNL     1     -20.688  -8.816  -0.496  1.00  0.00     0.075 A 
HETATM   10  C   UNL     1     -20.424  -8.574  -1.844  1.00  0.00     0.095 A 
HETATM   11  O   UNL     1     -19.416  -9.301  -2.431  1.00  0.00    -0.309 OA
ENDROOT
BRANCH   1  12
HETATM   12  C   UNL     1     -17.843  -9.696  -4.222  1.00  0.00    -0.002 A 
HETATM   13  C   UNL     1     -17.537  -9.775  -5.593  1.00  0.00     0.014 A 
HETATM   14  C   UNL     1     -16.349 -10.363  -6.037  1.00  0.00     0.001 A 
HETATM   15  C   UNL     1     -15.440 -10.874  -5.119  1.00  0.00     0.000 A 
HETATM   16  C   UNL     1     -15.718 -10.801  -3.756  1.00  0.00     0.001 A 
HETATM   17  C   UNL     1     -16.910 -10.217  -3.311  1.00  0.00     0.014 A 
ENDBRANCH   1  12
BRANCH   6  18
HETATM   18  O   UNL     1     -22.839  -5.854  -2.470  1.00  0.00    -0.360 OA
HETATM   19  H   UNL     1     -23.054  -5.172  -1.794  1.00  0.00     0.217 HD
ENDBRANCH   6  18
BRANCH   8  20
HETATM   20  O   UNL     1     -21.868  -8.309   1.483  1.00  0.00    -0.361 OA
HETATM   21  H   UNL     1     -22.753  -8.698   1.588  1.00  0.00     0.217 HD
ENDBRANCH   8  20
TORSDOF 3
ENDMDL
MODEL 9
REMARK VINA RESULT:      -7.0      5.383      9.198
REMARK  3 active torsions:
REMARK  status: ('A' for Active; 'I' for Inactive)
REMARK    1  A    between atoms: C_4  and  C_7 
REMARK    2  A    between atoms: C_12  and  O_19 
REMARK    3  A    between atoms: C_14  and  O_18 
ROOT
HETATM    1  C   UNL     1     -20.755  -6.435  -5.316  1.00  0.00     0.090 A 
HETATM    2  C   UNL     1     -21.500  -5.968  -4.303  1.00  0.00     0.094 A 
HETATM    3  C   UNL     1     -21.535  -6.713  -3.038  1.00  0.00     0.190 A 
HETATM    4  O   UNL     1     -22.186  -6.317  -2.076  1.00  0.00    -0.287 OA
HETATM    5  C   UNL     1     -20.719  -7.925  -2.954  1.00  0.00     0.081 A 
HETATM    6  C   UNL     1     -20.589  -8.640  -1.759  1.00  0.00     0.085 A 
HETATM    7  C   UNL     1     -19.811  -9.793  -1.712  1.00  0.00     0.074 A 
HETATM    8  C   UNL     1     -19.177 -10.229  -2.873  1.00  0.00     0.071 A 
HETATM    9  C   UNL     1     -19.295  -9.522  -4.068  1.00  0.00     0.075 A 
HETATM   10  C   UNL     1     -20.054  -8.353  -4.101  1.00  0.00     0.095 A 
HETATM   11  O   UNL     1     -20.085  -7.652  -5.283  1.00  0.00    -0.309 OA
ENDROOT
BRANCH   1  12
HETATM   12  C   UNL     1     -20.559  -5.659  -6.563  1.00  0.00    -0.002 A 
HETATM   13  C   UNL     1     -21.585  -5.543  -7.519  1.00  0.00     0.014 A 
HETATM   14  C   UNL     1     -21.422  -4.758  -8.664  1.00  0.00     0.001 A 
HETATM   15  C   UNL     1     -20.235  -4.066  -8.871  1.00  0.00     0.000 A 
HETATM   16  C   UNL     1     -19.207  -4.161  -7.935  1.00  0.00     0.001 A 
HETATM   17  C   UNL     1     -19.368  -4.951  -6.790  1.00  0.00     0.014 A 
ENDBRANCH   1  12
BRANCH   6  18
HETATM   18  O   UNL     1     -21.186  -8.249  -0.590  1.00  0.00    -0.360 OA
HETATM   19  H   UNL     1     -21.822  -7.528  -0.796  1.00  0.00     0.217 HD
ENDBRANCH   6  18
BRANCH   8  20
HETATM   20  O   UNL     1     -18.410 -11.356  -2.877  1.00  0.00    -0.361 OA
HETATM   21  H   UNL     1     -18.922 -12.083  -3.270  1.00  0.00     0.217 HD
ENDBRANCH   8  20
TORSDOF 3
ENDMDL
