MODEL 1
REMARK VINA RESULT:      -9.1      0.000      0.000
REMARK  9 active torsions:
REMARK  status: ('A' for Active; 'I' for Inactive)
REMARK    1  A    between atoms: C_3  and  C_10 
REMARK    2  A    between atoms: C_11  and  C_12 
REMARK    3  A    between atoms: C_13  and  C_14 
REMARK    4  A    between atoms: C_15  and  C_16 
REMARK    5  A    between atoms: C_17  and  C_18 
REMARK    6  A    between atoms: C_18  and  O_20 
REMARK    7  A    between atoms: O_20  and  C_21 
REMARK    8  A    between atoms: C_21  and  C_22 
REMARK    9  A    between atoms: C_22  and  C_24 
ROOT
HETATM    1  C   UNL     1     -20.050  -7.821  -5.283  1.00  0.00     0.001 C 
HETATM    2  C   UNL     1     -19.999  -6.840  -6.200  1.00  0.00     0.007 C 
ENDROOT
BRANCH   1   3
HETATM    3  C   UNL     1     -18.978  -8.753  -5.062  1.00  0.00     0.007 C 
HETATM    4  C   UNL     1     -18.582  -9.277  -3.889  1.00  0.00    -0.062 C 
HETATM    5  C   UNL     1     -17.406 -10.214  -3.870  1.00  0.00     0.048 C 
BRANCH   4   6
HETATM    6  C   UNL     1     -19.290  -9.106  -2.610  1.00  0.00     0.007 C 
HETATM    7  C   UNL     1     -20.625  -8.982  -2.605  1.00  0.00     0.009 C 
BRANCH   7   8
HETATM    8  C   UNL     1     -21.648  -8.820  -1.571  1.00  0.00    -0.048 C 
HETATM    9  C   UNL     1     -22.043  -7.535  -1.298  1.00  0.00    -0.077 C 
HETATM   10  C   UNL     1     -21.675  -6.260  -2.046  1.00  0.00     0.044 C 
HETATM   11  C   UNL     1     -22.935  -7.179  -0.131  1.00  0.00     0.034 C 
HETATM   12  C   UNL     1     -22.992  -8.288   0.897  1.00  0.00     0.005 C 
HETATM   13  C   UNL     1     -23.395  -9.560   0.175  1.00  0.00     0.014 C 
HETATM   14  C   UNL     1     -22.274 -10.045  -0.802  1.00  0.00    -0.020 C 
HETATM   15  C   UNL     1     -22.971 -11.060  -1.749  1.00  0.00     0.020 C 
HETATM   16  C   UNL     1     -21.275 -10.870   0.049  1.00  0.00     0.020 C 
ENDBRANCH   7   8
ENDBRANCH   4   6
ENDBRANCH   1   3
BRANCH   2  17
HETATM   17  C   UNL     1     -21.029  -5.844  -6.331  1.00  0.00    -0.056 C 
HETATM   18  C   UNL     1     -20.894  -4.748  -7.109  1.00  0.00     0.089 C 
HETATM   19  C   UNL     1     -22.274  -6.071  -5.498  1.00  0.00     0.048 C 
BRANCH  18  20
HETATM   20  C   UNL     1     -19.787  -4.338  -8.020  1.00  0.00     0.283 C 
HETATM   21  O   UNL     1     -18.645  -4.230  -7.582  1.00  0.00    -0.260 OA
BRANCH  20  22
HETATM   22  O   UNL     1     -20.159  -4.053  -9.297  1.00  0.00    -0.311 OA
BRANCH  22  23
HETATM   23  C   UNL     1     -21.421  -3.388  -9.451  1.00  0.00     0.258 C 
BRANCH  23  24
HETATM   24  C   UNL     1     -22.218  -3.417 -10.802  1.00  0.00     0.158 C 
HETATM   25  O   UNL     1     -21.667  -3.047 -11.840  1.00  0.00    -0.295 OA
BRANCH  24  26
HETATM   26  C   UNL     1     -23.720  -3.811 -10.806  1.00  0.00     0.012 C 
HETATM   27  C   UNL     1     -23.843  -5.340 -10.828  1.00  0.00     0.022 C 
HETATM   28  C   UNL     1     -24.473  -3.313  -9.545  1.00  0.00     0.022 C 
HETATM   29  C   UNL     1     -24.399  -3.162 -12.010  1.00  0.00     0.022 C 
ENDBRANCH  24  26
ENDBRANCH  23  24
ENDBRANCH  22  23
ENDBRANCH  20  22
ENDBRANCH  18  20
ENDBRANCH   2  17
TORSDOF 9
ENDMDL
MODEL 2
REMARK VINA RESULT:      -8.9      1.801      3.934
REMARK  9 active torsions:
REMARK  status: ('A' for Active; 'I' for Inactive)
REMARK    1  A    between atoms: C_3  and  C_10 
REMARK    2  A    between atoms: C_11  and  C_12 
REMARK    3  A    between atoms: C_13  and  C_14 
REMARK    4  A    between atoms: C_15  and  C_16 
REMARK    5  A    between atoms: C_17  and  C_18 
REMARK    6  A    between atoms: C_18  and  O_20 
REMARK    7  A    between atoms: O_20  and  C_21 
REMARK    8  A    between atoms: C_21  and  C_22 
REMARK    9  A    between atoms: C_22  and  C_24 
ROOT
HETATM    1  C   UNL     1     -21.120  -7.030  -2.667  1.00  0.00     0.001 C 
HETATM    2  C   UNL     1     -21.568  -7.503  -3.843  1.00  0.00     0.007 C 
ENDROOT
BRANCH   1   3
HETATM    3  C   UNL     1     -21.938  -6.941  -1.488  1.00  0.00     0.007 C 
HETATM    4  C   UNL     1     -22.308  -7.945  -0.676  1.00  0.00    -0.062 C 
HETATM    5  C   UNL     1     -23.204  -7.643   0.494  1.00  0.00     0.048 C 
BRANCH   4   6
HETATM    6  C   UNL     1     -21.805  -9.326  -0.762  1.00  0.00     0.007 C 
HETATM    7  C   UNL     1     -22.638 -10.312  -1.121  1.00  0.00     0.009 C 
BRANCH   7   8
HETATM    8  C   UNL     1     -22.511 -11.755  -1.329  1.00  0.00    -0.048 C 
HETATM    9  C   UNL     1     -22.632 -12.199  -2.620  1.00  0.00    -0.077 C 
HETATM   10  C   UNL     1     -22.719 -11.369  -3.896  1.00  0.00     0.044 C 
HETATM   11  C   UNL     1     -22.725 -13.664  -2.982  1.00  0.00     0.034 C 
HETATM   12  C   UNL     1     -23.080 -14.521  -1.787  1.00  0.00     0.005 C 
HETATM   13  C   UNL     1     -22.076 -14.215  -0.691  1.00  0.00     0.014 C 
HETATM   14  C   UNL     1     -22.248 -12.760  -0.144  1.00  0.00    -0.020 C 
HETATM   15  C   UNL     1     -20.933 -12.457   0.625  1.00  0.00     0.020 C 
HETATM   16  C   UNL     1     -23.366 -12.823   0.929  1.00  0.00     0.020 C 
ENDBRANCH   7   8
ENDBRANCH   4   6
ENDBRANCH   1   3
BRANCH   2  17
HETATM   17  C   UNL     1     -20.709  -7.696  -4.981  1.00  0.00    -0.056 C 
HETATM   18  C   UNL     1     -20.488  -6.736  -5.904  1.00  0.00     0.089 C 
HETATM   19  C   UNL     1     -20.095  -9.075  -5.115  1.00  0.00     0.048 C 
BRANCH  18  20
HETATM   20  C   UNL     1     -20.958  -5.322  -5.961  1.00  0.00     0.283 C 
HETATM   21  O   UNL     1     -20.279  -4.432  -5.454  1.00  0.00    -0.260 OA
BRANCH  20  22
HETATM   22  O   UNL     1     -22.174  -5.135  -6.541  1.00  0.00    -0.311 OA
BRANCH  22  23
HETATM   23  C   UNL     1     -22.250  -4.088  -7.519  1.00  0.00     0.258 C 
BRANCH  23  24
HETATM   24  C   UNL     1     -21.992  -4.353  -9.044  1.00  0.00     0.158 C 
HETATM   25  O   UNL     1     -20.891  -4.768  -9.410  1.00  0.00    -0.295 OA
BRANCH  24  26
HETATM   26  C   UNL     1     -23.084  -3.993 -10.087  1.00  0.00     0.012 C 
HETATM   27  C   UNL     1     -22.475  -3.087 -11.166  1.00  0.00     0.022 C 
HETATM   28  C   UNL     1     -23.656  -5.240 -10.810  1.00  0.00     0.022 C 
HETATM   29  C   UNL     1     -24.254  -3.324  -9.368  1.00  0.00     0.022 C 
ENDBRANCH  24  26
ENDBRANCH  23  24
ENDBRANCH  22  23
ENDBRANCH  20  22
ENDBRANCH  18  20
ENDBRANCH   2  17
TORSDOF 9
ENDMDL
MODEL 3
REMARK VINA RESULT:      -8.7      2.094      4.075
REMARK  9 active torsions:
REMARK  status: ('A' for Active; 'I' for Inactive)
REMARK    1  A    between atoms: C_3  and  C_10 
REMARK    2  A    between atoms: C_11  and  C_12 
REMARK    3  A    between atoms: C_13  and  C_14 
REMARK    4  A    between atoms: C_15  and  C_16 
REMARK    5  A    between atoms: C_17  and  C_18 
REMARK    6  A    between atoms: C_18  and  O_20 
REMARK    7  A    between atoms: O_20  and  C_21 
REMARK    8  A    between atoms: C_21  and  C_22 
REMARK    9  A    between atoms: C_22  and  C_24 
ROOT
HETATM    1  C   UNL     1     -21.270  -6.927  -2.629  1.00  0.00     0.001 C 
HETATM    2  C   UNL     1     -21.820  -6.781  -3.847  1.00  0.00     0.007 C 
ENDROOT
BRANCH   1   3
HETATM    3  C   UNL     1     -22.029  -6.887  -1.409  1.00  0.00     0.007 C 
HETATM    4  C   UNL     1     -22.323  -7.917  -0.598  1.00  0.00    -0.062 C 
HETATM    5  C   UNL     1     -23.167  -7.666   0.622  1.00  0.00     0.048 C 
BRANCH   4   6
HETATM    6  C   UNL     1     -21.778  -9.277  -0.735  1.00  0.00     0.007 C 
HETATM    7  C   UNL     1     -22.443 -10.186  -1.461  1.00  0.00     0.009 C 
BRANCH   7   8
HETATM    8  C   UNL     1     -22.220 -11.584  -1.832  1.00  0.00    -0.048 C 
HETATM    9  C   UNL     1     -22.721 -12.531  -0.975  1.00  0.00    -0.077 C 
HETATM   10  C   UNL     1     -23.625 -12.320   0.234  1.00  0.00     0.044 C 
HETATM   11  C   UNL     1     -22.408 -14.004  -1.102  1.00  0.00     0.034 C 
HETATM   12  C   UNL     1     -21.201 -14.253  -1.980  1.00  0.00     0.005 C 
HETATM   13  C   UNL     1     -21.448 -13.554  -3.304  1.00  0.00     0.014 C 
HETATM   14  C   UNL     1     -21.449 -11.999  -3.142  1.00  0.00    -0.020 C 
HETATM   15  C   UNL     1     -22.117 -11.456  -4.434  1.00  0.00     0.020 C 
HETATM   16  C   UNL     1     -19.966 -11.549  -3.205  1.00  0.00     0.020 C 
ENDBRANCH   7   8
ENDBRANCH   4   6
ENDBRANCH   1   3
BRANCH   2  17
HETATM   17  C   UNL     1     -21.069  -6.940  -5.064  1.00  0.00    -0.056 C 
HETATM   18  C   UNL     1     -21.321  -6.224  -6.180  1.00  0.00     0.089 C 
HETATM   19  C   UNL     1     -19.993  -8.007  -5.037  1.00  0.00     0.048 C 
BRANCH  18  20
HETATM   20  C   UNL     1     -22.297  -5.122  -6.423  1.00  0.00     0.283 C 
HETATM   21  O   UNL     1     -23.438  -5.210  -5.978  1.00  0.00    -0.260 OA
BRANCH  20  22
HETATM   22  O   UNL     1     -21.841  -4.099  -7.195  1.00  0.00    -0.311 OA
BRANCH  22  23
HETATM   23  C   UNL     1     -21.760  -4.362  -8.603  1.00  0.00     0.258 C 
BRANCH  23  24
HETATM   24  C   UNL     1     -22.831  -3.822  -9.614  1.00  0.00     0.158 C 
HETATM   25  O   UNL     1     -23.904  -3.393  -9.189  1.00  0.00    -0.295 OA
BRANCH  24  26
HETATM   26  C   UNL     1     -22.576  -3.930 -11.141  1.00  0.00     0.012 C 
HETATM   27  C   UNL     1     -23.550  -4.948 -11.748  1.00  0.00     0.022 C 
HETATM   28  C   UNL     1     -22.803  -2.587 -11.883  1.00  0.00     0.022 C 
HETATM   29  C   UNL     1     -21.117  -4.320 -11.374  1.00  0.00     0.022 C 
ENDBRANCH  24  26
ENDBRANCH  23  24
ENDBRANCH  22  23
ENDBRANCH  20  22
ENDBRANCH  18  20
ENDBRANCH   2  17
TORSDOF 9
ENDMDL
MODEL 4
REMARK VINA RESULT:      -8.7      3.006      5.356
REMARK  9 active torsions:
REMARK  status: ('A' for Active; 'I' for Inactive)
REMARK    1  A    between atoms: C_3  and  C_10 
REMARK    2  A    between atoms: C_11  and  C_12 
REMARK    3  A    between atoms: C_13  and  C_14 
REMARK    4  A    between atoms: C_15  and  C_16 
REMARK    5  A    between atoms: C_17  and  C_18 
REMARK    6  A    between atoms: C_18  and  O_20 
REMARK    7  A    between atoms: O_20  and  C_21 
REMARK    8  A    between atoms: C_21  and  C_22 
REMARK    9  A    between atoms: C_22  and  C_24 
ROOT
HETATM    1  C   UNL     1     -16.674 -11.450  -2.958  1.00  0.00     0.001 C 
HETATM    2  C   UNL     1     -16.850 -10.191  -3.395  1.00  0.00     0.007 C 
ENDROOT
BRANCH   1   3
HETATM    3  C   UNL     1     -16.555 -11.794  -1.568  1.00  0.00     0.007 C 
HETATM    4  C   UNL     1     -17.536 -11.828  -0.650  1.00  0.00    -0.062 C 
HETATM    5  C   UNL     1     -17.193 -12.182   0.771  1.00  0.00     0.048 C 
BRANCH   4   6
HETATM    6  C   UNL     1     -18.969 -11.663  -0.944  1.00  0.00     0.007 C 
HETATM    7  C   UNL     1     -19.813 -11.331   0.042  1.00  0.00     0.009 C 
BRANCH   7   8
HETATM    8  C   UNL     1     -21.249 -11.068   0.136  1.00  0.00    -0.048 C 
HETATM    9  C   UNL     1     -22.053 -12.151   0.386  1.00  0.00    -0.077 C 
HETATM   10  C   UNL     1     -21.632 -13.571   0.745  1.00  0.00     0.044 C 
HETATM   11  C   UNL     1     -23.562 -12.089   0.315  1.00  0.00     0.034 C 
HETATM   12  C   UNL     1     -24.044 -10.871  -0.441  1.00  0.00     0.005 C 
HETATM   13  C   UNL     1     -23.404  -9.653   0.199  1.00  0.00     0.014 C 
HETATM   14  C   UNL     1     -21.858  -9.625  -0.039  1.00  0.00    -0.020 C 
HETATM   15  C   UNL     1     -21.306  -8.607   0.995  1.00  0.00     0.020 C 
HETATM   16  C   UNL     1     -21.639  -8.981  -1.433  1.00  0.00     0.020 C 
ENDBRANCH   7   8
ENDBRANCH   4   6
ENDBRANCH   1   3
BRANCH   2  17
HETATM   17  C   UNL     1     -17.084  -9.873  -4.778  1.00  0.00    -0.056 C 
HETATM   18  C   UNL     1     -18.313  -9.608  -5.273  1.00  0.00     0.089 C 
HETATM   19  C   UNL     1     -15.862  -9.899  -5.674  1.00  0.00     0.048 C 
BRANCH  18  20
HETATM   20  C   UNL     1     -19.631  -9.503  -4.583  1.00  0.00     0.283 C 
HETATM   21  O   UNL     1     -20.212 -10.522  -4.220  1.00  0.00    -0.260 OA
BRANCH  20  22
HETATM   22  O   UNL     1     -20.125  -8.242  -4.460  1.00  0.00    -0.311 OA
BRANCH  22  23
HETATM   23  C   UNL     1     -21.149  -7.873  -5.396  1.00  0.00     0.258 C 
BRANCH  23  24
HETATM   24  C   UNL     1     -21.703  -6.409  -5.489  1.00  0.00     0.158 C 
HETATM   25  O   UNL     1     -22.798  -6.141  -4.992  1.00  0.00    -0.295 OA
BRANCH  24  26
HETATM   26  C   UNL     1     -20.921  -5.336  -6.295  1.00  0.00     0.012 C 
HETATM   27  C   UNL     1     -20.024  -4.539  -5.339  1.00  0.00     0.022 C 
HETATM   28  C   UNL     1     -19.998  -5.954  -7.376  1.00  0.00     0.022 C 
HETATM   29  C   UNL     1     -21.920  -4.441  -7.027  1.00  0.00     0.022 C 
ENDBRANCH  24  26
ENDBRANCH  23  24
ENDBRANCH  22  23
ENDBRANCH  20  22
ENDBRANCH  18  20
ENDBRANCH   2  17
TORSDOF 9
ENDMDL
MODEL 5
REMARK VINA RESULT:      -8.6      4.635      7.894
REMARK  9 active torsions:
REMARK  status: ('A' for Active; 'I' for Inactive)
REMARK    1  A    between atoms: C_3  and  C_10 
REMARK    2  A    between atoms: C_11  and  C_12 
REMARK    3  A    between atoms: C_13  and  C_14 
REMARK    4  A    between atoms: C_15  and  C_16 
REMARK    5  A    between atoms: C_17  and  C_18 
REMARK    6  A    between atoms: C_18  and  O_20 
REMARK    7  A    between atoms: O_20  and  C_21 
REMARK    8  A    between atoms: C_21  and  C_22 
REMARK    9  A    between atoms: C_22  and  C_24 
ROOT
HETATM    1  C   UNL     1     -21.115 -11.994  -0.095  1.00  0.00     0.001 C 
HETATM    2  C   UNL     1     -21.700 -10.872   0.360  1.00  0.00     0.007 C 
ENDROOT
BRANCH   1   3
HETATM    3  C   UNL     1     -19.868 -12.497   0.413  1.00  0.00     0.007 C 
HETATM    4  C   UNL     1     -18.642 -12.308  -0.105  1.00  0.00    -0.062 C 
HETATM    5  C   UNL     1     -17.461 -12.956   0.565  1.00  0.00     0.048 C 
BRANCH   4   6
HETATM    6  C   UNL     1     -18.332 -11.404  -1.224  1.00  0.00     0.007 C 
HETATM    7  C   UNL     1     -17.915 -11.915  -2.391  1.00  0.00     0.009 C 
BRANCH   7   8
HETATM    8  C   UNL     1     -17.541 -11.361  -3.693  1.00  0.00    -0.048 C 
HETATM    9  C   UNL     1     -18.446 -11.529  -4.710  1.00  0.00    -0.077 C 
HETATM   10  C   UNL     1     -19.867 -12.073  -4.624  1.00  0.00     0.044 C 
HETATM   11  C   UNL     1     -18.133 -11.197  -6.152  1.00  0.00     0.034 C 
HETATM   12  C   UNL     1     -16.646 -11.069  -6.394  1.00  0.00     0.005 C 
HETATM   13  C   UNL     1     -16.105 -10.063  -5.395  1.00  0.00     0.014 C 
HETATM   14  C   UNL     1     -16.177 -10.610  -3.932  1.00  0.00    -0.020 C 
HETATM   15  C   UNL     1     -16.007  -9.363  -3.023  1.00  0.00     0.020 C 
HETATM   16  C   UNL     1     -14.904 -11.470  -3.721  1.00  0.00     0.020 C 
ENDBRANCH   7   8
ENDBRANCH   4   6
ENDBRANCH   1   3
BRANCH   2  17
HETATM   17  C   UNL     1     -23.003 -10.443  -0.074  1.00  0.00    -0.056 C 
HETATM   18  C   UNL     1     -23.365  -9.144  -0.135  1.00  0.00     0.089 C 
HETATM   19  C   UNL     1     -23.978 -11.551  -0.420  1.00  0.00     0.048 C 
BRANCH  18  20
HETATM   20  C   UNL     1     -22.575  -7.906   0.127  1.00  0.00     0.283 C 
HETATM   21  O   UNL     1     -21.791  -7.872   1.073  1.00  0.00    -0.260 OA
BRANCH  20  22
HETATM   22  O   UNL     1     -22.841  -6.858  -0.698  1.00  0.00    -0.311 OA
BRANCH  22  23
HETATM   23  C   UNL     1     -21.764  -6.437  -1.547  1.00  0.00     0.258 C 
BRANCH  23  24
HETATM   24  C   UNL     1     -21.631  -6.931  -3.030  1.00  0.00     0.158 C 
HETATM   25  O   UNL     1     -22.218  -6.324  -3.927  1.00  0.00    -0.295 OA
BRANCH  24  26
HETATM   26  C   UNL     1     -20.850  -8.235  -3.343  1.00  0.00     0.012 C 
HETATM   27  C   UNL     1     -19.866  -8.524  -2.202  1.00  0.00     0.022 C 
HETATM   28  C   UNL     1     -21.776  -9.473  -3.468  1.00  0.00     0.022 C 
HETATM   29  C   UNL     1     -20.142  -8.078  -4.688  1.00  0.00     0.022 C 
ENDBRANCH  24  26
ENDBRANCH  23  24
ENDBRANCH  22  23
ENDBRANCH  20  22
ENDBRANCH  18  20
ENDBRANCH   2  17
TORSDOF 9
ENDMDL
MODEL 6
REMARK VINA RESULT:      -8.4      4.659      7.799
REMARK  9 active torsions:
REMARK  status: ('A' for Active; 'I' for Inactive)
REMARK    1  A    between atoms: C_3  and  C_10 
REMARK    2  A    between atoms: C_11  and  C_12 
REMARK    3  A    between atoms: C_13  and  C_14 
REMARK    4  A    between atoms: C_15  and  C_16 
REMARK    5  A    between atoms: C_17  and  C_18 
REMARK    6  A    between atoms: C_18  and  O_20 
REMARK    7  A    between atoms: O_20  and  C_21 
REMARK    8  A    between atoms: C_21  and  C_22 
REMARK    9  A    between atoms: C_22  and  C_24 
ROOT
HETATM    1  C   UNL     1     -20.806 -11.841   0.022  1.00  0.00     0.001 C 
HETATM    2  C   UNL     1     -21.509 -10.782   0.462  1.00  0.00     0.007 C 
ENDROOT
BRANCH   1   3
HETATM    3  C   UNL     1     -19.507 -12.192   0.527  1.00  0.00     0.007 C 
HETATM    4  C   UNL     1     -18.445 -12.612  -0.180  1.00  0.00    -0.062 C 
HETATM    5  C   UNL     1     -17.178 -12.966   0.549  1.00  0.00     0.048 C 
BRANCH   4   6
HETATM    6  C   UNL     1     -18.372 -12.643  -1.650  1.00  0.00     0.007 C 
HETATM    7  C   UNL     1     -17.825 -11.610  -2.306  1.00  0.00     0.009 C 
BRANCH   7   8
HETATM    8  C   UNL     1     -17.564 -11.293  -3.711  1.00  0.00    -0.048 C 
HETATM    9  C   UNL     1     -16.729 -10.233  -3.953  1.00  0.00    -0.077 C 
HETATM   10  C   UNL     1     -15.902  -9.439  -2.949  1.00  0.00     0.044 C 
HETATM   11  C   UNL     1     -16.516  -9.651  -5.332  1.00  0.00     0.034 C 
HETATM   12  C   UNL     1     -17.599 -10.077  -6.300  1.00  0.00     0.005 C 
HETATM   13  C   UNL     1     -17.668 -11.592  -6.270  1.00  0.00     0.014 C 
HETATM   14  C   UNL     1     -18.200 -12.116  -4.896  1.00  0.00    -0.020 C 
HETATM   15  C   UNL     1     -17.819 -13.621  -4.859  1.00  0.00     0.020 C 
HETATM   16  C   UNL     1     -19.748 -12.068  -4.976  1.00  0.00     0.020 C 
ENDBRANCH   7   8
ENDBRANCH   4   6
ENDBRANCH   1   3
BRANCH   2  17
HETATM   17  C   UNL     1     -22.855 -10.509   0.033  1.00  0.00    -0.056 C 
HETATM   18  C   UNL     1     -23.361  -9.260  -0.045  1.00  0.00     0.089 C 
HETATM   19  C   UNL     1     -23.702 -11.725  -0.286  1.00  0.00     0.048 C 
BRANCH  18  20
HETATM   20  C   UNL     1     -22.714  -7.938   0.192  1.00  0.00     0.283 C 
HETATM   21  O   UNL     1     -22.048  -7.757   1.208  1.00  0.00    -0.260 OA
BRANCH  20  22
HETATM   22  O   UNL     1     -22.971  -6.986  -0.746  1.00  0.00    -0.311 OA
BRANCH  22  23
HETATM   23  C   UNL     1     -21.842  -6.530  -1.505  1.00  0.00     0.258 C 
BRANCH  23  24
HETATM   24  C   UNL     1     -21.616  -6.955  -2.998  1.00  0.00     0.158 C 
HETATM   25  O   UNL     1     -22.134  -6.298  -3.901  1.00  0.00    -0.295 OA
BRANCH  24  26
HETATM   26  C   UNL     1     -20.832  -8.256  -3.320  1.00  0.00     0.012 C 
HETATM   27  C   UNL     1     -20.036  -8.060  -4.617  1.00  0.00     0.022 C 
HETATM   28  C   UNL     1     -19.813  -8.632  -2.214  1.00  0.00     0.022 C 
HETATM   29  C   UNL     1     -21.820  -9.417  -3.422  1.00  0.00     0.022 C 
ENDBRANCH  24  26
ENDBRANCH  23  24
ENDBRANCH  22  23
ENDBRANCH  20  22
ENDBRANCH  18  20
ENDBRANCH   2  17
TORSDOF 9
ENDMDL
MODEL 7
REMARK VINA RESULT:      -8.1      2.219      3.473
REMARK  9 active torsions:
REMARK  status: ('A' for Active; 'I' for Inactive)
REMARK    1  A    between atoms: C_3  and  C_10 
REMARK    2  A    between atoms: C_11  and  C_12 
REMARK    3  A    between atoms: C_13  and  C_14 
REMARK    4  A    between atoms: C_15  and  C_16 
REMARK    5  A    between atoms: C_17  and  C_18 
REMARK    6  A    between atoms: C_18  and  O_20 
REMARK    7  A    between atoms: O_20  and  C_21 
REMARK    8  A    between atoms: C_21  and  C_22 
REMARK    9  A    between atoms: C_22  and  C_24 
ROOT
HETATM    1  C   UNL     1     -20.801  -8.752  -4.913  1.00  0.00     0.001 C 
HETATM    2  C   UNL     1     -21.618  -7.746  -5.270  1.00  0.00     0.007 C 
ENDROOT
BRANCH   1   3
HETATM    3  C   UNL     1     -20.985 -10.110  -5.347  1.00  0.00     0.007 C 
HETATM    4  C   UNL     1     -21.298 -11.173  -4.586  1.00  0.00    -0.062 C 
HETATM    5  C   UNL     1     -21.410 -12.525  -5.235  1.00  0.00     0.048 C 
BRANCH   4   6
HETATM    6  C   UNL     1     -21.671 -11.108  -3.163  1.00  0.00     0.007 C 
HETATM    7  C   UNL     1     -21.681 -12.231  -2.432  1.00  0.00     0.009 C 
BRANCH   7   8
HETATM    8  C   UNL     1     -21.967 -12.556  -1.034  1.00  0.00    -0.048 C 
HETATM    9  C   UNL     1     -20.883 -12.778  -0.224  1.00  0.00    -0.077 C 
HETATM   10  C   UNL     1     -19.408 -12.568  -0.549  1.00  0.00     0.044 C 
HETATM   11  C   UNL     1     -21.003 -13.316   1.183  1.00  0.00     0.034 C 
HETATM   12  C   UNL     1     -22.353 -13.951   1.433  1.00  0.00     0.005 C 
HETATM   13  C   UNL     1     -23.413 -12.930   1.068  1.00  0.00     0.014 C 
HETATM   14  C   UNL     1     -23.436 -12.651  -0.471  1.00  0.00    -0.020 C 
HETATM   15  C   UNL     1     -24.232 -11.328  -0.633  1.00  0.00     0.020 C 
HETATM   16  C   UNL     1     -24.315 -13.760  -1.106  1.00  0.00     0.020 C 
ENDBRANCH   7   8
ENDBRANCH   4   6
ENDBRANCH   1   3
BRANCH   2  17
HETATM   17  C   UNL     1     -21.357  -6.373  -4.925  1.00  0.00    -0.056 C 
HETATM   18  C   UNL     1     -21.134  -5.414  -5.849  1.00  0.00     0.089 C 
HETATM   19  C   UNL     1     -21.299  -6.068  -3.442  1.00  0.00     0.048 C 
BRANCH  18  20
HETATM   20  C   UNL     1     -21.167  -5.480  -7.339  1.00  0.00     0.283 C 
HETATM   21  O   UNL     1     -20.160  -5.815  -7.957  1.00  0.00    -0.260 OA
BRANCH  20  22
HETATM   22  O   UNL     1     -22.338  -5.094  -7.913  1.00  0.00    -0.311 OA
BRANCH  22  23
HETATM   23  C   UNL     1     -22.346  -3.788  -8.508  1.00  0.00     0.258 C 
BRANCH  23  24
HETATM   24  C   UNL     1     -23.235  -3.446  -9.754  1.00  0.00     0.158 C 
HETATM   25  O   UNL     1     -24.364  -2.985  -9.587  1.00  0.00    -0.295 OA
BRANCH  24  26
HETATM   26  C   UNL     1     -22.728  -3.787 -11.182  1.00  0.00     0.012 C 
HETATM   27  C   UNL     1     -22.889  -2.557 -12.085  1.00  0.00     0.022 C 
HETATM   28  C   UNL     1     -21.227  -4.176 -11.208  1.00  0.00     0.022 C 
HETATM   29  C   UNL     1     -23.505  -4.993 -11.708  1.00  0.00     0.022 C 
ENDBRANCH  24  26
ENDBRANCH  23  24
ENDBRANCH  22  23
ENDBRANCH  20  22
ENDBRANCH  18  20
ENDBRANCH   2  17
TORSDOF 9
ENDMDL
MODEL 8
REMARK VINA RESULT:      -8.1      4.543      8.352
REMARK  9 active torsions:
REMARK  status: ('A' for Active; 'I' for Inactive)
REMARK    1  A    between atoms: C_3  and  C_10 
REMARK    2  A    between atoms: C_11  and  C_12 
REMARK    3  A    between atoms: C_13  and  C_14 
REMARK    4  A    between atoms: C_15  and  C_16 
REMARK    5  A    between atoms: C_17  and  C_18 
REMARK    6  A    between atoms: C_18  and  O_20 
REMARK    7  A    between atoms: O_20  and  C_21 
REMARK    8  A    between atoms: C_21  and  C_22 
REMARK    9  A    between atoms: C_22  and  C_24 
ROOT
HETATM    1  C   UNL     1     -20.226 -11.635  -0.096  1.00  0.00     0.001 C 
HETATM    2  C   UNL     1     -21.085 -10.674   0.287  1.00  0.00     0.007 C 
ENDROOT
BRANCH   1   3
HETATM    3  C   UNL     1     -18.970 -11.878   0.559  1.00  0.00     0.007 C 
HETATM    4  C   UNL     1     -17.757 -11.963  -0.012  1.00  0.00    -0.062 C 
HETATM    5  C   UNL     1     -16.563 -12.261   0.854  1.00  0.00     0.048 C 
BRANCH   4   6
HETATM    6  C   UNL     1     -17.469 -11.663  -1.424  1.00  0.00     0.007 C 
HETATM    7  C   UNL     1     -16.402 -12.220  -2.014  1.00  0.00     0.009 C 
BRANCH   7   8
HETATM    8  C   UNL     1     -15.820 -12.181  -3.356  1.00  0.00    -0.048 C 
HETATM    9  C   UNL     1     -14.734 -12.991  -3.575  1.00  0.00    -0.077 C 
HETATM   10  C   UNL     1     -14.153 -14.054  -2.649  1.00  0.00     0.044 C 
HETATM   11  C   UNL     1     -13.897 -12.923  -4.831  1.00  0.00     0.034 C 
HETATM   12  C   UNL     1     -14.124 -11.637  -5.594  1.00  0.00     0.005 C 
HETATM   13  C   UNL     1     -15.616 -11.506  -5.836  1.00  0.00     0.014 C 
HETATM   14  C   UNL     1     -16.395 -11.264  -4.501  1.00  0.00    -0.020 C 
HETATM   15  C   UNL     1     -17.879 -11.573  -4.835  1.00  0.00     0.020 C 
HETATM   16  C   UNL     1     -16.327  -9.740  -4.222  1.00  0.00     0.020 C 
ENDBRANCH   7   8
ENDBRANCH   4   6
ENDBRANCH   1   3
BRANCH   2  17
HETATM   17  C   UNL     1     -22.389 -10.518  -0.302  1.00  0.00    -0.056 C 
HETATM   18  C   UNL     1     -23.047  -9.339  -0.324  1.00  0.00     0.089 C 
HETATM   19  C   UNL     1     -23.012 -11.780  -0.863  1.00  0.00     0.048 C 
BRANCH  18  20
HETATM   20  C   UNL     1     -22.623  -7.986   0.138  1.00  0.00     0.283 C 
HETATM   21  O   UNL     1     -22.243  -7.828   1.296  1.00  0.00    -0.260 OA
BRANCH  20  22
HETATM   22  O   UNL     1     -22.752  -6.990  -0.779  1.00  0.00    -0.311 OA
BRANCH  22  23
HETATM   23  C   UNL     1     -21.596  -6.725  -1.587  1.00  0.00     0.258 C 
BRANCH  23  24
HETATM   24  C   UNL     1     -21.556  -7.062  -3.119  1.00  0.00     0.158 C 
HETATM   25  O   UNL     1     -22.213  -6.381  -3.907  1.00  0.00    -0.295 OA
BRANCH  24  26
HETATM   26  C   UNL     1     -20.778  -8.309  -3.615  1.00  0.00     0.012 C 
HETATM   27  C   UNL     1     -20.025  -7.957  -4.906  1.00  0.00     0.022 C 
HETATM   28  C   UNL     1     -19.721  -8.803  -2.594  1.00  0.00     0.022 C 
HETATM   29  C   UNL     1     -21.763  -9.459  -3.821  1.00  0.00     0.022 C 
ENDBRANCH  24  26
ENDBRANCH  23  24
ENDBRANCH  22  23
ENDBRANCH  20  22
ENDBRANCH  18  20
ENDBRANCH   2  17
TORSDOF 9
ENDMDL
MODEL 9
REMARK VINA RESULT:      -8.0      5.436      7.762
REMARK  9 active torsions:
REMARK  status: ('A' for Active; 'I' for Inactive)
REMARK    1  A    between atoms: C_3  and  C_10 
REMARK    2  A    between atoms: C_11  and  C_12 
REMARK    3  A    between atoms: C_13  and  C_14 
REMARK    4  A    between atoms: C_15  and  C_16 
REMARK    5  A    between atoms: C_17  and  C_18 
REMARK    6  A    between atoms: C_18  and  O_20 
REMARK    7  A    between atoms: O_20  and  C_21 
REMARK    8  A    between atoms: C_21  and  C_22 
REMARK    9  A    between atoms: C_22  and  C_24 
ROOT
HETATM    1  C   UNL     1     -19.828 -11.180  -5.757  1.00  0.00     0.001 C 
HETATM    2  C   UNL     1     -18.501 -11.284  -5.946  1.00  0.00     0.007 C 
ENDROOT
BRANCH   1   3
HETATM    3  C   UNL     1     -20.705 -12.315  -5.667  1.00  0.00     0.007 C 
HETATM    4  C   UNL     1     -21.794 -12.443  -4.889  1.00  0.00    -0.062 C 
HETATM    5  C   UNL     1     -22.560 -13.737  -4.916  1.00  0.00     0.048 C 
BRANCH   4   6
HETATM    6  C   UNL     1     -22.387 -11.361  -4.087  1.00  0.00     0.007 C 
HETATM    7  C   UNL     1     -21.780 -10.966  -2.959  1.00  0.00     0.009 C 
BRANCH   7   8
HETATM    8  C   UNL     1     -22.043  -9.948  -1.940  1.00  0.00    -0.048 C 
HETATM    9  C   UNL     1     -21.730  -8.655  -2.273  1.00  0.00    -0.077 C 
HETATM   10  C   UNL     1     -21.296  -8.113  -3.630  1.00  0.00     0.044 C 
HETATM   11  C   UNL     1     -21.750  -7.520  -1.275  1.00  0.00     0.034 C 
HETATM   12  C   UNL     1     -21.742  -8.021   0.152  1.00  0.00     0.005 C 
HETATM   13  C   UNL     1     -22.894  -8.998   0.300  1.00  0.00     0.014 C 
HETATM   14  C   UNL     1     -22.653 -10.301  -0.530  1.00  0.00    -0.020 C 
HETATM   15  C   UNL     1     -24.044 -10.984  -0.627  1.00  0.00     0.020 C 
HETATM   16  C   UNL     1     -21.779 -11.230   0.353  1.00  0.00     0.020 C 
ENDBRANCH   7   8
ENDBRANCH   4   6
ENDBRANCH   1   3
BRANCH   2  17
HETATM   17  C   UNL     1     -17.620 -10.147  -5.919  1.00  0.00    -0.056 C 
HETATM   18  C   UNL     1     -16.280 -10.260  -5.799  1.00  0.00     0.089 C 
HETATM   19  C   UNL     1     -18.294  -8.791  -5.984  1.00  0.00     0.048 C 
BRANCH  18  20
HETATM   20  C   UNL     1     -15.413 -11.472  -5.746  1.00  0.00     0.283 C 
HETATM   21  O   UNL     1     -15.240 -12.144  -6.761  1.00  0.00    -0.260 OA
BRANCH  20  22
HETATM   22  O   UNL     1     -14.912 -11.777  -4.519  1.00  0.00    -0.311 OA
BRANCH  22  23
HETATM   23  C   UNL     1     -15.832 -12.379  -3.596  1.00  0.00     0.258 C 
BRANCH  23  24
HETATM   24  C   UNL     1     -16.334 -11.629  -2.314  1.00  0.00     0.158 C 
HETATM   25  O   UNL     1     -15.515 -11.117  -1.550  1.00  0.00    -0.295 OA
BRANCH  24  26
HETATM   26  C   UNL     1     -17.846 -11.627  -1.962  1.00  0.00     0.012 C 
HETATM   27  C   UNL     1     -18.538 -12.786  -2.691  1.00  0.00     0.022 C 
HETATM   28  C   UNL     1     -18.110 -11.822  -0.447  1.00  0.00     0.022 C 
HETATM   29  C   UNL     1     -18.442 -10.272  -2.342  1.00  0.00     0.022 C 
ENDBRANCH  24  26
ENDBRANCH  23  24
ENDBRANCH  22  23
ENDBRANCH  20  22
ENDBRANCH  18  20
ENDBRANCH   2  17
TORSDOF 9
ENDMDL
