MODEL 1
REMARK VINA RESULT:      -8.2      0.000      0.000
REMARK  8 active torsions:
REMARK  status: ('A' for Active; 'I' for Inactive)
REMARK    1  A    between atoms: C_1  and  N_2 
REMARK    2  A    between atoms: C_1  and  N_15 
REMARK       I    between atoms: N_2  and  C_3 
REMARK       I    between atoms: C_3  and  N_5 
REMARK    3  A    between atoms: N_5  and  C_6 
REMARK    4  A    between atoms: N_12  and  C_13 
REMARK    5  A    between atoms: C_13  and  O_14 
REMARK       I    between atoms: N_15  and  C_16 
REMARK       I    between atoms: C_16  and  N_18 
REMARK    6  A    between atoms: N_18  and  C_19 
REMARK    7  A    between atoms: N_25  and  C_26 
REMARK    8  A    between atoms: C_26  and  O_27 
ROOT
HETATM    1  C   UNL     1     -21.470  -5.431  -5.584  1.00  0.00     0.252 C 
ENDROOT
BRANCH   1   2
HETATM    2  N   UNL     1     -21.532  -6.682  -4.891  1.00  0.00    -0.327 N 
HETATM    3  C   UNL     1     -21.283  -6.707  -3.549  1.00  0.00     0.319 C 
HETATM    4  O   UNL     1     -20.857  -5.747  -2.919  1.00  0.00    -0.247 OA
HETATM    5  N   UNL     1     -21.479  -7.937  -2.997  1.00  0.00    -0.313 N 
HETATM    6  H   UNL     1     -21.901  -8.673  -3.540  1.00  0.00     0.166 HD
HETATM    7  H   UNL     1     -22.198  -7.343  -5.254  1.00  0.00     0.165 HD
BRANCH   5   8
HETATM    8  C   UNL     1     -21.114  -8.193  -1.634  1.00  0.00     0.288 C 
HETATM    9  C   UNL     1     -22.253  -7.931  -0.630  1.00  0.00     0.268 C 
HETATM   10  O   UNL     1     -22.961  -6.933  -0.569  1.00  0.00    -0.269 OA
HETATM   11  N   UNL     1     -22.331  -8.994   0.212  1.00  0.00    -0.276 N 
HETATM   12  C   UNL     1     -21.474  -9.966  -0.177  1.00  0.00     0.328 C 
HETATM   13  H   UNL     1     -22.948  -9.065   1.002  1.00  0.00     0.173 HD
HETATM   14  O   UNL     1     -21.265 -11.007   0.424  1.00  0.00    -0.247 OA
HETATM   15  N   UNL     1     -20.868  -9.587  -1.363  1.00  0.00    -0.282 N 
BRANCH  15  16
HETATM   16  C   UNL     1     -19.682 -10.233  -1.843  1.00  0.00     0.297 C 
BRANCH  16  17
HETATM   17  O   UNL     1     -18.899  -9.270  -2.519  1.00  0.00    -0.382 OA
HETATM   18  H   UNL     1     -19.315  -9.177  -3.398  1.00  0.00     0.211 HD
ENDBRANCH  16  17
ENDBRANCH  15  16
ENDBRANCH   5   8
ENDBRANCH   1   2
BRANCH   1  19
HETATM   19  N   UNL     1     -21.748  -5.604  -6.984  1.00  0.00    -0.327 N 
HETATM   20  C   UNL     1     -21.740  -4.515  -7.810  1.00  0.00     0.319 C 
HETATM   21  O   UNL     1     -21.639  -3.360  -7.422  1.00  0.00    -0.247 OA
HETATM   22  N   UNL     1     -21.913  -4.855  -9.119  1.00  0.00    -0.313 N 
HETATM   23  H   UNL     1     -22.346  -5.745  -9.311  1.00  0.00     0.166 HD
HETATM   24  H   UNL     1     -21.379  -6.448  -7.393  1.00  0.00     0.165 HD
BRANCH  22  25
HETATM   25  C   UNL     1     -22.077  -3.822 -10.102  1.00  0.00     0.288 C 
HETATM   26  C   UNL     1     -21.107  -3.975 -11.290  1.00  0.00     0.268 C 
HETATM   27  O   UNL     1     -19.891  -4.076 -11.238  1.00  0.00    -0.269 OA
HETATM   28  N   UNL     1     -21.835  -3.966 -12.436  1.00  0.00    -0.276 N 
HETATM   29  C   UNL     1     -23.155  -3.840 -12.160  1.00  0.00     0.328 C 
HETATM   30  H   UNL     1     -21.451  -3.977 -13.365  1.00  0.00     0.173 HD
HETATM   31  O   UNL     1     -24.035  -3.673 -12.986  1.00  0.00    -0.247 OA
HETATM   32  N   UNL     1     -23.340  -3.911 -10.791  1.00  0.00    -0.282 N 
BRANCH  32  33
HETATM   33  C   UNL     1     -24.543  -3.420 -10.181  1.00  0.00     0.297 C 
BRANCH  33  34
HETATM   34  O   UNL     1     -25.158  -4.494  -9.502  1.00  0.00    -0.382 OA
HETATM   35  H   UNL     1     -26.087  -4.219  -9.382  1.00  0.00     0.211 HD
ENDBRANCH  33  34
ENDBRANCH  32  33
ENDBRANCH  22  25
ENDBRANCH   1  19
TORSDOF 8
ENDMDL
MODEL 2
REMARK VINA RESULT:      -8.2      1.311      9.957
REMARK  8 active torsions:
REMARK  status: ('A' for Active; 'I' for Inactive)
REMARK    1  A    between atoms: C_1  and  N_2 
REMARK    2  A    between atoms: C_1  and  N_15 
REMARK       I    between atoms: N_2  and  C_3 
REMARK       I    between atoms: C_3  and  N_5 
REMARK    3  A    between atoms: N_5  and  C_6 
REMARK    4  A    between atoms: N_12  and  C_13 
REMARK    5  A    between atoms: C_13  and  O_14 
REMARK       I    between atoms: N_15  and  C_16 
REMARK       I    between atoms: C_16  and  N_18 
REMARK    6  A    between atoms: N_18  and  C_19 
REMARK    7  A    between atoms: N_25  and  C_26 
REMARK    8  A    between atoms: C_26  and  O_27 
ROOT
HETATM    1  C   UNL     1     -20.456  -5.295  -5.772  1.00  0.00     0.252 C 
ENDROOT
BRANCH   1   2
HETATM    2  N   UNL     1     -21.268  -5.436  -6.943  1.00  0.00    -0.327 N 
HETATM    3  C   UNL     1     -21.194  -4.484  -7.917  1.00  0.00     0.319 C 
HETATM    4  O   UNL     1     -20.586  -3.428  -7.791  1.00  0.00    -0.247 OA
HETATM    5  N   UNL     1     -21.935  -4.793  -9.018  1.00  0.00    -0.313 N 
HETATM    6  H   UNL     1     -22.354  -5.705  -9.105  1.00  0.00     0.166 HD
HETATM    7  H   UNL     1     -21.451  -6.384  -7.229  1.00  0.00     0.165 HD
BRANCH   5   8
HETATM    8  C   UNL     1     -22.106  -3.840 -10.076  1.00  0.00     0.288 C 
HETATM    9  C   UNL     1     -21.153  -4.062 -11.266  1.00  0.00     0.268 C 
HETATM   10  O   UNL     1     -19.942  -4.237 -11.213  1.00  0.00    -0.269 OA
HETATM   11  N   UNL     1     -21.882  -4.002 -12.411  1.00  0.00    -0.276 N 
HETATM   12  C   UNL     1     -23.199  -3.887 -12.124  1.00  0.00     0.328 C 
HETATM   13  H   UNL     1     -21.507  -4.056 -13.342  1.00  0.00     0.173 HD
HETATM   14  O   UNL     1     -24.091  -3.736 -12.943  1.00  0.00    -0.247 OA
HETATM   15  N   UNL     1     -23.372  -3.962 -10.753  1.00  0.00    -0.282 N 
BRANCH  15  16
HETATM   16  C   UNL     1     -24.588  -3.539 -10.122  1.00  0.00     0.297 C 
BRANCH  16  17
HETATM   17  O   UNL     1     -24.335  -3.378  -8.741  1.00  0.00    -0.382 OA
HETATM   18  H   UNL     1     -23.881  -4.198  -8.469  1.00  0.00     0.211 HD
ENDBRANCH  16  17
ENDBRANCH  15  16
ENDBRANCH   5   8
ENDBRANCH   1   2
BRANCH   1  19
HETATM   19  N   UNL     1     -20.312  -6.553  -5.091  1.00  0.00    -0.327 N 
HETATM   20  C   UNL     1     -21.326  -7.007  -4.295  1.00  0.00     0.319 C 
HETATM   21  O   UNL     1     -22.317  -6.351  -4.006  1.00  0.00    -0.247 OA
HETATM   22  N   UNL     1     -21.085  -8.257  -3.808  1.00  0.00    -0.313 N 
HETATM   23  H   UNL     1     -20.126  -8.566  -3.785  1.00  0.00     0.166 HD
HETATM   24  H   UNL     1     -19.831  -7.270  -5.612  1.00  0.00     0.165 HD
BRANCH  22  25
HETATM   25  C   UNL     1     -21.979  -8.823  -2.837  1.00  0.00     0.288 C 
HETATM   26  C   UNL     1     -22.142 -10.346  -3.000  1.00  0.00     0.268 C 
HETATM   27  O   UNL     1     -22.464 -10.948  -4.013  1.00  0.00    -0.269 OA
HETATM   28  N   UNL     1     -21.878 -10.932  -1.804  1.00  0.00    -0.276 N 
HETATM   29  C   UNL     1     -21.550  -9.997  -0.880  1.00  0.00     0.328 C 
HETATM   30  H   UNL     1     -21.979 -11.912  -1.605  1.00  0.00     0.173 HD
HETATM   31  O   UNL     1     -21.388 -10.208   0.310  1.00  0.00    -0.247 OA
HETATM   32  N   UNL     1     -21.448  -8.764  -1.498  1.00  0.00    -0.282 N 
BRANCH  32  33
HETATM   33  C   UNL     1     -21.510  -7.549  -0.739  1.00  0.00     0.297 C 
BRANCH  33  34
HETATM   34  O   UNL     1     -22.658  -6.836  -1.148  1.00  0.00    -0.382 OA
HETATM   35  H   UNL     1     -22.316  -6.033  -1.586  1.00  0.00     0.211 HD
ENDBRANCH  33  34
ENDBRANCH  32  33
ENDBRANCH  22  25
ENDBRANCH   1  19
TORSDOF 8
ENDMDL
MODEL 3
REMARK VINA RESULT:      -8.2      1.349      1.952
REMARK  8 active torsions:
REMARK  status: ('A' for Active; 'I' for Inactive)
REMARK    1  A    between atoms: C_1  and  N_2 
REMARK    2  A    between atoms: C_1  and  N_15 
REMARK       I    between atoms: N_2  and  C_3 
REMARK       I    between atoms: C_3  and  N_5 
REMARK    3  A    between atoms: N_5  and  C_6 
REMARK    4  A    between atoms: N_12  and  C_13 
REMARK    5  A    between atoms: C_13  and  O_14 
REMARK       I    between atoms: N_15  and  C_16 
REMARK       I    between atoms: C_16  and  N_18 
REMARK    6  A    between atoms: N_18  and  C_19 
REMARK    7  A    between atoms: N_25  and  C_26 
REMARK    8  A    between atoms: C_26  and  O_27 
ROOT
HETATM    1  C   UNL     1     -20.342  -5.250  -5.842  1.00  0.00     0.252 C 
ENDROOT
BRANCH   1   2
HETATM    2  N   UNL     1     -20.210  -6.497  -5.152  1.00  0.00    -0.327 N 
HETATM    3  C   UNL     1     -21.264  -6.961  -4.420  1.00  0.00     0.319 C 
HETATM    4  O   UNL     1     -22.272  -6.306  -4.188  1.00  0.00    -0.247 OA
HETATM    5  N   UNL     1     -21.044  -8.203  -3.904  1.00  0.00    -0.313 N 
HETATM    6  H   UNL     1     -20.233  -8.731  -4.186  1.00  0.00     0.166 HD
HETATM    7  H   UNL     1     -19.616  -7.176  -5.599  1.00  0.00     0.165 HD
BRANCH   5   8
HETATM    8  C   UNL     1     -21.972  -8.786  -2.979  1.00  0.00     0.288 C 
HETATM    9  C   UNL     1     -22.116 -10.313  -3.128  1.00  0.00     0.268 C 
HETATM   10  O   UNL     1     -22.299 -10.934  -4.168  1.00  0.00    -0.269 OA
HETATM   11  N   UNL     1     -22.034 -10.870  -1.892  1.00  0.00    -0.276 N 
HETATM   12  C   UNL     1     -21.741  -9.926  -0.969  1.00  0.00     0.328 C 
HETATM   13  H   UNL     1     -22.153 -11.847  -1.686  1.00  0.00     0.173 HD
HETATM   14  O   UNL     1     -21.677 -10.110   0.236  1.00  0.00    -0.247 OA
HETATM   15  N   UNL     1     -21.530  -8.717  -1.609  1.00  0.00    -0.282 N 
BRANCH  15  16
HETATM   16  C   UNL     1     -21.537  -7.474  -0.895  1.00  0.00     0.297 C 
BRANCH  16  17
HETATM   17  O   UNL     1     -22.644  -6.717  -1.340  1.00  0.00    -0.382 OA
HETATM   18  H   UNL     1     -22.801  -6.059  -0.636  1.00  0.00     0.211 HD
ENDBRANCH  16  17
ENDBRANCH  15  16
ENDBRANCH   5   8
ENDBRANCH   1   2
BRANCH   1  19
HETATM   19  N   UNL     1     -21.216  -5.379  -6.976  1.00  0.00    -0.327 N 
HETATM   20  C   UNL     1     -21.169  -4.444  -7.971  1.00  0.00     0.319 C 
HETATM   21  O   UNL     1     -20.518  -3.411  -7.912  1.00  0.00    -0.247 OA
HETATM   22  N   UNL     1     -21.976  -4.762  -9.023  1.00  0.00    -0.313 N 
HETATM   23  H   UNL     1     -22.731  -5.406  -8.846  1.00  0.00     0.166 HD
HETATM   24  H   UNL     1     -21.373  -6.324  -7.292  1.00  0.00     0.165 HD
BRANCH  22  25
HETATM   25  C   UNL     1     -22.158  -3.816 -10.087  1.00  0.00     0.288 C 
HETATM   26  C   UNL     1     -21.235  -4.092 -11.290  1.00  0.00     0.268 C 
HETATM   27  O   UNL     1     -20.019  -4.214 -11.272  1.00  0.00    -0.269 OA
HETATM   28  N   UNL     1     -22.003  -4.169 -12.406  1.00  0.00    -0.276 N 
HETATM   29  C   UNL     1     -23.310  -3.992 -12.096  1.00  0.00     0.328 C 
HETATM   30  H   UNL     1     -21.654  -4.269 -13.343  1.00  0.00     0.173 HD
HETATM   31  O   UNL     1     -24.217  -3.880 -12.902  1.00  0.00    -0.247 OA
HETATM   32  N   UNL     1     -23.447  -3.940 -10.721  1.00  0.00    -0.282 N 
BRANCH  32  33
HETATM   33  C   UNL     1     -24.617  -3.373 -10.115  1.00  0.00     0.297 C 
BRANCH  33  34
HETATM   34  O   UNL     1     -24.459  -3.437  -8.714  1.00  0.00    -0.382 OA
HETATM   35  H   UNL     1     -24.079  -2.574  -8.461  1.00  0.00     0.211 HD
ENDBRANCH  33  34
ENDBRANCH  32  33
ENDBRANCH  22  25
ENDBRANCH   1  19
TORSDOF 8
ENDMDL
MODEL 4
REMARK VINA RESULT:      -8.0     12.763     15.650
REMARK  8 active torsions:
REMARK  status: ('A' for Active; 'I' for Inactive)
REMARK    1  A    between atoms: C_1  and  N_2 
REMARK    2  A    between atoms: C_1  and  N_15 
REMARK       I    between atoms: N_2  and  C_3 
REMARK       I    between atoms: C_3  and  N_5 
REMARK    3  A    between atoms: N_5  and  C_6 
REMARK    4  A    between atoms: N_12  and  C_13 
REMARK    5  A    between atoms: C_13  and  O_14 
REMARK       I    between atoms: N_15  and  C_16 
REMARK       I    between atoms: C_16  and  N_18 
REMARK    6  A    between atoms: N_18  and  C_19 
REMARK    7  A    between atoms: N_25  and  C_26 
REMARK    8  A    between atoms: C_26  and  O_27 
ROOT
HETATM    1  C   UNL     1     -33.324  -4.907 -17.101  1.00  0.00     0.252 C 
ENDROOT
BRANCH   1   2
HETATM    2  N   UNL     1     -32.659  -6.173 -17.041  1.00  0.00    -0.327 N 
HETATM    3  C   UNL     1     -31.303  -6.215 -17.189  1.00  0.00     0.319 C 
HETATM    4  O   UNL     1     -30.625  -5.251 -17.523  1.00  0.00    -0.247 OA
HETATM    5  N   UNL     1     -30.788  -7.463 -17.006  1.00  0.00    -0.313 N 
HETATM    6  H   UNL     1     -31.374  -8.206 -16.659  1.00  0.00     0.166 HD
HETATM    7  H   UNL     1     -33.084  -6.855 -16.435  1.00  0.00     0.165 HD
BRANCH   5   8
HETATM    8  C   UNL     1     -29.406  -7.731 -17.277  1.00  0.00     0.288 C 
HETATM    9  C   UNL     1     -29.052  -7.697 -18.776  1.00  0.00     0.268 C 
HETATM   10  O   UNL     1     -29.651  -8.260 -19.684  1.00  0.00    -0.269 OA
HETATM   11  N   UNL     1     -27.929  -6.948 -18.931  1.00  0.00    -0.276 N 
HETATM   12  C   UNL     1     -27.567  -6.394 -17.752  1.00  0.00     0.328 C 
HETATM   13  H   UNL     1     -27.442  -6.804 -19.799  1.00  0.00     0.173 HD
HETATM   14  O   UNL     1     -26.560  -5.732 -17.560  1.00  0.00    -0.247 OA
HETATM   15  N   UNL     1     -28.520  -6.702 -16.795  1.00  0.00    -0.282 N 
BRANCH  15  16
HETATM   16  C   UNL     1     -28.257  -6.553 -15.394  1.00  0.00     0.297 C 
BRANCH  16  17
HETATM   17  O   UNL     1     -29.102  -5.538 -14.893  1.00  0.00    -0.382 OA
HETATM   18  H   UNL     1     -28.916  -5.503 -13.935  1.00  0.00     0.211 HD
ENDBRANCH  16  17
ENDBRANCH  15  16
ENDBRANCH   5   8
ENDBRANCH   1   2
BRANCH   1  19
HETATM   19  N   UNL     1     -33.121  -4.161 -15.888  1.00  0.00    -0.327 N 
HETATM   20  C   UNL     1     -33.949  -4.374 -14.822  1.00  0.00     0.319 C 
HETATM   21  O   UNL     1     -34.953  -5.071 -14.861  1.00  0.00    -0.247 OA
HETATM   22  N   UNL     1     -33.563  -3.675 -13.717  1.00  0.00    -0.313 N 
HETATM   23  H   UNL     1     -32.975  -2.870 -13.863  1.00  0.00     0.166 HD
HETATM   24  H   UNL     1     -32.157  -3.989 -15.647  1.00  0.00     0.165 HD
BRANCH  22  25
HETATM   25  C   UNL     1     -34.405  -3.668 -12.554  1.00  0.00     0.288 C 
HETATM   26  C   UNL     1     -33.742  -4.345 -11.339  1.00  0.00     0.268 C 
HETATM   27  O   UNL     1     -33.264  -5.468 -11.291  1.00  0.00    -0.269 OA
HETATM   28  N   UNL     1     -33.785  -3.478 -10.295  1.00  0.00    -0.276 N 
HETATM   29  C   UNL     1     -34.377  -2.317 -10.666  1.00  0.00     0.328 C 
HETATM   30  H   UNL     1     -33.489  -3.686  -9.357  1.00  0.00     0.173 HD
HETATM   31  O   UNL     1     -34.673  -1.405  -9.914  1.00  0.00    -0.247 OA
HETATM   32  N   UNL     1     -34.610  -2.342 -12.029  1.00  0.00    -0.282 N 
BRANCH  32  33
HETATM   33  C   UNL     1     -35.561  -1.454 -12.633  1.00  0.00     0.297 C 
BRANCH  33  34
HETATM   34  O   UNL     1     -35.219  -1.308 -13.994  1.00  0.00    -0.382 OA
HETATM   35  H   UNL     1     -35.981  -0.851 -14.400  1.00  0.00     0.211 HD
ENDBRANCH  33  34
ENDBRANCH  32  33
ENDBRANCH  22  25
ENDBRANCH   1  19
TORSDOF 8
ENDMDL
MODEL 5
REMARK VINA RESULT:      -7.9      1.533     10.087
REMARK  8 active torsions:
REMARK  status: ('A' for Active; 'I' for Inactive)
REMARK    1  A    between atoms: C_1  and  N_2 
REMARK    2  A    between atoms: C_1  and  N_15 
REMARK       I    between atoms: N_2  and  C_3 
REMARK       I    between atoms: C_3  and  N_5 
REMARK    3  A    between atoms: N_5  and  C_6 
REMARK    4  A    between atoms: N_12  and  C_13 
REMARK    5  A    between atoms: C_13  and  O_14 
REMARK       I    between atoms: N_15  and  C_16 
REMARK       I    between atoms: C_16  and  N_18 
REMARK    6  A    between atoms: N_18  and  C_19 
REMARK    7  A    between atoms: N_25  and  C_26 
REMARK    8  A    between atoms: C_26  and  O_27 
ROOT
HETATM    1  C   UNL     1     -20.657  -5.714  -6.137  1.00  0.00     0.252 C 
ENDROOT
BRANCH   1   2
HETATM    2  N   UNL     1     -21.411  -5.723  -7.353  1.00  0.00    -0.327 N 
HETATM    3  C   UNL     1     -21.348  -4.638  -8.178  1.00  0.00     0.319 C 
HETATM    4  O   UNL     1     -20.804  -3.584  -7.875  1.00  0.00    -0.247 OA
HETATM    5  N   UNL     1     -22.026  -4.821  -9.346  1.00  0.00    -0.313 N 
HETATM    6  H   UNL     1     -22.392  -5.730  -9.581  1.00  0.00     0.166 HD
HETATM    7  H   UNL     1     -21.531  -6.628  -7.779  1.00  0.00     0.165 HD
BRANCH   5   8
HETATM    8  C   UNL     1     -22.205  -3.736 -10.266  1.00  0.00     0.288 C 
HETATM    9  C   UNL     1     -21.264  -3.797 -11.484  1.00  0.00     0.268 C 
HETATM   10  O   UNL     1     -20.053  -3.980 -11.467  1.00  0.00    -0.269 OA
HETATM   11  N   UNL     1     -22.004  -3.584 -12.604  1.00  0.00    -0.276 N 
HETATM   12  C   UNL     1     -23.317  -3.507 -12.292  1.00  0.00     0.328 C 
HETATM   13  H   UNL     1     -21.637  -3.513 -13.537  1.00  0.00     0.173 HD
HETATM   14  O   UNL     1     -24.216  -3.247 -13.075  1.00  0.00    -0.247 OA
HETATM   15  N   UNL     1     -23.478  -3.764 -10.941  1.00  0.00    -0.282 N 
BRANCH  15  16
HETATM   16  C   UNL     1     -24.687  -3.427 -10.247  1.00  0.00     0.297 C 
BRANCH  16  17
HETATM   17  O   UNL     1     -24.397  -3.357  -8.866  1.00  0.00    -0.382 OA
HETATM   18  H   UNL     1     -25.252  -3.511  -8.420  1.00  0.00     0.211 HD
ENDBRANCH  16  17
ENDBRANCH  15  16
ENDBRANCH   5   8
ENDBRANCH   1   2
BRANCH   1  19
HETATM   19  N   UNL     1     -21.382  -6.358  -5.076  1.00  0.00    -0.327 N 
HETATM   20  C   UNL     1     -20.820  -7.421  -4.426  1.00  0.00     0.319 C 
HETATM   21  O   UNL     1     -19.779  -7.962  -4.769  1.00  0.00    -0.247 OA
HETATM   22  N   UNL     1     -21.580  -7.851  -3.379  1.00  0.00    -0.313 N 
HETATM   23  H   UNL     1     -22.558  -7.608  -3.389  1.00  0.00     0.166 HD
HETATM   24  H   UNL     1     -21.921  -5.740  -4.488  1.00  0.00     0.165 HD
BRANCH  22  25
HETATM   25  C   UNL     1     -21.210  -9.049  -2.681  1.00  0.00     0.288 C 
HETATM   26  C   UNL     1     -21.353  -8.913  -1.153  1.00  0.00     0.268 C 
HETATM   27  O   UNL     1     -20.861  -8.051  -0.441  1.00  0.00    -0.269 OA
HETATM   28  N   UNL     1     -22.123  -9.939  -0.706  1.00  0.00    -0.276 N 
HETATM   29  C   UNL     1     -22.515 -10.724  -1.739  1.00  0.00     0.328 C 
HETATM   30  H   UNL     1     -22.319 -10.137   0.260  1.00  0.00     0.173 HD
HETATM   31  O   UNL     1     -23.103 -11.786  -1.633  1.00  0.00    -0.247 OA
HETATM   32  N   UNL     1     -22.124 -10.136  -2.928  1.00  0.00    -0.282 N 
BRANCH  32  33
HETATM   33  C   UNL     1     -22.040 -10.902  -4.139  1.00  0.00     0.297 C 
BRANCH  33  34
HETATM   34  O   UNL     1     -20.757 -10.704  -4.692  1.00  0.00    -0.382 OA
HETATM   35  H   UNL     1     -20.811  -9.848  -5.159  1.00  0.00     0.211 HD
ENDBRANCH  33  34
ENDBRANCH  32  33
ENDBRANCH  22  25
ENDBRANCH   1  19
TORSDOF 8
ENDMDL
MODEL 6
REMARK VINA RESULT:      -7.8      6.686     13.306
REMARK  8 active torsions:
REMARK  status: ('A' for Active; 'I' for Inactive)
REMARK    1  A    between atoms: C_1  and  N_2 
REMARK    2  A    between atoms: C_1  and  N_15 
REMARK       I    between atoms: N_2  and  C_3 
REMARK       I    between atoms: C_3  and  N_5 
REMARK    3  A    between atoms: N_5  and  C_6 
REMARK    4  A    between atoms: N_12  and  C_13 
REMARK    5  A    between atoms: C_13  and  O_14 
REMARK       I    between atoms: N_15  and  C_16 
REMARK       I    between atoms: C_16  and  N_18 
REMARK    6  A    between atoms: N_18  and  C_19 
REMARK    7  A    between atoms: N_25  and  C_26 
REMARK    8  A    between atoms: C_26  and  O_27 
ROOT
HETATM    1  C   UNL     1     -25.025  -6.298 -15.675  1.00  0.00     0.252 C 
ENDROOT
BRANCH   1   2
HETATM    2  N   UNL     1     -26.325  -6.886 -15.776  1.00  0.00    -0.327 N 
HETATM    3  C   UNL     1     -27.161  -6.474 -16.773  1.00  0.00     0.319 C 
HETATM    4  O   UNL     1     -26.929  -5.519 -17.504  1.00  0.00    -0.247 OA
HETATM    5  N   UNL     1     -28.322  -7.187 -16.820  1.00  0.00    -0.313 N 
HETATM    6  H   UNL     1     -28.433  -8.010 -16.248  1.00  0.00     0.166 HD
HETATM    7  H   UNL     1     -26.388  -7.846 -15.480  1.00  0.00     0.165 HD
BRANCH   5   8
HETATM    8  C   UNL     1     -29.386  -6.795 -17.696  1.00  0.00     0.288 C 
HETATM    9  C   UNL     1     -29.940  -7.950 -18.551  1.00  0.00     0.268 C 
HETATM   10  O   UNL     1     -29.289  -8.752 -19.210  1.00  0.00    -0.269 OA
HETATM   11  N   UNL     1     -31.296  -7.921 -18.479  1.00  0.00    -0.276 N 
HETATM   12  C   UNL     1     -31.700  -6.975 -17.602  1.00  0.00     0.328 C 
HETATM   13  H   UNL     1     -31.918  -8.526 -18.987  1.00  0.00     0.173 HD
HETATM   14  O   UNL     1     -32.859  -6.663 -17.381  1.00  0.00    -0.247 OA
HETATM   15  N   UNL     1     -30.588  -6.413 -16.998  1.00  0.00    -0.282 N 
BRANCH  15  16
HETATM   16  C   UNL     1     -30.663  -5.170 -16.286  1.00  0.00     0.297 C 
BRANCH  16  17
HETATM   17  O   UNL     1     -31.276  -4.217 -17.129  1.00  0.00    -0.382 OA
HETATM   18  H   UNL     1     -30.918  -3.355 -16.841  1.00  0.00     0.211 HD
ENDBRANCH  16  17
ENDBRANCH  15  16
ENDBRANCH   5   8
ENDBRANCH   1   2
BRANCH   1  19
HETATM   19  N   UNL     1     -24.591  -6.238 -14.305  1.00  0.00    -0.327 N 
HETATM   20  C   UNL     1     -24.247  -5.033 -13.761  1.00  0.00     0.319 C 
HETATM   21  O   UNL     1     -24.151  -3.994 -14.399  1.00  0.00    -0.247 OA
HETATM   22  N   UNL     1     -23.963  -5.125 -12.431  1.00  0.00    -0.313 N 
HETATM   23  H   UNL     1     -23.709  -6.034 -12.075  1.00  0.00     0.166 HD
HETATM   24  H   UNL     1     -25.070  -6.865 -13.676  1.00  0.00     0.165 HD
BRANCH  22  25
HETATM   25  C   UNL     1     -23.441  -3.982 -11.738  1.00  0.00     0.288 C 
HETATM   26  C   UNL     1     -24.389  -3.476 -10.632  1.00  0.00     0.268 C 
HETATM   27  O   UNL     1     -25.566  -3.175 -10.753  1.00  0.00    -0.269 OA
HETATM   28  N   UNL     1     -23.686  -3.402  -9.473  1.00  0.00    -0.276 N 
HETATM   29  C   UNL     1     -22.407  -3.803  -9.666  1.00  0.00     0.328 C 
HETATM   30  H   UNL     1     -24.038  -3.033  -8.606  1.00  0.00     0.173 HD
HETATM   31  O   UNL     1     -21.511  -3.723  -8.843  1.00  0.00    -0.247 OA
HETATM   32  N   UNL     1     -22.276  -4.299 -10.950  1.00  0.00    -0.282 N 
BRANCH  32  33
HETATM   33  C   UNL     1     -20.987  -4.421 -11.568  1.00  0.00     0.297 C 
BRANCH  33  34
HETATM   34  O   UNL     1     -20.366  -3.154 -11.538  1.00  0.00    -0.382 OA
HETATM   35  H   UNL     1     -19.640  -3.242 -10.892  1.00  0.00     0.211 HD
ENDBRANCH  33  34
ENDBRANCH  32  33
ENDBRANCH  22  25
ENDBRANCH   1  19
TORSDOF 8
ENDMDL
MODEL 7
REMARK VINA RESULT:      -7.8      2.246      3.253
REMARK  8 active torsions:
REMARK  status: ('A' for Active; 'I' for Inactive)
REMARK    1  A    between atoms: C_1  and  N_2 
REMARK    2  A    between atoms: C_1  and  N_15 
REMARK       I    between atoms: N_2  and  C_3 
REMARK       I    between atoms: C_3  and  N_5 
REMARK    3  A    between atoms: N_5  and  C_6 
REMARK    4  A    between atoms: N_12  and  C_13 
REMARK    5  A    between atoms: C_13  and  O_14 
REMARK       I    between atoms: N_15  and  C_16 
REMARK       I    between atoms: C_16  and  N_18 
REMARK    6  A    between atoms: N_18  and  C_19 
REMARK    7  A    between atoms: N_25  and  C_26 
REMARK    8  A    between atoms: C_26  and  O_27 
ROOT
HETATM    1  C   UNL     1     -21.126  -5.485  -5.935  1.00  0.00     0.252 C 
ENDROOT
BRANCH   1   2
HETATM    2  N   UNL     1     -20.104  -6.450  -5.665  1.00  0.00    -0.327 N 
HETATM    3  C   UNL     1     -20.464  -7.748  -5.445  1.00  0.00     0.319 C 
HETATM    4  O   UNL     1     -21.624  -8.120  -5.313  1.00  0.00    -0.247 OA
HETATM    5  N   UNL     1     -19.393  -8.579  -5.308  1.00  0.00    -0.313 N 
HETATM    6  H   UNL     1     -18.463  -8.241  -5.501  1.00  0.00     0.166 HD
HETATM    7  H   UNL     1     -19.221  -6.281  -6.117  1.00  0.00     0.165 HD
BRANCH   5   8
HETATM    8  C   UNL     1     -19.573  -9.946  -4.914  1.00  0.00     0.288 C 
HETATM    9  C   UNL     1     -18.778 -10.946  -5.776  1.00  0.00     0.268 C 
HETATM   10  O   UNL     1     -18.736 -10.989  -6.999  1.00  0.00    -0.269 OA
HETATM   11  N   UNL     1     -18.139 -11.810  -4.944  1.00  0.00    -0.276 N 
HETATM   12  C   UNL     1     -18.316 -11.439  -3.655  1.00  0.00     0.328 C 
HETATM   13  H   UNL     1     -17.594 -12.602  -5.236  1.00  0.00     0.173 HD
HETATM   14  O   UNL     1     -17.925 -12.060  -2.680  1.00  0.00    -0.247 OA
HETATM   15  N   UNL     1     -19.015 -10.245  -3.620  1.00  0.00    -0.282 N 
BRANCH  15  16
HETATM   16  C   UNL     1     -19.645  -9.775  -2.420  1.00  0.00     0.297 C 
BRANCH  16  17
HETATM   17  O   UNL     1     -21.023  -9.608  -2.683  1.00  0.00    -0.382 OA
HETATM   18  H   UNL     1     -21.458  -9.667  -1.811  1.00  0.00     0.211 HD
ENDBRANCH  16  17
ENDBRANCH  15  16
ENDBRANCH   5   8
ENDBRANCH   1   2
BRANCH   1  19
HETATM   19  N   UNL     1     -21.599  -5.599  -7.288  1.00  0.00    -0.327 N 
HETATM   20  C   UNL     1     -21.637  -4.488  -8.083  1.00  0.00     0.319 C 
HETATM   21  O   UNL     1     -21.417  -3.353  -7.686  1.00  0.00    -0.247 OA
HETATM   22  N   UNL     1     -22.004  -4.778  -9.363  1.00  0.00    -0.313 N 
HETATM   23  H   UNL     1     -22.510  -5.637  -9.515  1.00  0.00     0.166 HD
HETATM   24  H   UNL     1     -21.338  -6.450  -7.762  1.00  0.00     0.165 HD
BRANCH  22  25
HETATM   25  C   UNL     1     -22.237  -3.709 -10.292  1.00  0.00     0.288 C 
HETATM   26  C   UNL     1     -21.304  -3.774 -11.517  1.00  0.00     0.268 C 
HETATM   27  O   UNL     1     -20.084  -3.834 -11.510  1.00  0.00    -0.269 OA
HETATM   28  N   UNL     1     -22.071  -3.739 -12.636  1.00  0.00    -0.276 N 
HETATM   29  C   UNL     1     -23.384  -3.672 -12.311  1.00  0.00     0.328 C 
HETATM   30  H   UNL     1     -21.719  -3.694 -13.577  1.00  0.00     0.173 HD
HETATM   31  O   UNL     1     -24.298  -3.499 -13.099  1.00  0.00    -0.247 OA
HETATM   32  N   UNL     1     -23.519  -3.812 -10.942  1.00  0.00    -0.282 N 
BRANCH  32  33
HETATM   33  C   UNL     1     -24.716  -3.391 -10.270  1.00  0.00     0.297 C 
BRANCH  33  34
HETATM   34  O   UNL     1     -24.433  -3.300  -8.891  1.00  0.00    -0.382 OA
HETATM   35  H   UNL     1     -23.677  -3.901  -8.746  1.00  0.00     0.211 HD
ENDBRANCH  33  34
ENDBRANCH  32  33
ENDBRANCH  22  25
ENDBRANCH   1  19
TORSDOF 8
ENDMDL
MODEL 8
REMARK VINA RESULT:      -7.7      1.729      1.794
REMARK  8 active torsions:
REMARK  status: ('A' for Active; 'I' for Inactive)
REMARK    1  A    between atoms: C_1  and  N_2 
REMARK    2  A    between atoms: C_1  and  N_15 
REMARK       I    between atoms: N_2  and  C_3 
REMARK       I    between atoms: C_3  and  N_5 
REMARK    3  A    between atoms: N_5  and  C_6 
REMARK    4  A    between atoms: N_12  and  C_13 
REMARK    5  A    between atoms: C_13  and  O_14 
REMARK       I    between atoms: N_15  and  C_16 
REMARK       I    between atoms: C_16  and  N_18 
REMARK    6  A    between atoms: N_18  and  C_19 
REMARK    7  A    between atoms: N_25  and  C_26 
REMARK    8  A    between atoms: C_26  and  O_27 
ROOT
HETATM    1  C   UNL     1     -20.574  -6.146  -6.251  1.00  0.00     0.252 C 
ENDROOT
BRANCH   1   2
HETATM    2  N   UNL     1     -21.419  -6.927  -5.401  1.00  0.00    -0.327 N 
HETATM    3  C   UNL     1     -20.849  -7.835  -4.557  1.00  0.00     0.319 C 
HETATM    4  O   UNL     1     -19.663  -8.138  -4.584  1.00  0.00    -0.247 OA
HETATM    5  N   UNL     1     -21.754  -8.433  -3.732  1.00  0.00    -0.313 N 
HETATM    6  H   UNL     1     -22.704  -8.096  -3.695  1.00  0.00     0.166 HD
HETATM    7  H   UNL     1     -22.263  -6.471  -5.096  1.00  0.00     0.165 HD
BRANCH   5   8
HETATM    8  C   UNL     1     -21.367  -9.525  -2.889  1.00  0.00     0.288 C 
HETATM    9  C   UNL     1     -21.277  -9.153  -1.397  1.00  0.00     0.268 C 
HETATM   10  O   UNL     1     -20.702  -8.185  -0.916  1.00  0.00    -0.269 OA
HETATM   11  N   UNL     1     -21.929 -10.106  -0.681  1.00  0.00    -0.276 N 
HETATM   12  C   UNL     1     -22.530 -10.989  -1.511  1.00  0.00     0.328 C 
HETATM   13  H   UNL     1     -21.979 -10.146   0.323  1.00  0.00     0.173 HD
HETATM   14  O   UNL     1     -23.126 -11.995  -1.162  1.00  0.00    -0.247 OA
HETATM   15  N   UNL     1     -22.357 -10.570  -2.819  1.00  0.00    -0.282 N 
BRANCH  15  16
HETATM   16  C   UNL     1     -22.577 -11.452  -3.928  1.00  0.00     0.297 C 
BRANCH  16  17
HETATM   17  O   UNL     1     -21.519 -11.274  -4.848  1.00  0.00    -0.382 OA
HETATM   18  H   UNL     1     -21.536 -10.324  -5.073  1.00  0.00     0.211 HD
ENDBRANCH  16  17
ENDBRANCH  15  16
ENDBRANCH   5   8
ENDBRANCH   1   2
BRANCH   1  19
HETATM   19  N   UNL     1     -21.155  -5.996  -7.558  1.00  0.00    -0.327 N 
HETATM   20  C   UNL     1     -21.376  -4.743  -8.056  1.00  0.00     0.319 C 
HETATM   21  O   UNL     1     -21.236  -3.714  -7.410  1.00  0.00    -0.247 OA
HETATM   22  N   UNL     1     -21.827  -4.766  -9.342  1.00  0.00    -0.313 N 
HETATM   23  H   UNL     1     -22.256  -5.619  -9.665  1.00  0.00     0.166 HD
HETATM   24  H   UNL     1     -20.854  -6.675  -8.241  1.00  0.00     0.165 HD
BRANCH  22  25
HETATM   25  C   UNL     1     -22.250  -3.545  -9.966  1.00  0.00     0.288 C 
HETATM   26  C   UNL     1     -21.447  -3.222 -11.241  1.00  0.00     0.268 C 
HETATM   27  O   UNL     1     -20.233  -3.146 -11.347  1.00  0.00    -0.269 OA
HETATM   28  N   UNL     1     -22.327  -3.016 -12.255  1.00  0.00    -0.276 N 
HETATM   29  C   UNL     1     -23.600  -3.173 -11.819  1.00  0.00     0.328 C 
HETATM   30  H   UNL     1     -22.080  -2.718 -13.183  1.00  0.00     0.173 HD
HETATM   31  O   UNL     1     -24.602  -2.926 -12.467  1.00  0.00    -0.247 OA
HETATM   32  N   UNL     1     -23.579  -3.638 -10.517  1.00  0.00    -0.282 N 
BRANCH  32  33
HETATM   33  C   UNL     1     -24.732  -3.519  -9.671  1.00  0.00     0.297 C 
BRANCH  33  34
HETATM   34  O   UNL     1     -24.327  -3.774  -8.343  1.00  0.00    -0.382 OA
HETATM   35  H   UNL     1     -23.570  -4.386  -8.421  1.00  0.00     0.211 HD
ENDBRANCH  33  34
ENDBRANCH  32  33
ENDBRANCH  22  25
ENDBRANCH   1  19
TORSDOF 8
ENDMDL
MODEL 9
REMARK VINA RESULT:      -7.7      2.797      9.989
REMARK  8 active torsions:
REMARK  status: ('A' for Active; 'I' for Inactive)
REMARK    1  A    between atoms: C_1  and  N_2 
REMARK    2  A    between atoms: C_1  and  N_15 
REMARK       I    between atoms: N_2  and  C_3 
REMARK       I    between atoms: C_3  and  N_5 
REMARK    3  A    between atoms: N_5  and  C_6 
REMARK    4  A    between atoms: N_12  and  C_13 
REMARK    5  A    between atoms: C_13  and  O_14 
REMARK       I    between atoms: N_15  and  C_16 
REMARK       I    between atoms: C_16  and  N_18 
REMARK    6  A    between atoms: N_18  and  C_19 
REMARK    7  A    between atoms: N_25  and  C_26 
REMARK    8  A    between atoms: C_26  and  O_27 
ROOT
HETATM    1  C   UNL     1     -20.968  -5.765  -6.205  1.00  0.00     0.252 C 
ENDROOT
BRANCH   1   2
HETATM    2  N   UNL     1     -21.421  -5.719  -7.562  1.00  0.00    -0.327 N 
HETATM    3  C   UNL     1     -21.629  -4.505  -8.149  1.00  0.00     0.319 C 
HETATM    4  O   UNL     1     -21.599  -3.442  -7.541  1.00  0.00    -0.247 OA
HETATM    5  N   UNL     1     -21.955  -4.602  -9.468  1.00  0.00    -0.313 N 
HETATM    6  H   UNL     1     -21.892  -5.491  -9.940  1.00  0.00     0.166 HD
HETATM    7  H   UNL     1     -21.102  -6.472  -8.149  1.00  0.00     0.165 HD
BRANCH   5   8
HETATM    8  C   UNL     1     -22.363  -3.445 -10.209  1.00  0.00     0.288 C 
HETATM    9  C   UNL     1     -21.478  -3.152 -11.435  1.00  0.00     0.268 C 
HETATM   10  O   UNL     1     -20.255  -3.109 -11.463  1.00  0.00    -0.269 OA
HETATM   11  N   UNL     1     -22.291  -2.916 -12.499  1.00  0.00    -0.276 N 
HETATM   12  C   UNL     1     -23.583  -3.128 -12.160  1.00  0.00     0.328 C 
HETATM   13  H   UNL     1     -21.982  -2.642 -13.416  1.00  0.00     0.173 HD
HETATM   14  O   UNL     1     -24.546  -2.925 -12.881  1.00  0.00    -0.247 OA
HETATM   15  N   UNL     1     -23.638  -3.607 -10.862  1.00  0.00    -0.282 N 
BRANCH  15  16
HETATM   16  C   UNL     1     -24.858  -3.604 -10.108  1.00  0.00     0.297 C 
BRANCH  16  17
HETATM   17  O   UNL     1     -24.547  -3.281  -8.769  1.00  0.00    -0.382 OA
HETATM   18  H   UNL     1     -23.868  -2.582  -8.828  1.00  0.00     0.211 HD
ENDBRANCH  16  17
ENDBRANCH  15  16
ENDBRANCH   5   8
ENDBRANCH   1   2
BRANCH   1  19
HETATM   19  N   UNL     1     -19.960  -6.776  -6.032  1.00  0.00    -0.327 N 
HETATM   20  C   UNL     1     -20.307  -7.986  -5.501  1.00  0.00     0.319 C 
HETATM   21  O   UNL     1     -21.407  -8.239  -5.030  1.00  0.00    -0.247 OA
HETATM   22  N   UNL     1     -19.270  -8.870  -5.502  1.00  0.00    -0.313 N 
HETATM   23  H   UNL     1     -18.338  -8.489  -5.556  1.00  0.00     0.166 HD
HETATM   24  H   UNL     1     -19.266  -6.818  -6.762  1.00  0.00     0.165 HD
BRANCH  22  25
HETATM   25  C   UNL     1     -19.420 -10.138  -4.845  1.00  0.00     0.288 C 
HETATM   26  C   UNL     1     -19.669 -11.292  -5.836  1.00  0.00     0.268 C 
HETATM   27  O   UNL     1     -20.538 -11.353  -6.692  1.00  0.00    -0.269 OA
HETATM   28  N   UNL     1     -18.754 -12.265  -5.592  1.00  0.00    -0.276 N 
HETATM   29  C   UNL     1     -17.928 -11.899  -4.582  1.00  0.00     0.328 C 
HETATM   30  H   UNL     1     -18.730 -13.163  -6.043  1.00  0.00     0.173 HD
HETATM   31  O   UNL     1     -17.095 -12.617  -4.057  1.00  0.00    -0.247 OA
HETATM   32  N   UNL     1     -18.197 -10.589  -4.230  1.00  0.00    -0.282 N 
BRANCH  32  33
HETATM   33  C   UNL     1     -17.779 -10.064  -2.961  1.00  0.00     0.297 C 
BRANCH  33  34
HETATM   34  O   UNL     1     -18.688  -9.051  -2.588  1.00  0.00    -0.382 OA
HETATM   35  H   UNL     1     -18.145  -8.245  -2.494  1.00  0.00     0.211 HD
ENDBRANCH  33  34
ENDBRANCH  32  33
ENDBRANCH  22  25
ENDBRANCH   1  19
TORSDOF 8
ENDMDL
