MODEL 1
REMARK VINA RESULT:      -6.7      0.000      0.000
REMARK  19 active torsions:
REMARK  status: ('A' for Active; 'I' for Inactive)
REMARK    1  A    between atoms: C_2  and  C_3 
REMARK    2  A    between atoms: C_3  and  C_4 
REMARK    3  A    between atoms: C_4  and  C_5 
REMARK    4  A    between atoms: C_5  and  C_6 
REMARK    5  A    between atoms: C_5  and  C_8 
REMARK    6  A    between atoms: C_8  and  O_9 
REMARK    7  A    between atoms: O_9  and  C_10 
REMARK    8  A    between atoms: C_10  and  C_12 
REMARK    9  A    between atoms: C_12  and  C_13 
REMARK   10  A    between atoms: C_13  and  C_14 
REMARK   11  A    between atoms: C_14  and  C_15 
REMARK   12  A    between atoms: C_15  and  C_16 
REMARK   13  A    between atoms: C_16  and  O_18 
REMARK   14  A    between atoms: O_18  and  C_19 
REMARK   15  A    between atoms: C_19  and  C_20 
REMARK   16  A    between atoms: C_20  and  C_21 
REMARK   17  A    between atoms: C_20  and  C_23 
REMARK   18  A    between atoms: C_23  and  C_24 
REMARK   19  A    between atoms: C_24  and  C_25 
ROOT
HETATM    1  C   UNL     1     -21.904  -6.482  -3.231  1.00  0.00     0.010 C 
ENDROOT
BRANCH   1   2
HETATM    2  C   UNL     1     -20.989  -6.846  -4.402  1.00  0.00     0.111 C 
BRANCH   2   3
HETATM    3  C   UNL     1     -20.848  -5.692  -5.369  1.00  0.00     0.258 C 
HETATM    4  O   UNL     1     -20.142  -4.710  -5.189  1.00  0.00    -0.265 OA
BRANCH   3   5
HETATM    5  O   UNL     1     -21.694  -5.867  -6.424  1.00  0.00    -0.321 OA
BRANCH   5   6
HETATM    6  C   UNL     1     -22.109  -4.661  -7.089  1.00  0.00     0.183 C 
BRANCH   6   7
HETATM    7  C   UNL     1     -21.968  -4.701  -8.622  1.00  0.00     0.010 C 
BRANCH   7   8
HETATM    8  C   UNL     1     -23.071  -3.867  -9.314  1.00  0.00     0.007 C 
BRANCH   8   9
HETATM    9  C   UNL     1     -23.946  -4.709 -10.249  1.00  0.00     0.000 C 
BRANCH   9  10
HETATM   10  C   UNL     1     -23.613  -4.493 -11.724  1.00  0.00    -0.005 C 
HETATM   11  C   UNL     1     -23.378  -3.015 -12.006  1.00  0.00     0.005 C 
ENDBRANCH   9  10
ENDBRANCH   8   9
ENDBRANCH   7   8
BRANCH   7  12
HETATM   12  C   UNL     1     -20.529  -4.314  -9.034  1.00  0.00     0.002 C 
HETATM   13  C   UNL     1     -20.197  -4.501 -10.510  1.00  0.00     0.005 C 
ENDBRANCH   7  12
ENDBRANCH   6   7
ENDBRANCH   5   6
ENDBRANCH   3   5
ENDBRANCH   2   3
ENDBRANCH   1   2
BRANCH   1  14
HETATM   14  C   UNL     1     -21.490  -7.192  -1.940  1.00  0.00     0.010 C 
BRANCH  14  15
HETATM   15  C   UNL     1     -22.500  -6.935  -0.818  1.00  0.00     0.111 C 
BRANCH  15  16
HETATM   16  C   UNL     1     -22.404  -7.960   0.279  1.00  0.00     0.258 C 
HETATM   17  O   UNL     1     -21.508  -8.047   1.109  1.00  0.00    -0.265 OA
BRANCH  16  18
HETATM   18  O   UNL     1     -23.390  -8.896   0.108  1.00  0.00    -0.321 OA
BRANCH  18  19
HETATM   19  C   UNL     1     -22.882 -10.235   0.076  1.00  0.00     0.183 C 
BRANCH  19  20
HETATM   20  C   UNL     1     -23.622 -11.159  -0.904  1.00  0.00     0.010 C 
BRANCH  20  21
HETATM   21  C   UNL     1     -23.002 -11.151  -2.322  1.00  0.00     0.002 C 
HETATM   22  C   UNL     1     -22.713 -12.524  -2.916  1.00  0.00     0.005 C 
ENDBRANCH  20  21
BRANCH  20  23
HETATM   23  C   UNL     1     -23.702 -12.598  -0.332  1.00  0.00     0.007 C 
BRANCH  23  24
HETATM   24  C   UNL     1     -22.741 -12.837   0.840  1.00  0.00     0.000 C 
BRANCH  24  25
HETATM   25  C   UNL     1     -23.370 -13.681   1.947  1.00  0.00    -0.005 C 
HETATM   26  C   UNL     1     -22.305 -14.496   2.669  1.00  0.00     0.005 C 
ENDBRANCH  24  25
ENDBRANCH  23  24
ENDBRANCH  20  23
ENDBRANCH  19  20
ENDBRANCH  18  19
ENDBRANCH  16  18
ENDBRANCH  15  16
ENDBRANCH  14  15
ENDBRANCH   1  14
TORSDOF 19
ENDMDL
MODEL 2
REMARK VINA RESULT:      -6.7      2.503      3.779
REMARK  19 active torsions:
REMARK  status: ('A' for Active; 'I' for Inactive)
REMARK    1  A    between atoms: C_2  and  C_3 
REMARK    2  A    between atoms: C_3  and  C_4 
REMARK    3  A    between atoms: C_4  and  C_5 
REMARK    4  A    between atoms: C_5  and  C_6 
REMARK    5  A    between atoms: C_5  and  C_8 
REMARK    6  A    between atoms: C_8  and  O_9 
REMARK    7  A    between atoms: O_9  and  C_10 
REMARK    8  A    between atoms: C_10  and  C_12 
REMARK    9  A    between atoms: C_12  and  C_13 
REMARK   10  A    between atoms: C_13  and  C_14 
REMARK   11  A    between atoms: C_14  and  C_15 
REMARK   12  A    between atoms: C_15  and  C_16 
REMARK   13  A    between atoms: C_16  and  O_18 
REMARK   14  A    between atoms: O_18  and  C_19 
REMARK   15  A    between atoms: C_19  and  C_20 
REMARK   16  A    between atoms: C_20  and  C_21 
REMARK   17  A    between atoms: C_20  and  C_23 
REMARK   18  A    between atoms: C_23  and  C_24 
REMARK   19  A    between atoms: C_24  and  C_25 
ROOT
HETATM    1  C   UNL     1     -22.088  -6.267  -4.493  1.00  0.00     0.010 C 
ENDROOT
BRANCH   1   2
HETATM    2  C   UNL     1     -21.405  -7.084  -5.592  1.00  0.00     0.111 C 
BRANCH   2   3
HETATM    3  C   UNL     1     -20.802  -6.188  -6.650  1.00  0.00     0.258 C 
HETATM    4  O   UNL     1     -19.835  -6.474  -7.342  1.00  0.00    -0.265 OA
BRANCH   3   5
HETATM    5  O   UNL     1     -21.439  -4.982  -6.653  1.00  0.00    -0.321 OA
BRANCH   5   6
HETATM    6  C   UNL     1     -20.917  -4.011  -7.576  1.00  0.00     0.183 C 
BRANCH   6   7
HETATM    7  C   UNL     1     -21.832  -3.727  -8.781  1.00  0.00     0.010 C 
BRANCH   7   8
HETATM    8  C   UNL     1     -21.264  -4.342 -10.081  1.00  0.00     0.007 C 
BRANCH   8   9
HETATM    9  C   UNL     1     -20.790  -3.278 -11.078  1.00  0.00     0.000 C 
BRANCH   9  10
HETATM   10  C   UNL     1     -21.936  -2.680 -11.893  1.00  0.00    -0.005 C 
HETATM   11  C   UNL     1     -22.822  -3.782 -12.455  1.00  0.00     0.005 C 
ENDBRANCH   9  10
ENDBRANCH   8   9
ENDBRANCH   7   8
BRANCH   7  12
HETATM   12  C   UNL     1     -23.283  -4.155  -8.460  1.00  0.00     0.002 C 
HETATM   13  C   UNL     1     -24.357  -3.559  -9.361  1.00  0.00     0.005 C 
ENDBRANCH   7  12
ENDBRANCH   6   7
ENDBRANCH   5   6
ENDBRANCH   3   5
ENDBRANCH   2   3
ENDBRANCH   1   2
BRANCH   1  14
HETATM   14  C   UNL     1     -21.313  -6.319  -3.175  1.00  0.00     0.010 C 
BRANCH  14  15
HETATM   15  C   UNL     1     -22.225  -6.023  -1.983  1.00  0.00     0.111 C 
BRANCH  15  16
HETATM   16  C   UNL     1     -22.299  -7.178  -1.022  1.00  0.00     0.258 C 
HETATM   17  O   UNL     1     -23.107  -7.308  -0.111  1.00  0.00    -0.265 OA
BRANCH  16  18
HETATM   18  O   UNL     1     -21.214  -7.993  -1.213  1.00  0.00    -0.321 OA
BRANCH  18  19
HETATM   19  C   UNL     1     -21.574  -9.375  -1.326  1.00  0.00     0.183 C 
BRANCH  19  20
HETATM   20  C   UNL     1     -20.911 -10.098  -2.510  1.00  0.00     0.010 C 
BRANCH  20  21
HETATM   21  C   UNL     1     -21.878 -10.318  -3.696  1.00  0.00     0.002 C 
HETATM   22  C   UNL     1     -21.223 -10.748  -5.002  1.00  0.00     0.005 C 
ENDBRANCH  20  21
BRANCH  20  23
HETATM   23  C   UNL     1     -19.634  -9.340  -2.956  1.00  0.00     0.007 C 
BRANCH  23  24
HETATM   24  C   UNL     1     -18.343 -10.133  -2.714  1.00  0.00     0.000 C 
BRANCH  24  25
HETATM   25  C   UNL     1     -17.223  -9.733  -3.672  1.00  0.00    -0.005 C 
HETATM   26  C   UNL     1     -15.922  -9.514  -2.912  1.00  0.00     0.005 C 
ENDBRANCH  24  25
ENDBRANCH  23  24
ENDBRANCH  20  23
ENDBRANCH  19  20
ENDBRANCH  18  19
ENDBRANCH  16  18
ENDBRANCH  15  16
ENDBRANCH  14  15
ENDBRANCH   1  14
TORSDOF 19
ENDMDL
MODEL 3
REMARK VINA RESULT:      -6.7      1.417      2.215
REMARK  19 active torsions:
REMARK  status: ('A' for Active; 'I' for Inactive)
REMARK    1  A    between atoms: C_2  and  C_3 
REMARK    2  A    between atoms: C_3  and  C_4 
REMARK    3  A    between atoms: C_4  and  C_5 
REMARK    4  A    between atoms: C_5  and  C_6 
REMARK    5  A    between atoms: C_5  and  C_8 
REMARK    6  A    between atoms: C_8  and  O_9 
REMARK    7  A    between atoms: O_9  and  C_10 
REMARK    8  A    between atoms: C_10  and  C_12 
REMARK    9  A    between atoms: C_12  and  C_13 
REMARK   10  A    between atoms: C_13  and  C_14 
REMARK   11  A    between atoms: C_14  and  C_15 
REMARK   12  A    between atoms: C_15  and  C_16 
REMARK   13  A    between atoms: C_16  and  O_18 
REMARK   14  A    between atoms: O_18  and  C_19 
REMARK   15  A    between atoms: C_19  and  C_20 
REMARK   16  A    between atoms: C_20  and  C_21 
REMARK   17  A    between atoms: C_20  and  C_23 
REMARK   18  A    between atoms: C_23  and  C_24 
REMARK   19  A    between atoms: C_24  and  C_25 
ROOT
HETATM    1  C   UNL     1     -21.574  -6.321  -3.859  1.00  0.00     0.010 C 
ENDROOT
BRANCH   1   2
HETATM    2  C   UNL     1     -21.782  -7.467  -4.851  1.00  0.00     0.111 C 
BRANCH   2   3
HETATM    3  C   UNL     1     -20.651  -7.540  -5.852  1.00  0.00     0.258 C 
HETATM    4  O   UNL     1     -19.591  -8.123  -5.668  1.00  0.00    -0.265 OA
BRANCH   3   5
HETATM    5  O   UNL     1     -20.952  -6.786  -6.947  1.00  0.00    -0.321 OA
BRANCH   5   6
HETATM    6  C   UNL     1     -20.091  -5.656  -7.173  1.00  0.00     0.183 C 
BRANCH   6   7
HETATM    7  C   UNL     1     -20.835  -4.322  -7.371  1.00  0.00     0.010 C 
BRANCH   7   8
HETATM    8  C   UNL     1     -20.466  -3.663  -8.721  1.00  0.00     0.007 C 
BRANCH   8   9
HETATM    9  C   UNL     1     -20.163  -4.693  -9.815  1.00  0.00     0.000 C 
BRANCH   9  10
HETATM   10  C   UNL     1     -20.277  -4.110 -11.223  1.00  0.00    -0.005 C 
HETATM   11  C   UNL     1     -21.674  -3.554 -11.459  1.00  0.00     0.005 C 
ENDBRANCH   9  10
ENDBRANCH   8   9
ENDBRANCH   7   8
BRANCH   7  12
HETATM   12  C   UNL     1     -22.353  -4.523  -7.159  1.00  0.00     0.002 C 
HETATM   13  C   UNL     1     -23.242  -4.063  -8.308  1.00  0.00     0.005 C 
ENDBRANCH   7  12
ENDBRANCH   6   7
ENDBRANCH   5   6
ENDBRANCH   3   5
ENDBRANCH   2   3
ENDBRANCH   1   2
BRANCH   1  14
HETATM   14  C   UNL     1     -21.238  -6.831  -2.456  1.00  0.00     0.010 C 
BRANCH  14  15
HETATM   15  C   UNL     1     -22.316  -6.431  -1.447  1.00  0.00     0.111 C 
BRANCH  15  16
HETATM   16  C   UNL     1     -22.445  -7.429  -0.327  1.00  0.00     0.258 C 
HETATM   17  O   UNL     1     -23.404  -7.550   0.424  1.00  0.00    -0.265 OA
BRANCH  16  18
HETATM   18  O   UNL     1     -21.249  -8.078  -0.163  1.00  0.00    -0.321 OA
BRANCH  18  19
HETATM   19  C   UNL     1     -21.350  -9.209   0.709  1.00  0.00     0.183 C 
BRANCH  19  20
HETATM   20  C   UNL     1     -21.687 -10.524  -0.012  1.00  0.00     0.010 C 
BRANCH  20  21
HETATM   21  C   UNL     1     -21.204 -10.544  -1.481  1.00  0.00     0.002 C 
HETATM   22  C   UNL     1     -22.308 -10.552  -2.531  1.00  0.00     0.005 C 
ENDBRANCH  20  21
BRANCH  20  23
HETATM   23  C   UNL     1     -21.126 -11.732   0.782  1.00  0.00     0.007 C 
BRANCH  23  24
HETATM   24  C   UNL     1     -21.743 -13.072   0.362  1.00  0.00     0.000 C 
BRANCH  24  25
HETATM   25  C   UNL     1     -23.222 -13.174   0.730  1.00  0.00    -0.005 C 
HETATM   26  C   UNL     1     -23.389 -13.796   2.110  1.00  0.00     0.005 C 
ENDBRANCH  24  25
ENDBRANCH  23  24
ENDBRANCH  20  23
ENDBRANCH  19  20
ENDBRANCH  18  19
ENDBRANCH  16  18
ENDBRANCH  15  16
ENDBRANCH  14  15
ENDBRANCH   1  14
TORSDOF 19
ENDMDL
MODEL 4
REMARK VINA RESULT:      -6.6      1.570      2.486
REMARK  19 active torsions:
REMARK  status: ('A' for Active; 'I' for Inactive)
REMARK    1  A    between atoms: C_2  and  C_3 
REMARK    2  A    between atoms: C_3  and  C_4 
REMARK    3  A    between atoms: C_4  and  C_5 
REMARK    4  A    between atoms: C_5  and  C_6 
REMARK    5  A    between atoms: C_5  and  C_8 
REMARK    6  A    between atoms: C_8  and  O_9 
REMARK    7  A    between atoms: O_9  and  C_10 
REMARK    8  A    between atoms: C_10  and  C_12 
REMARK    9  A    between atoms: C_12  and  C_13 
REMARK   10  A    between atoms: C_13  and  C_14 
REMARK   11  A    between atoms: C_14  and  C_15 
REMARK   12  A    between atoms: C_15  and  C_16 
REMARK   13  A    between atoms: C_16  and  O_18 
REMARK   14  A    between atoms: O_18  and  C_19 
REMARK   15  A    between atoms: C_19  and  C_20 
REMARK   16  A    between atoms: C_20  and  C_21 
REMARK   17  A    between atoms: C_20  and  C_23 
REMARK   18  A    between atoms: C_23  and  C_24 
REMARK   19  A    between atoms: C_24  and  C_25 
ROOT
HETATM    1  C   UNL     1     -21.857  -6.538  -4.376  1.00  0.00     0.010 C 
ENDROOT
BRANCH   1   2
HETATM    2  C   UNL     1     -20.792  -6.798  -5.444  1.00  0.00     0.111 C 
BRANCH   2   3
HETATM    3  C   UNL     1     -20.530  -5.561  -6.272  1.00  0.00     0.258 C 
HETATM    4  O   UNL     1     -20.131  -4.493  -5.829  1.00  0.00    -0.265 OA
BRANCH   3   5
HETATM    5  O   UNL     1     -20.892  -5.786  -7.568  1.00  0.00    -0.321 OA
BRANCH   5   6
HETATM    6  C   UNL     1     -20.258  -4.939  -8.542  1.00  0.00     0.183 C 
BRANCH   6   7
HETATM    7  C   UNL     1     -21.237  -4.120  -9.403  1.00  0.00     0.010 C 
BRANCH   7   8
HETATM    8  C   UNL     1     -20.638  -3.801 -10.793  1.00  0.00     0.007 C 
BRANCH   8   9
HETATM    9  C   UNL     1     -21.674  -3.904 -11.918  1.00  0.00     0.000 C 
BRANCH   9  10
HETATM   10  C   UNL     1     -22.416  -2.591 -12.161  1.00  0.00    -0.005 C 
HETATM   11  C   UNL     1     -23.882  -2.857 -12.469  1.00  0.00     0.005 C 
ENDBRANCH   9  10
ENDBRANCH   8   9
ENDBRANCH   7   8
BRANCH   7  12
HETATM   12  C   UNL     1     -22.614  -4.821  -9.454  1.00  0.00     0.002 C 
HETATM   13  C   UNL     1     -23.775  -4.031  -8.863  1.00  0.00     0.005 C 
ENDBRANCH   7  12
ENDBRANCH   6   7
ENDBRANCH   5   6
ENDBRANCH   3   5
ENDBRANCH   2   3
ENDBRANCH   1   2
BRANCH   1  14
HETATM   14  C   UNL     1     -21.238  -6.150  -3.032  1.00  0.00     0.010 C 
BRANCH  14  15
HETATM   15  C   UNL     1     -22.269  -6.226  -1.904  1.00  0.00     0.111 C 
BRANCH  15  16
HETATM   16  C   UNL     1     -22.033  -7.402  -0.996  1.00  0.00     0.258 C 
HETATM   17  O   UNL     1     -22.742  -7.742  -0.057  1.00  0.00    -0.265 OA
BRANCH  16  18
HETATM   18  O   UNL     1     -20.805  -7.944  -1.271  1.00  0.00    -0.321 OA
BRANCH  18  19
HETATM   19  C   UNL     1     -20.862  -9.357  -1.495  1.00  0.00     0.183 C 
BRANCH  19  20
HETATM   20  C   UNL     1     -21.545  -9.752  -2.815  1.00  0.00     0.010 C 
BRANCH  20  21
HETATM   21  C   UNL     1     -20.537 -10.191  -3.903  1.00  0.00     0.002 C 
HETATM   22  C   UNL     1     -21.155 -10.751  -5.178  1.00  0.00     0.005 C 
ENDBRANCH  20  21
BRANCH  20  23
HETATM   23  C   UNL     1     -22.614 -10.846  -2.562  1.00  0.00     0.007 C 
BRANCH  23  24
HETATM   24  C   UNL     1     -22.331 -11.692  -1.314  1.00  0.00     0.000 C 
BRANCH  24  25
HETATM   25  C   UNL     1     -23.609 -12.095  -0.580  1.00  0.00    -0.005 C 
HETATM   26  C   UNL     1     -24.316 -10.867  -0.023  1.00  0.00     0.005 C 
ENDBRANCH  24  25
ENDBRANCH  23  24
ENDBRANCH  20  23
ENDBRANCH  19  20
ENDBRANCH  18  19
ENDBRANCH  16  18
ENDBRANCH  15  16
ENDBRANCH  14  15
ENDBRANCH   1  14
TORSDOF 19
ENDMDL
MODEL 5
REMARK VINA RESULT:      -6.6      2.352      4.161
REMARK  19 active torsions:
REMARK  status: ('A' for Active; 'I' for Inactive)
REMARK    1  A    between atoms: C_2  and  C_3 
REMARK    2  A    between atoms: C_3  and  C_4 
REMARK    3  A    between atoms: C_4  and  C_5 
REMARK    4  A    between atoms: C_5  and  C_6 
REMARK    5  A    between atoms: C_5  and  C_8 
REMARK    6  A    between atoms: C_8  and  O_9 
REMARK    7  A    between atoms: O_9  and  C_10 
REMARK    8  A    between atoms: C_10  and  C_12 
REMARK    9  A    between atoms: C_12  and  C_13 
REMARK   10  A    between atoms: C_13  and  C_14 
REMARK   11  A    between atoms: C_14  and  C_15 
REMARK   12  A    between atoms: C_15  and  C_16 
REMARK   13  A    between atoms: C_16  and  O_18 
REMARK   14  A    between atoms: O_18  and  C_19 
REMARK   15  A    between atoms: C_19  and  C_20 
REMARK   16  A    between atoms: C_20  and  C_21 
REMARK   17  A    between atoms: C_20  and  C_23 
REMARK   18  A    between atoms: C_23  and  C_24 
REMARK   19  A    between atoms: C_24  and  C_25 
ROOT
HETATM    1  C   UNL     1     -20.199  -6.610  -6.073  1.00  0.00     0.010 C 
ENDROOT
BRANCH   1   2
HETATM    2  C   UNL     1     -20.535  -5.157  -5.730  1.00  0.00     0.111 C 
BRANCH   2   3
HETATM    3  C   UNL     1     -21.675  -4.640  -6.578  1.00  0.00     0.258 C 
HETATM    4  O   UNL     1     -22.846  -4.967  -6.450  1.00  0.00    -0.265 OA
BRANCH   3   5
HETATM    5  O   UNL     1     -21.190  -3.829  -7.561  1.00  0.00    -0.321 OA
BRANCH   5   6
HETATM    6  C   UNL     1     -21.157  -4.407  -8.878  1.00  0.00     0.183 C 
BRANCH   6   7
HETATM    7  C   UNL     1     -21.974  -3.635  -9.929  1.00  0.00     0.010 C 
BRANCH   7   8
HETATM    8  C   UNL     1     -21.701  -4.162 -11.358  1.00  0.00     0.007 C 
BRANCH   8   9
HETATM    9  C   UNL     1     -22.055  -3.137 -12.441  1.00  0.00     0.000 C 
BRANCH   9  10
HETATM   10  C   UNL     1     -23.282  -3.541 -13.257  1.00  0.00    -0.005 C 
HETATM   11  C   UNL     1     -24.372  -2.485 -13.139  1.00  0.00     0.005 C 
ENDBRANCH   9  10
ENDBRANCH   8   9
ENDBRANCH   7   8
BRANCH   7  12
HETATM   12  C   UNL     1     -23.469  -3.620  -9.536  1.00  0.00     0.002 C 
HETATM   13  C   UNL     1     -24.277  -4.832  -9.984  1.00  0.00     0.005 C 
ENDBRANCH   7  12
ENDBRANCH   6   7
ENDBRANCH   5   6
ENDBRANCH   3   5
ENDBRANCH   2   3
ENDBRANCH   1   2
BRANCH   1  14
HETATM   14  C   UNL     1     -20.334  -7.531  -4.859  1.00  0.00     0.010 C 
BRANCH  14  15
HETATM   15  C   UNL     1     -21.445  -8.562  -5.067  1.00  0.00     0.111 C 
BRANCH  15  16
HETATM   16  C   UNL     1     -20.919  -9.972  -5.071  1.00  0.00     0.258 C 
HETATM   17  O   UNL     1     -20.005 -10.399  -5.765  1.00  0.00    -0.265 OA
BRANCH  16  18
HETATM   18  O   UNL     1     -21.731 -10.758  -4.296  1.00  0.00    -0.321 OA
BRANCH  18  19
HETATM   19  C   UNL     1     -21.297 -10.825  -2.932  1.00  0.00     0.183 C 
BRANCH  19  20
HETATM   20  C   UNL     1     -22.246 -10.133  -1.941  1.00  0.00     0.010 C 
BRANCH  20  21
HETATM   21  C   UNL     1     -23.419 -11.040  -1.500  1.00  0.00     0.002 C 
HETATM   22  C   UNL     1     -23.956 -10.777  -0.099  1.00  0.00     0.005 C 
ENDBRANCH  20  21
BRANCH  20  23
HETATM   23  C   UNL     1     -21.453  -9.601  -0.719  1.00  0.00     0.007 C 
BRANCH  23  24
HETATM   24  C   UNL     1     -21.055  -8.125  -0.851  1.00  0.00     0.000 C 
BRANCH  24  25
HETATM   25  C   UNL     1     -22.262  -7.189  -0.808  1.00  0.00    -0.005 C 
HETATM   26  C   UNL     1     -22.203  -6.188  -1.953  1.00  0.00     0.005 C 
ENDBRANCH  24  25
ENDBRANCH  23  24
ENDBRANCH  20  23
ENDBRANCH  19  20
ENDBRANCH  18  19
ENDBRANCH  16  18
ENDBRANCH  15  16
ENDBRANCH  14  15
ENDBRANCH   1  14
TORSDOF 19
ENDMDL
MODEL 6
REMARK VINA RESULT:      -6.6      1.292      3.018
REMARK  19 active torsions:
REMARK  status: ('A' for Active; 'I' for Inactive)
REMARK    1  A    between atoms: C_2  and  C_3 
REMARK    2  A    between atoms: C_3  and  C_4 
REMARK    3  A    between atoms: C_4  and  C_5 
REMARK    4  A    between atoms: C_5  and  C_6 
REMARK    5  A    between atoms: C_5  and  C_8 
REMARK    6  A    between atoms: C_8  and  O_9 
REMARK    7  A    between atoms: O_9  and  C_10 
REMARK    8  A    between atoms: C_10  and  C_12 
REMARK    9  A    between atoms: C_12  and  C_13 
REMARK   10  A    between atoms: C_13  and  C_14 
REMARK   11  A    between atoms: C_14  and  C_15 
REMARK   12  A    between atoms: C_15  and  C_16 
REMARK   13  A    between atoms: C_16  and  O_18 
REMARK   14  A    between atoms: O_18  and  C_19 
REMARK   15  A    between atoms: C_19  and  C_20 
REMARK   16  A    between atoms: C_20  and  C_21 
REMARK   17  A    between atoms: C_20  and  C_23 
REMARK   18  A    between atoms: C_23  and  C_24 
REMARK   19  A    between atoms: C_24  and  C_25 
ROOT
HETATM    1  C   UNL     1     -21.794  -7.091  -4.864  1.00  0.00     0.010 C 
ENDROOT
BRANCH   1   2
HETATM    2  C   UNL     1     -20.479  -7.213  -5.637  1.00  0.00     0.111 C 
BRANCH   2   3
HETATM    3  C   UNL     1     -20.112  -5.908  -6.308  1.00  0.00     0.258 C 
HETATM    4  O   UNL     1     -19.821  -4.876  -5.720  1.00  0.00    -0.265 OA
BRANCH   3   5
HETATM    5  O   UNL     1     -20.244  -6.029  -7.660  1.00  0.00    -0.321 OA
BRANCH   5   6
HETATM    6  C   UNL     1     -19.778  -4.907  -8.429  1.00  0.00     0.183 C 
BRANCH   6   7
HETATM    7  C   UNL     1     -20.883  -4.172  -9.211  1.00  0.00     0.010 C 
BRANCH   7   8
HETATM    8  C   UNL     1     -20.532  -4.056 -10.713  1.00  0.00     0.007 C 
BRANCH   8   9
HETATM    9  C   UNL     1     -21.751  -4.259 -11.619  1.00  0.00     0.000 C 
BRANCH   9  10
HETATM   10  C   UNL     1     -22.328  -2.942 -12.137  1.00  0.00    -0.005 C 
HETATM   11  C   UNL     1     -23.849  -2.973 -12.093  1.00  0.00     0.005 C 
ENDBRANCH   9  10
ENDBRANCH   8   9
ENDBRANCH   7   8
BRANCH   7  12
HETATM   12  C   UNL     1     -22.256  -4.824  -8.931  1.00  0.00     0.002 C 
HETATM   13  C   UNL     1     -23.065  -4.191  -7.805  1.00  0.00     0.005 C 
ENDBRANCH   7  12
ENDBRANCH   6   7
ENDBRANCH   5   6
ENDBRANCH   3   5
ENDBRANCH   2   3
ENDBRANCH   1   2
BRANCH   1  14
HETATM   14  C   UNL     1     -21.585  -6.498  -3.469  1.00  0.00     0.010 C 
BRANCH  14  15
HETATM   15  C   UNL     1     -21.150  -7.572  -2.470  1.00  0.00     0.111 C 
BRANCH  15  16
HETATM   16  C   UNL     1     -21.939  -7.511  -1.190  1.00  0.00     0.258 C 
HETATM   17  O   UNL     1     -22.758  -6.652  -0.888  1.00  0.00    -0.265 OA
BRANCH  16  18
HETATM   18  O   UNL     1     -21.481  -8.476  -0.332  1.00  0.00    -0.321 OA
BRANCH  18  19
HETATM   19  C   UNL     1     -22.486  -9.440   0.004  1.00  0.00     0.183 C 
BRANCH  19  20
HETATM   20  C   UNL     1     -22.215 -10.844  -0.558  1.00  0.00     0.010 C 
BRANCH  20  21
HETATM   21  C   UNL     1     -22.012 -11.905   0.550  1.00  0.00     0.002 C 
HETATM   22  C   UNL     1     -23.207 -12.812   0.812  1.00  0.00     0.005 C 
ENDBRANCH  20  21
BRANCH  20  23
HETATM   23  C   UNL     1     -23.343 -11.260  -1.537  1.00  0.00     0.007 C 
BRANCH  23  24
HETATM   24  C   UNL     1     -23.010 -10.967  -3.005  1.00  0.00     0.000 C 
BRANCH  24  25
HETATM   25  C   UNL     1     -21.507 -10.979  -3.276  1.00  0.00    -0.005 C 
HETATM   26  C   UNL     1     -21.231 -10.843  -4.767  1.00  0.00     0.005 C 
ENDBRANCH  24  25
ENDBRANCH  23  24
ENDBRANCH  20  23
ENDBRANCH  19  20
ENDBRANCH  18  19
ENDBRANCH  16  18
ENDBRANCH  15  16
ENDBRANCH  14  15
ENDBRANCH   1  14
TORSDOF 19
ENDMDL
MODEL 7
REMARK VINA RESULT:      -6.5      1.843      2.964
REMARK  19 active torsions:
REMARK  status: ('A' for Active; 'I' for Inactive)
REMARK    1  A    between atoms: C_2  and  C_3 
REMARK    2  A    between atoms: C_3  and  C_4 
REMARK    3  A    between atoms: C_4  and  C_5 
REMARK    4  A    between atoms: C_5  and  C_6 
REMARK    5  A    between atoms: C_5  and  C_8 
REMARK    6  A    between atoms: C_8  and  O_9 
REMARK    7  A    between atoms: O_9  and  C_10 
REMARK    8  A    between atoms: C_10  and  C_12 
REMARK    9  A    between atoms: C_12  and  C_13 
REMARK   10  A    between atoms: C_13  and  C_14 
REMARK   11  A    between atoms: C_14  and  C_15 
REMARK   12  A    between atoms: C_15  and  C_16 
REMARK   13  A    between atoms: C_16  and  O_18 
REMARK   14  A    between atoms: O_18  and  C_19 
REMARK   15  A    between atoms: C_19  and  C_20 
REMARK   16  A    between atoms: C_20  and  C_21 
REMARK   17  A    between atoms: C_20  and  C_23 
REMARK   18  A    between atoms: C_23  and  C_24 
REMARK   19  A    between atoms: C_24  and  C_25 
ROOT
HETATM    1  C   UNL     1     -22.049  -6.432  -5.136  1.00  0.00     0.010 C 
ENDROOT
BRANCH   1   2
HETATM    2  C   UNL     1     -20.771  -5.596  -5.231  1.00  0.00     0.111 C 
BRANCH   2   3
HETATM    3  C   UNL     1     -20.330  -5.426  -6.668  1.00  0.00     0.258 C 
HETATM    4  O   UNL     1     -19.817  -6.301  -7.351  1.00  0.00    -0.265 OA
BRANCH   3   5
HETATM    5  O   UNL     1     -20.506  -4.130  -7.055  1.00  0.00    -0.321 OA
BRANCH   5   6
HETATM    6  C   UNL     1     -21.822  -3.802  -7.533  1.00  0.00     0.183 C 
BRANCH   6   7
HETATM    7  C   UNL     1     -22.076  -4.184  -9.003  1.00  0.00     0.010 C 
BRANCH   7   8
HETATM    8  C   UNL     1     -23.485  -3.745  -9.467  1.00  0.00     0.007 C 
BRANCH   8   9
HETATM    9  C   UNL     1     -23.825  -4.249 -10.874  1.00  0.00     0.000 C 
BRANCH   9  10
HETATM   10  C   UNL     1     -24.098  -3.114 -11.858  1.00  0.00    -0.005 C 
HETATM   11  C   UNL     1     -22.993  -3.036 -12.902  1.00  0.00     0.005 C 
ENDBRANCH   9  10
ENDBRANCH   8   9
ENDBRANCH   7   8
BRANCH   7  12
HETATM   12  C   UNL     1     -20.926  -3.663  -9.894  1.00  0.00     0.002 C 
HETATM   13  C   UNL     1     -20.102  -4.736 -10.596  1.00  0.00     0.005 C 
ENDBRANCH   7  12
ENDBRANCH   6   7
ENDBRANCH   5   6
ENDBRANCH   3   5
ENDBRANCH   2   3
ENDBRANCH   1   2
BRANCH   1  14
HETATM   14  C   UNL     1     -21.854  -7.681  -4.274  1.00  0.00     0.010 C 
BRANCH  14  15
HETATM   15  C   UNL     1     -20.798  -8.611  -4.877  1.00  0.00     0.111 C 
BRANCH  15  16
HETATM   16  C   UNL     1     -19.777  -9.046  -3.860  1.00  0.00     0.258 C 
HETATM   17  O   UNL     1     -18.828  -9.793  -4.065  1.00  0.00    -0.265 OA
BRANCH  16  18
HETATM   18  O   UNL     1     -20.166  -8.615  -2.619  1.00  0.00    -0.321 OA
BRANCH  18  19
HETATM   19  C   UNL     1     -20.231  -9.677  -1.660  1.00  0.00     0.183 C 
BRANCH  19  20
HETATM   20  C   UNL     1     -21.603  -9.822  -0.981  1.00  0.00     0.010 C 
BRANCH  20  21
HETATM   21  C   UNL     1     -22.275  -8.459  -0.692  1.00  0.00     0.002 C 
HETATM   22  C   UNL     1     -22.176  -7.975   0.749  1.00  0.00     0.005 C 
ENDBRANCH  20  21
BRANCH  20  23
HETATM   23  C   UNL     1     -22.526 -10.739  -1.824  1.00  0.00     0.007 C 
BRANCH  23  24
HETATM   24  C   UNL     1     -23.847 -11.077  -1.121  1.00  0.00     0.000 C 
BRANCH  24  25
HETATM   25  C   UNL     1     -23.637 -11.872   0.166  1.00  0.00    -0.005 C 
HETATM   26  C   UNL     1     -23.549 -13.362  -0.133  1.00  0.00     0.005 C 
ENDBRANCH  24  25
ENDBRANCH  23  24
ENDBRANCH  20  23
ENDBRANCH  19  20
ENDBRANCH  18  19
ENDBRANCH  16  18
ENDBRANCH  15  16
ENDBRANCH  14  15
ENDBRANCH   1  14
TORSDOF 19
ENDMDL
MODEL 8
REMARK VINA RESULT:      -6.4      1.913     10.927
REMARK  19 active torsions:
REMARK  status: ('A' for Active; 'I' for Inactive)
REMARK    1  A    between atoms: C_2  and  C_3 
REMARK    2  A    between atoms: C_3  and  C_4 
REMARK    3  A    between atoms: C_4  and  C_5 
REMARK    4  A    between atoms: C_5  and  C_6 
REMARK    5  A    between atoms: C_5  and  C_8 
REMARK    6  A    between atoms: C_8  and  O_9 
REMARK    7  A    between atoms: O_9  and  C_10 
REMARK    8  A    between atoms: C_10  and  C_12 
REMARK    9  A    between atoms: C_12  and  C_13 
REMARK   10  A    between atoms: C_13  and  C_14 
REMARK   11  A    between atoms: C_14  and  C_15 
REMARK   12  A    between atoms: C_15  and  C_16 
REMARK   13  A    between atoms: C_16  and  O_18 
REMARK   14  A    between atoms: O_18  and  C_19 
REMARK   15  A    between atoms: C_19  and  C_20 
REMARK   16  A    between atoms: C_20  and  C_21 
REMARK   17  A    between atoms: C_20  and  C_23 
REMARK   18  A    between atoms: C_23  and  C_24 
REMARK   19  A    between atoms: C_24  and  C_25 
ROOT
HETATM    1  C   UNL     1     -21.656  -6.381  -4.979  1.00  0.00     0.010 C 
ENDROOT
BRANCH   1   2
HETATM    2  C   UNL     1     -21.219  -7.755  -5.492  1.00  0.00     0.111 C 
BRANCH   2   3
HETATM    3  C   UNL     1     -21.411  -8.823  -4.439  1.00  0.00     0.258 C 
HETATM    4  O   UNL     1     -21.534 -10.017  -4.669  1.00  0.00    -0.265 OA
BRANCH   3   5
HETATM    5  O   UNL     1     -21.520  -8.245  -3.209  1.00  0.00    -0.321 OA
BRANCH   5   6
HETATM    6  C   UNL     1     -21.161  -9.086  -2.098  1.00  0.00     0.183 C 
BRANCH   6   7
HETATM    7  C   UNL     1     -22.348  -9.507  -1.213  1.00  0.00     0.010 C 
BRANCH   7   8
HETATM    8  C   UNL     1     -22.592 -11.033  -1.283  1.00  0.00     0.007 C 
BRANCH   8   9
HETATM    9  C   UNL     1     -23.879 -11.456  -0.565  1.00  0.00     0.000 C 
BRANCH   9  10
HETATM   10  C   UNL     1     -23.620 -12.419   0.593  1.00  0.00    -0.005 C 
HETATM   11  C   UNL     1     -22.125 -12.597   0.814  1.00  0.00     0.005 C 
ENDBRANCH   9  10
ENDBRANCH   8   9
ENDBRANCH   7   8
BRANCH   7  12
HETATM   12  C   UNL     1     -22.163  -8.961   0.221  1.00  0.00     0.002 C 
HETATM   13  C   UNL     1     -23.119  -7.846   0.627  1.00  0.00     0.005 C 
ENDBRANCH   7  12
ENDBRANCH   6   7
ENDBRANCH   5   6
ENDBRANCH   3   5
ENDBRANCH   2   3
ENDBRANCH   1   2
BRANCH   1  14
HETATM   14  C   UNL     1     -20.544  -5.339  -5.114  1.00  0.00     0.010 C 
BRANCH  14  15
HETATM   15  C   UNL     1     -20.771  -4.442  -6.333  1.00  0.00     0.111 C 
BRANCH  15  16
HETATM   16  C   UNL     1     -19.702  -4.619  -7.377  1.00  0.00     0.258 C 
HETATM   17  O   UNL     1     -18.515  -4.343  -7.249  1.00  0.00    -0.265 OA
BRANCH  16  18
HETATM   18  O   UNL     1     -20.285  -4.984  -8.562  1.00  0.00    -0.321 OA
BRANCH  18  19
HETATM   19  C   UNL     1     -21.707  -5.121  -8.458  1.00  0.00     0.183 C 
BRANCH  19  20
HETATM   20  C   UNL     1     -22.484  -4.450  -9.602  1.00  0.00     0.010 C 
BRANCH  20  21
HETATM   21  C   UNL     1     -23.599  -3.504  -9.097  1.00  0.00     0.002 C 
HETATM   22  C   UNL     1     -24.962  -3.694  -9.750  1.00  0.00     0.005 C 
ENDBRANCH  20  21
BRANCH  20  23
HETATM   23  C   UNL     1     -21.508  -3.713 -10.555  1.00  0.00     0.007 C 
BRANCH  23  24
HETATM   24  C   UNL     1     -21.910  -3.817 -12.032  1.00  0.00     0.000 C 
BRANCH  24  25
HETATM   25  C   UNL     1     -22.576  -2.543 -12.548  1.00  0.00    -0.005 C 
HETATM   26  C   UNL     1     -23.980  -2.841 -13.054  1.00  0.00     0.005 C 
ENDBRANCH  24  25
ENDBRANCH  23  24
ENDBRANCH  20  23
ENDBRANCH  19  20
ENDBRANCH  18  19
ENDBRANCH  16  18
ENDBRANCH  15  16
ENDBRANCH  14  15
ENDBRANCH   1  14
TORSDOF 19
ENDMDL
MODEL 9
REMARK VINA RESULT:      -6.4      2.446      4.859
REMARK  19 active torsions:
REMARK  status: ('A' for Active; 'I' for Inactive)
REMARK    1  A    between atoms: C_2  and  C_3 
REMARK    2  A    between atoms: C_3  and  C_4 
REMARK    3  A    between atoms: C_4  and  C_5 
REMARK    4  A    between atoms: C_5  and  C_6 
REMARK    5  A    between atoms: C_5  and  C_8 
REMARK    6  A    between atoms: C_8  and  O_9 
REMARK    7  A    between atoms: O_9  and  C_10 
REMARK    8  A    between atoms: C_10  and  C_12 
REMARK    9  A    between atoms: C_12  and  C_13 
REMARK   10  A    between atoms: C_13  and  C_14 
REMARK   11  A    between atoms: C_14  and  C_15 
REMARK   12  A    between atoms: C_15  and  C_16 
REMARK   13  A    between atoms: C_16  and  O_18 
REMARK   14  A    between atoms: O_18  and  C_19 
REMARK   15  A    between atoms: C_19  and  C_20 
REMARK   16  A    between atoms: C_20  and  C_21 
REMARK   17  A    between atoms: C_20  and  C_23 
REMARK   18  A    between atoms: C_23  and  C_24 
REMARK   19  A    between atoms: C_24  and  C_25 
ROOT
HETATM    1  C   UNL     1     -20.643  -5.144  -8.084  1.00  0.00     0.010 C 
ENDROOT
BRANCH   1   2
HETATM    2  C   UNL     1     -20.357  -3.939  -8.983  1.00  0.00     0.111 C 
BRANCH   2   3
HETATM    3  C   UNL     1     -20.024  -4.372 -10.393  1.00  0.00     0.258 C 
HETATM    4  O   UNL     1     -19.450  -5.410 -10.689  1.00  0.00    -0.265 OA
BRANCH   3   5
HETATM    5  O   UNL     1     -20.375  -3.391 -11.273  1.00  0.00    -0.321 OA
BRANCH   5   6
HETATM    6  C   UNL     1     -21.748  -2.967 -11.210  1.00  0.00     0.183 C 
BRANCH   6   7
HETATM    7  C   UNL     1     -22.638  -3.534 -12.331  1.00  0.00     0.010 C 
BRANCH   7   8
HETATM    8  C   UNL     1     -23.849  -4.307 -11.756  1.00  0.00     0.007 C 
BRANCH   8   9
HETATM    9  C   UNL     1     -23.521  -5.015 -10.436  1.00  0.00     0.000 C 
BRANCH   9  10
HETATM   10  C   UNL     1     -24.170  -4.342  -9.228  1.00  0.00    -0.005 C 
HETATM   11  C   UNL     1     -25.047  -3.180  -9.672  1.00  0.00     0.005 C 
ENDBRANCH   9  10
ENDBRANCH   8   9
ENDBRANCH   7   8
BRANCH   7  12
HETATM   12  C   UNL     1     -23.018  -2.414 -13.326  1.00  0.00     0.002 C 
HETATM   13  C   UNL     1     -22.806  -2.746 -14.798  1.00  0.00     0.005 C 
ENDBRANCH   7  12
ENDBRANCH   6   7
ENDBRANCH   5   6
ENDBRANCH   3   5
ENDBRANCH   2   3
ENDBRANCH   1   2
BRANCH   1  14
HETATM   14  C   UNL     1     -19.679  -5.215  -6.898  1.00  0.00     0.010 C 
BRANCH  14  15
HETATM   15  C   UNL     1     -20.406  -4.962  -5.576  1.00  0.00     0.111 C 
BRANCH  15  16
HETATM   16  C   UNL     1     -21.417  -6.034  -5.269  1.00  0.00     0.258 C 
HETATM   17  O   UNL     1     -22.634  -5.912  -5.315  1.00  0.00    -0.265 OA
BRANCH  16  18
HETATM   18  O   UNL     1     -20.770  -7.132  -4.764  1.00  0.00    -0.321 OA
BRANCH  18  19
HETATM   19  C   UNL     1     -21.604  -7.918  -3.905  1.00  0.00     0.183 C 
BRANCH  19  20
HETATM   20  C   UNL     1     -20.938  -8.310  -2.576  1.00  0.00     0.010 C 
BRANCH  20  21
HETATM   21  C   UNL     1     -21.368  -7.402  -1.400  1.00  0.00     0.002 C 
HETATM   22  C   UNL     1     -22.228  -6.204  -1.780  1.00  0.00     0.005 C 
ENDBRANCH  20  21
BRANCH  20  23
HETATM   23  C   UNL     1     -21.202  -9.805  -2.262  1.00  0.00     0.007 C 
BRANCH  23  24
HETATM   24  C   UNL     1     -20.806 -10.202  -0.834  1.00  0.00     0.000 C 
BRANCH  24  25
HETATM   25  C   UNL     1     -21.972 -10.801  -0.050  1.00  0.00    -0.005 C 
HETATM   26  C   UNL     1     -23.286 -10.568  -0.783  1.00  0.00     0.005 C 
ENDBRANCH  24  25
ENDBRANCH  23  24
ENDBRANCH  20  23
ENDBRANCH  19  20
ENDBRANCH  18  19
ENDBRANCH  16  18
ENDBRANCH  15  16
ENDBRANCH  14  15
ENDBRANCH   1  14
TORSDOF 19
ENDMDL
