MODEL 1
REMARK VINA RESULT:      -4.5      0.000      0.000
REMARK  4 active torsions:
REMARK  status: ('A' for Active; 'I' for Inactive)
REMARK    1  A    between atoms: C_2  and  C_3 
REMARK    2  A    between atoms: C_3  and  C_4 
REMARK    3  A    between atoms: C_4  and  O_5 
REMARK    4  A    between atoms: O_5  and  C_6 
ROOT
HETATM    1  C   UNL     1     -23.167  -3.939 -11.590  1.00  0.00     0.178 C 
ENDROOT
BRANCH   1   2
HETATM    2  C   UNL     1     -21.975  -3.218 -12.210  1.00  0.00     0.026 C 
BRANCH   2   3
HETATM    3  C   UNL     1     -20.807  -3.107 -11.233  1.00  0.00    -0.002 C 
HETATM    4  C   UNL     1     -20.402  -4.470 -10.697  1.00  0.00     0.005 C 
ENDBRANCH   2   3
ENDBRANCH   1   2
BRANCH   1   5
HETATM    5  O   UNL     1     -24.140  -2.979 -11.132  1.00  0.00    -0.322 OA
BRANCH   5   6
HETATM    6  C   UNL     1     -24.763  -3.337  -9.978  1.00  0.00     0.254 C 
HETATM    7  O   UNL     1     -25.962  -3.186  -9.748  1.00  0.00    -0.266 OA
HETATM    8  C   UNL     1     -23.823  -3.942  -8.983  1.00  0.00     0.126 C 
ENDBRANCH   5   6
ENDBRANCH   1   5
TORSDOF 4
ENDMDL
MODEL 2
REMARK VINA RESULT:      -4.4      1.366      2.226
REMARK  4 active torsions:
REMARK  status: ('A' for Active; 'I' for Inactive)
REMARK    1  A    between atoms: C_2  and  C_3 
REMARK    2  A    between atoms: C_3  and  C_4 
REMARK    3  A    between atoms: C_4  and  O_5 
REMARK    4  A    between atoms: O_5  and  C_6 
ROOT
HETATM    1  C   UNL     1     -22.643  -3.695  -8.921  1.00  0.00     0.178 C 
ENDROOT
BRANCH   1   2
HETATM    2  C   UNL     1     -21.540  -4.720  -8.676  1.00  0.00     0.026 C 
BRANCH   2   3
HETATM    3  C   UNL     1     -20.254  -4.357  -9.413  1.00  0.00    -0.002 C 
HETATM    4  C   UNL     1     -20.489  -4.235 -10.910  1.00  0.00     0.005 C 
ENDBRANCH   2   3
ENDBRANCH   1   2
BRANCH   1   5
HETATM    5  O   UNL     1     -23.805  -4.345  -9.473  1.00  0.00    -0.322 OA
BRANCH   5   6
HETATM    6  C   UNL     1     -24.600  -3.520 -10.204  1.00  0.00     0.254 C 
HETATM    7  O   UNL     1     -25.713  -3.125  -9.859  1.00  0.00    -0.266 OA
HETATM    8  C   UNL     1     -23.977  -3.133 -11.509  1.00  0.00     0.126 C 
ENDBRANCH   5   6
ENDBRANCH   1   5
TORSDOF 4
ENDMDL
MODEL 3
REMARK VINA RESULT:      -4.4      1.604      2.954
REMARK  4 active torsions:
REMARK  status: ('A' for Active; 'I' for Inactive)
REMARK    1  A    between atoms: C_2  and  C_3 
REMARK    2  A    between atoms: C_3  and  C_4 
REMARK    3  A    between atoms: C_4  and  O_5 
REMARK    4  A    between atoms: O_5  and  C_6 
ROOT
HETATM    1  C   UNL     1     -24.114  -4.350 -10.199  1.00  0.00     0.178 C 
ENDROOT
BRANCH   1   2
HETATM    2  C   UNL     1     -23.578  -4.044  -8.804  1.00  0.00     0.026 C 
BRANCH   2   3
HETATM    3  C   UNL     1     -22.057  -4.148  -8.745  1.00  0.00    -0.002 C 
HETATM    4  C   UNL     1     -21.524  -3.704  -7.392  1.00  0.00     0.005 C 
ENDBRANCH   2   3
ENDBRANCH   1   2
BRANCH   1   5
HETATM    5  O   UNL     1     -24.619  -3.146 -10.809  1.00  0.00    -0.322 OA
BRANCH   5   6
HETATM    6  C   UNL     1     -24.219  -2.974 -12.096  1.00  0.00     0.254 C 
HETATM    7  O   UNL     1     -24.967  -2.978 -13.073  1.00  0.00    -0.266 OA
HETATM    8  C   UNL     1     -22.740  -2.781 -12.216  1.00  0.00     0.126 C 
ENDBRANCH   5   6
ENDBRANCH   1   5
TORSDOF 4
ENDMDL
MODEL 4
REMARK VINA RESULT:      -4.3      2.362      3.235
REMARK  4 active torsions:
REMARK  status: ('A' for Active; 'I' for Inactive)
REMARK    1  A    between atoms: C_2  and  C_3 
REMARK    2  A    between atoms: C_3  and  C_4 
REMARK    3  A    between atoms: C_4  and  O_5 
REMARK    4  A    between atoms: O_5  and  C_6 
ROOT
HETATM    1  C   UNL     1     -22.050  -2.954 -11.713  1.00  0.00     0.178 C 
ENDROOT
BRANCH   1   2
HETATM    2  C   UNL     1     -20.968  -3.866 -11.141  1.00  0.00     0.026 C 
BRANCH   2   3
HETATM    3  C   UNL     1     -21.238  -4.222  -9.682  1.00  0.00    -0.002 C 
HETATM    4  C   UNL     1     -22.648  -3.829  -9.269  1.00  0.00     0.005 C 
ENDBRANCH   2   3
ENDBRANCH   1   2
BRANCH   1   5
HETATM    5  O   UNL     1     -22.161  -3.153 -13.136  1.00  0.00    -0.322 OA
BRANCH   5   6
HETATM    6  C   UNL     1     -23.425  -3.010 -13.613  1.00  0.00     0.254 C 
HETATM    7  O   UNL     1     -23.722  -2.910 -14.803  1.00  0.00    -0.266 OA
HETATM    8  C   UNL     1     -24.449  -2.978 -12.522  1.00  0.00     0.126 C 
ENDBRANCH   5   6
ENDBRANCH   1   5
TORSDOF 4
ENDMDL
MODEL 5
REMARK VINA RESULT:      -4.1      1.643      2.179
REMARK  4 active torsions:
REMARK  status: ('A' for Active; 'I' for Inactive)
REMARK    1  A    between atoms: C_2  and  C_3 
REMARK    2  A    between atoms: C_3  and  C_4 
REMARK    3  A    between atoms: C_4  and  O_5 
REMARK    4  A    between atoms: O_5  and  C_6 
ROOT
HETATM    1  C   UNL     1     -22.362  -4.349 -10.571  1.00  0.00     0.178 C 
ENDROOT
BRANCH   1   2
HETATM    2  C   UNL     1     -20.967  -4.076 -10.016  1.00  0.00     0.026 C 
BRANCH   2   3
HETATM    3  C   UNL     1     -20.943  -4.124  -8.491  1.00  0.00    -0.002 C 
HETATM    4  C   UNL     1     -19.535  -4.357  -7.967  1.00  0.00     0.005 C 
ENDBRANCH   2   3
ENDBRANCH   1   2
BRANCH   1   5
HETATM    5  O   UNL     1     -23.353  -3.698  -9.754  1.00  0.00    -0.322 OA
BRANCH   5   6
HETATM    6  C   UNL     1     -24.474  -3.339 -10.432  1.00  0.00     0.254 C 
HETATM    7  O   UNL     1     -25.584  -3.178  -9.926  1.00  0.00    -0.266 OA
HETATM    8  C   UNL     1     -24.225  -3.160 -11.897  1.00  0.00     0.126 C 
ENDBRANCH   5   6
ENDBRANCH   1   5
TORSDOF 4
ENDMDL
MODEL 6
REMARK VINA RESULT:      -4.1     15.877     16.704
REMARK  4 active torsions:
REMARK  status: ('A' for Active; 'I' for Inactive)
REMARK    1  A    between atoms: C_2  and  C_3 
REMARK    2  A    between atoms: C_3  and  C_4 
REMARK    3  A    between atoms: C_4  and  O_5 
REMARK    4  A    between atoms: O_5  and  C_6 
ROOT
HETATM    1  C   UNL     1     -29.551 -14.437 -21.491  1.00  0.00     0.178 C 
ENDROOT
BRANCH   1   2
HETATM    2  C   UNL     1     -29.862 -15.924 -21.350  1.00  0.00     0.026 C 
BRANCH   2   3
HETATM    3  C   UNL     1     -31.271 -16.258 -21.830  1.00  0.00    -0.002 C 
HETATM    4  C   UNL     1     -31.982 -15.023 -22.360  1.00  0.00     0.005 C 
ENDBRANCH   2   3
ENDBRANCH   1   2
BRANCH   1   5
HETATM    5  O   UNL     1     -28.936 -13.945 -20.283  1.00  0.00    -0.322 OA
BRANCH   5   6
HETATM    6  C   UNL     1     -29.711 -14.086 -19.176  1.00  0.00     0.254 C 
HETATM    7  O   UNL     1     -30.871 -13.689 -19.072  1.00  0.00    -0.266 OA
HETATM    8  C   UNL     1     -28.997 -14.784 -18.061  1.00  0.00     0.126 C 
ENDBRANCH   5   6
ENDBRANCH   1   5
TORSDOF 4
ENDMDL
MODEL 7
REMARK VINA RESULT:      -4.1      7.948      8.763
REMARK  4 active torsions:
REMARK  status: ('A' for Active; 'I' for Inactive)
REMARK    1  A    between atoms: C_2  and  C_3 
REMARK    2  A    between atoms: C_3  and  C_4 
REMARK    3  A    between atoms: C_4  and  O_5 
REMARK    4  A    between atoms: O_5  and  C_6 
ROOT
HETATM    1  C   UNL     1     -26.761  -6.221 -18.200  1.00  0.00     0.178 C 
ENDROOT
BRANCH   1   2
HETATM    2  C   UNL     1     -25.537  -6.657 -18.999  1.00  0.00     0.026 C 
BRANCH   2   3
HETATM    3  C   UNL     1     -25.881  -6.934 -20.460  1.00  0.00    -0.002 C 
HETATM    4  C   UNL     1     -24.857  -7.854 -21.104  1.00  0.00     0.005 C 
ENDBRANCH   2   3
ENDBRANCH   1   2
BRANCH   1   5
HETATM    5  O   UNL     1     -26.365  -5.809 -16.877  1.00  0.00    -0.322 OA
BRANCH   5   6
HETATM    6  C   UNL     1     -26.461  -6.792 -15.944  1.00  0.00     0.254 C 
HETATM    7  O   UNL     1     -25.506  -7.352 -15.408  1.00  0.00    -0.266 OA
HETATM    8  C   UNL     1     -27.881  -7.143 -15.625  1.00  0.00     0.126 C 
ENDBRANCH   5   6
ENDBRANCH   1   5
TORSDOF 4
ENDMDL
MODEL 8
REMARK VINA RESULT:      -4.0     22.119     23.332
REMARK  4 active torsions:
REMARK  status: ('A' for Active; 'I' for Inactive)
REMARK    1  A    between atoms: C_2  and  C_3 
REMARK    2  A    between atoms: C_3  and  C_4 
REMARK    3  A    between atoms: C_4  and  O_5 
REMARK    4  A    between atoms: O_5  and  C_6 
ROOT
HETATM    1  C   UNL     1      -8.813 -14.212   3.657  1.00  0.00     0.178 C 
ENDROOT
BRANCH   1   2
HETATM    2  C   UNL     1      -8.076 -14.567   2.369  1.00  0.00     0.026 C 
BRANCH   2   3
HETATM    3  C   UNL     1      -8.812 -14.056   1.134  1.00  0.00    -0.002 C 
HETATM    4  C   UNL     1      -9.904 -13.068   1.510  1.00  0.00     0.005 C 
ENDBRANCH   2   3
ENDBRANCH   1   2
BRANCH   1   5
HETATM    5  O   UNL     1      -8.100 -14.738   4.793  1.00  0.00    -0.322 OA
BRANCH   5   6
HETATM    6  C   UNL     1      -8.618 -14.357   5.990  1.00  0.00     0.254 C 
HETATM    7  O   UNL     1      -8.633 -15.053   7.006  1.00  0.00    -0.266 OA
HETATM    8  C   UNL     1      -9.192 -12.975   5.953  1.00  0.00     0.126 C 
ENDBRANCH   5   6
ENDBRANCH   1   5
TORSDOF 4
ENDMDL
MODEL 9
REMARK VINA RESULT:      -3.9      9.743     11.308
REMARK  4 active torsions:
REMARK  status: ('A' for Active; 'I' for Inactive)
REMARK    1  A    between atoms: C_2  and  C_3 
REMARK    2  A    between atoms: C_3  and  C_4 
REMARK    3  A    between atoms: C_4  and  O_5 
REMARK    4  A    between atoms: O_5  and  C_6 
ROOT
HETATM    1  C   UNL     1     -22.187  -7.733   0.114  1.00  0.00     0.178 C 
ENDROOT
BRANCH   1   2
HETATM    2  C   UNL     1     -23.360  -8.622   0.514  1.00  0.00     0.026 C 
BRANCH   2   3
HETATM    3  C   UNL     1     -23.314  -9.974  -0.192  1.00  0.00    -0.002 C 
HETATM    4  C   UNL     1     -22.008 -10.700   0.087  1.00  0.00     0.005 C 
ENDBRANCH   2   3
ENDBRANCH   1   2
BRANCH   1   5
HETATM    5  O   UNL     1     -22.639  -6.689  -0.770  1.00  0.00    -0.322 OA
BRANCH   5   6
HETATM    6  C   UNL     1     -22.005  -6.675  -1.972  1.00  0.00     0.254 C 
HETATM    7  O   UNL     1     -22.349  -6.003  -2.943  1.00  0.00    -0.266 OA
HETATM    8  C   UNL     1     -20.819  -7.589  -2.005  1.00  0.00     0.126 C 
ENDBRANCH   5   6
ENDBRANCH   1   5
TORSDOF 4
ENDMDL
