MODEL 1
REMARK VINA RESULT:      -6.2      0.000      0.000
REMARK  10 active torsions:
REMARK  status: ('A' for Active; 'I' for Inactive)
REMARK    1  A    between atoms: C_2  and  C_3 
REMARK    2  A    between atoms: C_3  and  C_4 
REMARK    3  A    between atoms: C_4  and  C_5 
REMARK    4  A    between atoms: C_5  and  C_6 
REMARK    5  A    between atoms: C_6  and  C_7 
REMARK    6  A    between atoms: C_7  and  C_8 
REMARK    7  A    between atoms: C_8  and  C_9 
REMARK    8  A    between atoms: C_9  and  C_10 
REMARK    9  A    between atoms: C_10  and  C_11 
REMARK   10  A    between atoms: C_11  and  O_13 
ROOT
HETATM    1  C   UNL     1     -35.605  -0.911 -11.649  1.00  0.00     0.000 C 
ENDROOT
BRANCH   1   2
HETATM    2  C   UNL     1     -34.555  -1.884 -12.176  1.00  0.00     0.000 C 
BRANCH   2   3
HETATM    3  C   UNL     1     -33.603  -2.312 -11.062  1.00  0.00     0.000 C 
BRANCH   3   4
HETATM    4  C   UNL     1     -33.217  -3.782 -11.208  1.00  0.00     0.000 C 
BRANCH   4   5
HETATM    5  C   UNL     1     -34.264  -4.686 -10.566  1.00  0.00    -0.000 C 
BRANCH   5   6
HETATM    6  C   UNL     1     -33.969  -6.158 -10.846  1.00  0.00    -0.005 C 
HETATM    7  C   UNL     1     -34.767  -7.060  -9.922  1.00  0.00     0.005 C 
ENDBRANCH   5   6
ENDBRANCH   4   5
ENDBRANCH   3   4
ENDBRANCH   2   3
ENDBRANCH   1   2
BRANCH   1   8
HETATM    8  C   UNL     1     -36.135  -0.009 -12.763  1.00  0.00     0.001 C 
BRANCH   8   9
HETATM    9  C   UNL     1     -35.050   0.236 -13.810  1.00  0.00     0.010 C 
BRANCH   9  10
HETATM   10  C   UNL     1     -35.639   0.482 -15.195  1.00  0.00     0.110 C 
BRANCH  10  11
HETATM   11  C   UNL     1     -35.659  -0.787 -16.015  1.00  0.00     0.139 C 
HETATM   12  O   UNL     1     -35.166  -1.854 -15.681  1.00  0.00    -0.650 OA
BRANCH  11  13
HETATM   13  O   UNL     1     -36.295  -0.626 -17.198  1.00  0.00    -0.776 OA
HETATM   14  H   UNL     1     -36.410  -1.455 -17.697  1.00  0.00     0.167 HD
ENDBRANCH  11  13
ENDBRANCH  10  11
ENDBRANCH   9  10
ENDBRANCH   8   9
ENDBRANCH   1   8
TORSDOF 10
ENDMDL
MODEL 2
REMARK VINA RESULT:      -5.9     12.196     13.747
REMARK  10 active torsions:
REMARK  status: ('A' for Active; 'I' for Inactive)
REMARK    1  A    between atoms: C_2  and  C_3 
REMARK    2  A    between atoms: C_3  and  C_4 
REMARK    3  A    between atoms: C_4  and  C_5 
REMARK    4  A    between atoms: C_5  and  C_6 
REMARK    5  A    between atoms: C_6  and  C_7 
REMARK    6  A    between atoms: C_7  and  C_8 
REMARK    7  A    between atoms: C_8  and  C_9 
REMARK    8  A    between atoms: C_9  and  C_10 
REMARK    9  A    between atoms: C_10  and  C_11 
REMARK   10  A    between atoms: C_11  and  O_13 
ROOT
HETATM    1  C   UNL     1     -20.340  -4.436  -9.653  1.00  0.00     0.000 C 
ENDROOT
BRANCH   1   2
HETATM    2  C   UNL     1     -21.569  -4.645  -8.773  1.00  0.00     0.000 C 
BRANCH   2   3
HETATM    3  C   UNL     1     -21.401  -3.936  -7.430  1.00  0.00     0.000 C 
BRANCH   3   4
HETATM    4  C   UNL     1     -20.159  -4.439  -6.699  1.00  0.00     0.000 C 
BRANCH   4   5
HETATM    5  C   UNL     1     -20.343  -5.884  -6.245  1.00  0.00    -0.000 C 
BRANCH   5   6
HETATM    6  C   UNL     1     -21.002  -5.950  -4.869  1.00  0.00    -0.005 C 
HETATM    7  C   UNL     1     -22.368  -6.609  -4.949  1.00  0.00     0.005 C 
ENDBRANCH   5   6
ENDBRANCH   4   5
ENDBRANCH   3   4
ENDBRANCH   2   3
ENDBRANCH   1   2
BRANCH   1   8
HETATM    8  C   UNL     1     -20.738  -4.125 -11.096  1.00  0.00     0.001 C 
BRANCH   8   9
HETATM    9  C   UNL     1     -21.981  -3.238 -11.126  1.00  0.00     0.010 C 
BRANCH   9  10
HETATM   10  C   UNL     1     -22.672  -3.269 -12.484  1.00  0.00     0.110 C 
BRANCH  10  11
HETATM   11  C   UNL     1     -24.129  -2.886 -12.366  1.00  0.00     0.139 C 
HETATM   12  O   UNL     1     -24.855  -3.146 -11.419  1.00  0.00    -0.650 OA
BRANCH  11  13
HETATM   13  O   UNL     1     -24.572  -2.204 -13.448  1.00  0.00    -0.776 OA
HETATM   14  H   UNL     1     -24.516  -1.237 -13.351  1.00  0.00     0.167 HD
ENDBRANCH  11  13
ENDBRANCH  10  11
ENDBRANCH   9  10
ENDBRANCH   8   9
ENDBRANCH   1   8
TORSDOF 10
ENDMDL
MODEL 3
REMARK VINA RESULT:      -5.9     12.258     13.710
REMARK  10 active torsions:
REMARK  status: ('A' for Active; 'I' for Inactive)
REMARK    1  A    between atoms: C_2  and  C_3 
REMARK    2  A    between atoms: C_3  and  C_4 
REMARK    3  A    between atoms: C_4  and  C_5 
REMARK    4  A    between atoms: C_5  and  C_6 
REMARK    5  A    between atoms: C_6  and  C_7 
REMARK    6  A    between atoms: C_7  and  C_8 
REMARK    7  A    between atoms: C_8  and  C_9 
REMARK    8  A    between atoms: C_9  and  C_10 
REMARK    9  A    between atoms: C_10  and  C_11 
REMARK   10  A    between atoms: C_11  and  O_13 
ROOT
HETATM    1  C   UNL     1     -20.476  -4.429 -10.826  1.00  0.00     0.000 C 
ENDROOT
BRANCH   1   2
HETATM    2  C   UNL     1     -20.110  -4.266  -9.353  1.00  0.00     0.000 C 
BRANCH   2   3
HETATM    3  C   UNL     1     -21.328  -4.502  -8.463  1.00  0.00     0.000 C 
BRANCH   3   4
HETATM    4  C   UNL     1     -21.208  -3.721  -7.156  1.00  0.00     0.000 C 
BRANCH   4   5
HETATM    5  C   UNL     1     -20.589  -4.586  -6.061  1.00  0.00    -0.000 C 
BRANCH   5   6
HETATM    6  C   UNL     1     -20.985  -6.051  -6.226  1.00  0.00    -0.005 C 
HETATM    7  C   UNL     1     -21.968  -6.475  -5.148  1.00  0.00     0.005 C 
ENDBRANCH   5   6
ENDBRANCH   4   5
ENDBRANCH   3   4
ENDBRANCH   2   3
ENDBRANCH   1   2
BRANCH   1   8
HETATM    8  C   UNL     1     -21.240  -3.211 -11.346  1.00  0.00     0.001 C 
BRANCH   8   9
HETATM    9  C   UNL     1     -22.456  -3.653 -12.158  1.00  0.00     0.010 C 
BRANCH   9  10
HETATM   10  C   UNL     1     -23.046  -2.507 -12.972  1.00  0.00     0.110 C 
BRANCH  10  11
HETATM   11  C   UNL     1     -23.184  -2.884 -14.428  1.00  0.00     0.139 C 
HETATM   12  O   UNL     1     -22.669  -2.293 -15.364  1.00  0.00    -0.650 OA
BRANCH  11  13
HETATM   13  O   UNL     1     -23.961  -3.977 -14.606  1.00  0.00    -0.776 OA
HETATM   14  H   UNL     1     -24.537  -4.176 -13.846  1.00  0.00     0.167 HD
ENDBRANCH  11  13
ENDBRANCH  10  11
ENDBRANCH   9  10
ENDBRANCH   8   9
ENDBRANCH   1   8
TORSDOF 10
ENDMDL
MODEL 4
REMARK VINA RESULT:      -5.9     11.696     13.094
REMARK  10 active torsions:
REMARK  status: ('A' for Active; 'I' for Inactive)
REMARK    1  A    between atoms: C_2  and  C_3 
REMARK    2  A    between atoms: C_3  and  C_4 
REMARK    3  A    between atoms: C_4  and  C_5 
REMARK    4  A    between atoms: C_5  and  C_6 
REMARK    5  A    between atoms: C_6  and  C_7 
REMARK    6  A    between atoms: C_7  and  C_8 
REMARK    7  A    between atoms: C_8  and  C_9 
REMARK    8  A    between atoms: C_9  and  C_10 
REMARK    9  A    between atoms: C_10  and  C_11 
REMARK   10  A    between atoms: C_11  and  O_13 
ROOT
HETATM    1  C   UNL     1     -21.745  -3.969 -11.204  1.00  0.00     0.000 C 
ENDROOT
BRANCH   1   2
HETATM    2  C   UNL     1     -22.962  -4.496 -10.451  1.00  0.00     0.000 C 
BRANCH   2   3
HETATM    3  C   UNL     1     -22.945  -4.030  -8.997  1.00  0.00     0.000 C 
BRANCH   3   4
HETATM    4  C   UNL     1     -21.557  -4.207  -8.384  1.00  0.00     0.000 C 
BRANCH   4   5
HETATM    5  C   UNL     1     -21.658  -4.658  -6.930  1.00  0.00    -0.000 C 
BRANCH   5   6
HETATM    6  C   UNL     1     -20.295  -4.614  -6.243  1.00  0.00    -0.005 C 
HETATM    7  C   UNL     1     -19.170  -4.615  -7.264  1.00  0.00     0.005 C 
ENDBRANCH   5   6
ENDBRANCH   4   5
ENDBRANCH   3   4
ENDBRANCH   2   3
ENDBRANCH   1   2
BRANCH   1   8
HETATM    8  C   UNL     1     -22.028  -2.604 -11.831  1.00  0.00     0.001 C 
BRANCH   8   9
HETATM    9  C   UNL     1     -23.302  -2.659 -12.671  1.00  0.00     0.010 C 
BRANCH   9  10
HETATM   10  C   UNL     1     -23.001  -2.847 -14.154  1.00  0.00     0.110 C 
BRANCH  10  11
HETATM   11  C   UNL     1     -23.493  -1.671 -14.966  1.00  0.00     0.139 C 
HETATM   12  O   UNL     1     -24.547  -1.081 -14.790  1.00  0.00    -0.650 OA
BRANCH  11  13
HETATM   13  O   UNL     1     -22.624  -1.321 -15.943  1.00  0.00    -0.776 OA
HETATM   14  H   UNL     1     -21.697  -1.285 -15.647  1.00  0.00     0.167 HD
ENDBRANCH  11  13
ENDBRANCH  10  11
ENDBRANCH   9  10
ENDBRANCH   8   9
ENDBRANCH   1   8
TORSDOF 10
ENDMDL
MODEL 5
REMARK VINA RESULT:      -5.8     11.838     13.508
REMARK  10 active torsions:
REMARK  status: ('A' for Active; 'I' for Inactive)
REMARK    1  A    between atoms: C_2  and  C_3 
REMARK    2  A    between atoms: C_3  and  C_4 
REMARK    3  A    between atoms: C_4  and  C_5 
REMARK    4  A    between atoms: C_5  and  C_6 
REMARK    5  A    between atoms: C_6  and  C_7 
REMARK    6  A    between atoms: C_7  and  C_8 
REMARK    7  A    between atoms: C_8  and  C_9 
REMARK    8  A    between atoms: C_9  and  C_10 
REMARK    9  A    between atoms: C_10  and  C_11 
REMARK   10  A    between atoms: C_11  and  O_13 
ROOT
HETATM    1  C   UNL     1     -20.103  -4.630 -10.474  1.00  0.00     0.000 C 
ENDROOT
BRANCH   1   2
HETATM    2  C   UNL     1     -19.650  -4.233  -9.072  1.00  0.00     0.000 C 
BRANCH   2   3
HETATM    3  C   UNL     1     -20.015  -5.313  -8.056  1.00  0.00     0.000 C 
BRANCH   3   4
HETATM    4  C   UNL     1     -20.622  -4.696  -6.799  1.00  0.00     0.000 C 
BRANCH   4   5
HETATM    5  C   UNL     1     -21.737  -3.718  -7.156  1.00  0.00    -0.000 C 
BRANCH   5   6
HETATM    6  C   UNL     1     -23.035  -4.455  -7.478  1.00  0.00    -0.005 C 
HETATM    7  C   UNL     1     -23.629  -3.967  -8.788  1.00  0.00     0.005 C 
ENDBRANCH   5   6
ENDBRANCH   4   5
ENDBRANCH   3   4
ENDBRANCH   2   3
ENDBRANCH   1   2
BRANCH   1   8
HETATM    8  C   UNL     1     -20.728  -3.447 -11.211  1.00  0.00     0.001 C 
BRANCH   8   9
HETATM    9  C   UNL     1     -21.996  -3.884 -11.941  1.00  0.00     0.010 C 
BRANCH   9  10
HETATM   10  C   UNL     1     -22.764  -2.698 -12.513  1.00  0.00     0.110 C 
BRANCH  10  11
HETATM   11  C   UNL     1     -24.001  -3.152 -13.254  1.00  0.00     0.139 C 
HETATM   12  O   UNL     1     -25.142  -3.102 -12.823  1.00  0.00    -0.650 OA
BRANCH  11  13
HETATM   13  O   UNL     1     -23.715  -3.636 -14.484  1.00  0.00    -0.776 OA
HETATM   14  H   UNL     1     -24.465  -4.088 -14.911  1.00  0.00     0.167 HD
ENDBRANCH  11  13
ENDBRANCH  10  11
ENDBRANCH   9  10
ENDBRANCH   8   9
ENDBRANCH   1   8
TORSDOF 10
ENDMDL
MODEL 6
REMARK VINA RESULT:      -5.6     12.560     14.233
REMARK  10 active torsions:
REMARK  status: ('A' for Active; 'I' for Inactive)
REMARK    1  A    between atoms: C_2  and  C_3 
REMARK    2  A    between atoms: C_3  and  C_4 
REMARK    3  A    between atoms: C_4  and  C_5 
REMARK    4  A    between atoms: C_5  and  C_6 
REMARK    5  A    between atoms: C_6  and  C_7 
REMARK    6  A    between atoms: C_7  and  C_8 
REMARK    7  A    between atoms: C_8  and  C_9 
REMARK    8  A    between atoms: C_9  and  C_10 
REMARK    9  A    between atoms: C_10  and  C_11 
REMARK   10  A    between atoms: C_11  and  O_13 
ROOT
HETATM    1  C   UNL     1     -20.753  -3.930  -7.464  1.00  0.00     0.000 C 
ENDROOT
BRANCH   1   2
HETATM    2  C   UNL     1     -20.544  -4.839  -6.256  1.00  0.00     0.000 C 
BRANCH   2   3
HETATM    3  C   UNL     1     -21.809  -5.640  -5.955  1.00  0.00     0.000 C 
BRANCH   3   4
HETATM    4  C   UNL     1     -21.540  -6.706  -4.896  1.00  0.00     0.000 C 
BRANCH   4   5
HETATM    5  C   UNL     1     -21.202  -6.066  -3.553  1.00  0.00    -0.000 C 
BRANCH   5   6
HETATM    6  C   UNL     1     -21.291  -7.084  -2.419  1.00  0.00    -0.005 C 
HETATM    7  C   UNL     1     -22.325  -6.664  -1.388  1.00  0.00     0.005 C 
ENDBRANCH   5   6
ENDBRANCH   4   5
ENDBRANCH   3   4
ENDBRANCH   2   3
ENDBRANCH   1   2
BRANCH   1   8
HETATM    8  C   UNL     1     -22.223  -3.889  -7.880  1.00  0.00     0.001 C 
BRANCH   8   9
HETATM    9  C   UNL     1     -22.345  -3.881  -9.402  1.00  0.00     0.010 C 
BRANCH   9  10
HETATM   10  C   UNL     1     -23.652  -4.508  -9.874  1.00  0.00     0.110 C 
BRANCH  10  11
HETATM   11  C   UNL     1     -24.640  -3.452 -10.313  1.00  0.00     0.139 C 
HETATM   12  O   UNL     1     -24.877  -3.143 -11.470  1.00  0.00    -0.650 OA
BRANCH  11  13
HETATM   13  O   UNL     1     -25.258  -2.857  -9.266  1.00  0.00    -0.776 OA
HETATM   14  H   UNL     1     -25.333  -1.890  -9.354  1.00  0.00     0.167 HD
ENDBRANCH  11  13
ENDBRANCH  10  11
ENDBRANCH   9  10
ENDBRANCH   8   9
ENDBRANCH   1   8
TORSDOF 10
ENDMDL
MODEL 7
REMARK VINA RESULT:      -5.6      2.008      5.386
REMARK  10 active torsions:
REMARK  status: ('A' for Active; 'I' for Inactive)
REMARK    1  A    between atoms: C_2  and  C_3 
REMARK    2  A    between atoms: C_3  and  C_4 
REMARK    3  A    between atoms: C_4  and  C_5 
REMARK    4  A    between atoms: C_5  and  C_6 
REMARK    5  A    between atoms: C_6  and  C_7 
REMARK    6  A    between atoms: C_7  and  C_8 
REMARK    7  A    between atoms: C_8  and  C_9 
REMARK    8  A    between atoms: C_9  and  C_10 
REMARK    9  A    between atoms: C_10  and  C_11 
REMARK   10  A    between atoms: C_11  and  O_13 
ROOT
HETATM    1  C   UNL     1     -35.618  -2.270 -10.852  1.00  0.00     0.000 C 
ENDROOT
BRANCH   1   2
HETATM    2  C   UNL     1     -36.074  -0.847 -10.545  1.00  0.00     0.000 C 
BRANCH   2   3
HETATM    3  C   UNL     1     -36.331  -0.069 -11.834  1.00  0.00     0.000 C 
BRANCH   3   4
HETATM    4  C   UNL     1     -35.275  -0.395 -12.887  1.00  0.00     0.000 C 
BRANCH   4   5
HETATM    5  C   UNL     1     -34.778   0.875 -13.570  1.00  0.00    -0.000 C 
BRANCH   5   6
HETATM    6  C   UNL     1     -35.360   1.010 -14.975  1.00  0.00    -0.005 C 
HETATM    7  C   UNL     1     -35.587  -0.353 -15.605  1.00  0.00     0.005 C 
ENDBRANCH   5   6
ENDBRANCH   4   5
ENDBRANCH   3   4
ENDBRANCH   2   3
ENDBRANCH   1   2
BRANCH   1   8
HETATM    8  C   UNL     1     -34.158  -2.483 -10.454  1.00  0.00     0.001 C 
BRANCH   8   9
HETATM    9  C   UNL     1     -33.727  -3.916 -10.758  1.00  0.00     0.010 C 
BRANCH   9  10
HETATM   10  C   UNL     1     -33.087  -4.040 -12.137  1.00  0.00     0.110 C 
BRANCH  10  11
HETATM   11  C   UNL     1     -34.135  -4.199 -13.214  1.00  0.00     0.139 C 
HETATM   12  O   UNL     1     -34.253  -3.484 -14.197  1.00  0.00    -0.650 OA
BRANCH  11  13
HETATM   13  O   UNL     1     -34.959  -5.246 -12.981  1.00  0.00    -0.776 OA
HETATM   14  H   UNL     1     -34.586  -5.910 -12.374  1.00  0.00     0.167 HD
ENDBRANCH  11  13
ENDBRANCH  10  11
ENDBRANCH   9  10
ENDBRANCH   8   9
ENDBRANCH   1   8
TORSDOF 10
ENDMDL
MODEL 8
REMARK VINA RESULT:      -5.6     12.056     13.786
REMARK  10 active torsions:
REMARK  status: ('A' for Active; 'I' for Inactive)
REMARK    1  A    between atoms: C_2  and  C_3 
REMARK    2  A    between atoms: C_3  and  C_4 
REMARK    3  A    between atoms: C_4  and  C_5 
REMARK    4  A    between atoms: C_5  and  C_6 
REMARK    5  A    between atoms: C_6  and  C_7 
REMARK    6  A    between atoms: C_7  and  C_8 
REMARK    7  A    between atoms: C_8  and  C_9 
REMARK    8  A    between atoms: C_9  and  C_10 
REMARK    9  A    between atoms: C_10  and  C_11 
REMARK   10  A    between atoms: C_11  and  O_13 
ROOT
HETATM    1  C   UNL     1     -21.192  -3.907 -11.673  1.00  0.00     0.000 C 
ENDROOT
BRANCH   1   2
HETATM    2  C   UNL     1     -20.022  -4.024 -10.700  1.00  0.00     0.000 C 
BRANCH   2   3
HETATM    3  C   UNL     1     -20.467  -4.677  -9.393  1.00  0.00     0.000 C 
BRANCH   3   4
HETATM    4  C   UNL     1     -19.912  -3.921  -8.189  1.00  0.00     0.000 C 
BRANCH   4   5
HETATM    5  C   UNL     1     -20.894  -3.959  -7.021  1.00  0.00    -0.000 C 
BRANCH   5   6
HETATM    6  C   UNL     1     -20.274  -4.635  -5.801  1.00  0.00    -0.005 C 
HETATM    7  C   UNL     1     -20.928  -5.978  -5.530  1.00  0.00     0.005 C 
ENDBRANCH   5   6
ENDBRANCH   4   5
ENDBRANCH   3   4
ENDBRANCH   2   3
ENDBRANCH   1   2
BRANCH   1   8
HETATM    8  C   UNL     1     -22.291  -4.917 -11.344  1.00  0.00     0.001 C 
BRANCH   8   9
HETATM    9  C   UNL     1     -23.663  -4.337 -11.678  1.00  0.00     0.010 C 
BRANCH   9  10
HETATM   10  C   UNL     1     -23.946  -3.055 -10.904  1.00  0.00     0.110 C 
BRANCH  10  11
HETATM   11  C   UNL     1     -24.882  -3.308  -9.745  1.00  0.00     0.139 C 
HETATM   12  O   UNL     1     -26.099  -3.217  -9.785  1.00  0.00    -0.650 OA
BRANCH  11  13
HETATM   13  O   UNL     1     -24.222  -3.659  -8.618  1.00  0.00    -0.776 OA
HETATM   14  H   UNL     1     -24.785  -4.098  -7.955  1.00  0.00     0.167 HD
ENDBRANCH  11  13
ENDBRANCH  10  11
ENDBRANCH   9  10
ENDBRANCH   8   9
ENDBRANCH   1   8
TORSDOF 10
ENDMDL
MODEL 9
REMARK VINA RESULT:      -5.3     13.665     15.435
REMARK  10 active torsions:
REMARK  status: ('A' for Active; 'I' for Inactive)
REMARK    1  A    between atoms: C_2  and  C_3 
REMARK    2  A    between atoms: C_3  and  C_4 
REMARK    3  A    between atoms: C_4  and  C_5 
REMARK    4  A    between atoms: C_5  and  C_6 
REMARK    5  A    between atoms: C_6  and  C_7 
REMARK    6  A    between atoms: C_7  and  C_8 
REMARK    7  A    between atoms: C_8  and  C_9 
REMARK    8  A    between atoms: C_9  and  C_10 
REMARK    9  A    between atoms: C_10  and  C_11 
REMARK   10  A    between atoms: C_11  and  O_13 
ROOT
HETATM    1  C   UNL     1     -21.516  -5.724  -6.210  1.00  0.00     0.000 C 
ENDROOT
BRANCH   1   2
HETATM    2  C   UNL     1     -20.953  -5.780  -4.793  1.00  0.00     0.000 C 
BRANCH   2   3
HETATM    3  C   UNL     1     -21.882  -6.568  -3.872  1.00  0.00     0.000 C 
BRANCH   3   4
HETATM    4  C   UNL     1     -21.235  -6.792  -2.507  1.00  0.00     0.000 C 
BRANCH   4   5
HETATM    5  C   UNL     1     -22.267  -6.674  -1.389  1.00  0.00    -0.000 C 
BRANCH   5   6
HETATM    6  C   UNL     1     -21.943  -7.621  -0.237  1.00  0.00    -0.005 C 
HETATM    7  C   UNL     1     -23.211  -8.104   0.446  1.00  0.00     0.005 C 
ENDBRANCH   5   6
ENDBRANCH   4   5
ENDBRANCH   3   4
ENDBRANCH   2   3
ENDBRANCH   1   2
BRANCH   1   8
HETATM    8  C   UNL     1     -20.418  -5.432  -7.232  1.00  0.00     0.001 C 
BRANCH   8   9
HETATM    9  C   UNL     1     -20.955  -4.543  -8.351  1.00  0.00     0.010 C 
BRANCH   9  10
HETATM   10  C   UNL     1     -22.289  -3.904  -7.983  1.00  0.00     0.110 C 
BRANCH  10  11
HETATM   11  C   UNL     1     -23.329  -4.151  -9.051  1.00  0.00     0.139 C 
HETATM   12  O   UNL     1     -23.222  -4.947  -9.971  1.00  0.00    -0.650 OA
BRANCH  11  13
HETATM   13  O   UNL     1     -24.428  -3.380  -8.888  1.00  0.00    -0.776 OA
HETATM   14  H   UNL     1     -25.140  -3.814  -8.384  1.00  0.00     0.167 HD
ENDBRANCH  11  13
ENDBRANCH  10  11
ENDBRANCH   9  10
ENDBRANCH   8   9
ENDBRANCH   1   8
TORSDOF 10
ENDMDL
