MODEL 1
REMARK VINA RESULT:      -6.2      0.000      0.000
REMARK  1 active torsions:
REMARK  status: ('A' for Active; 'I' for Inactive)
REMARK    1  A    between atoms: C_5  and  C_8 
ROOT
HETATM    1  C   UNL     1     -20.131  -4.775  -5.581  1.00  0.00     0.043 C 
HETATM    2  C   UNL     1     -20.714  -4.548  -6.946  1.00  0.00    -0.087 C 
HETATM    3  C   UNL     1     -22.013  -4.262  -7.133  1.00  0.00    -0.024 C 
HETATM    4  C   UNL     1     -22.638  -4.046  -8.483  1.00  0.00     0.036 C 
HETATM    5  C   UNL     1     -21.748  -4.469  -9.675  1.00  0.00     0.017 C 
HETATM    6  C   UNL     1     -20.291  -4.054  -9.401  1.00  0.00     0.013 C 
HETATM    7  C   UNL     1     -19.751  -4.651  -8.099  1.00  0.00     0.034 C 
ENDROOT
BRANCH   5   8
HETATM    8  C   UNL     1     -22.319  -3.962 -11.003  1.00  0.00    -0.089 C 
HETATM    9  C   UNL     1     -21.854  -2.899 -11.683  1.00  0.00     0.014 C 
HETATM   10  C   UNL     1     -23.472  -4.738 -11.589  1.00  0.00     0.043 C 
ENDBRANCH   5   8
TORSDOF 1
ENDMDL
MODEL 2
REMARK VINA RESULT:      -6.2      0.471      1.650
REMARK  1 active torsions:
REMARK  status: ('A' for Active; 'I' for Inactive)
REMARK    1  A    between atoms: C_5  and  C_8 
ROOT
HETATM    1  C   UNL     1     -19.997  -4.752  -5.977  1.00  0.00     0.043 C 
HETATM    2  C   UNL     1     -20.613  -4.522  -7.327  1.00  0.00    -0.087 C 
HETATM    3  C   UNL     1     -19.907  -4.629  -8.465  1.00  0.00    -0.024 C 
HETATM    4  C   UNL     1     -20.482  -4.389  -9.834  1.00  0.00     0.036 C 
HETATM    5  C   UNL     1     -21.874  -3.716  -9.833  1.00  0.00     0.017 C 
HETATM    6  C   UNL     1     -22.735  -4.315  -8.707  1.00  0.00     0.013 C 
HETATM    7  C   UNL     1     -22.077  -4.171  -7.332  1.00  0.00     0.034 C 
ENDROOT
BRANCH   5   8
HETATM    8  C   UNL     1     -22.515  -3.764 -11.224  1.00  0.00    -0.089 C 
HETATM    9  C   UNL     1     -22.220  -2.927 -12.235  1.00  0.00     0.014 C 
HETATM   10  C   UNL     1     -23.531  -4.851 -11.469  1.00  0.00     0.043 C 
ENDBRANCH   5   8
TORSDOF 1
ENDMDL
MODEL 3
REMARK VINA RESULT:      -6.1      1.159      4.657
REMARK  1 active torsions:
REMARK  status: ('A' for Active; 'I' for Inactive)
REMARK    1  A    between atoms: C_5  and  C_8 
ROOT
HETATM    1  C   UNL     1     -23.767  -2.910 -12.829  1.00  0.00     0.043 C 
HETATM    2  C   UNL     1     -22.980  -3.313 -11.616  1.00  0.00    -0.087 C 
HETATM    3  C   UNL     1     -21.638  -3.384 -11.622  1.00  0.00    -0.024 C 
HETATM    4  C   UNL     1     -20.815  -3.801 -10.434  1.00  0.00     0.036 C 
HETATM    5  C   UNL     1     -21.630  -4.434  -9.283  1.00  0.00     0.017 C 
HETATM    6  C   UNL     1     -22.949  -3.662  -9.100  1.00  0.00     0.013 C 
HETATM    7  C   UNL     1     -23.784  -3.627 -10.383  1.00  0.00     0.034 C 
ENDROOT
BRANCH   5   8
HETATM    8  C   UNL     1     -20.784  -4.567  -8.012  1.00  0.00    -0.089 C 
HETATM    9  C   UNL     1     -19.455  -4.373  -7.951  1.00  0.00     0.014 C 
HETATM   10  C   UNL     1     -21.516  -4.919  -6.741  1.00  0.00     0.043 C 
ENDBRANCH   5   8
TORSDOF 1
ENDMDL
MODEL 4
REMARK VINA RESULT:      -6.0      1.429      2.520
REMARK  1 active torsions:
REMARK  status: ('A' for Active; 'I' for Inactive)
REMARK    1  A    between atoms: C_5  and  C_8 
ROOT
HETATM    1  C   UNL     1     -19.892  -4.826  -8.279  1.00  0.00     0.043 C 
HETATM    2  C   UNL     1     -20.826  -4.426  -9.384  1.00  0.00    -0.087 C 
HETATM    3  C   UNL     1     -22.157  -4.361  -9.210  1.00  0.00    -0.024 C 
HETATM    4  C   UNL     1     -23.127  -3.982 -10.296  1.00  0.00     0.036 C 
HETATM    5  C   UNL     1     -22.517  -3.959 -11.717  1.00  0.00     0.017 C 
HETATM    6  C   UNL     1     -21.108  -3.341 -11.663  1.00  0.00     0.013 C 
HETATM    7  C   UNL     1     -20.182  -4.090 -10.702  1.00  0.00     0.034 C 
ENDROOT
BRANCH   5   8
HETATM    8  C   UNL     1     -23.469  -3.296 -12.719  1.00  0.00    -0.089 C 
HETATM    9  C   UNL     1     -24.771  -3.045 -12.490  1.00  0.00     0.014 C 
HETATM   10  C   UNL     1     -22.882  -2.879 -14.043  1.00  0.00     0.043 C 
ENDBRANCH   5   8
TORSDOF 1
ENDMDL
MODEL 5
REMARK VINA RESULT:      -5.9      5.575      9.062
REMARK  1 active torsions:
REMARK  status: ('A' for Active; 'I' for Inactive)
REMARK    1  A    between atoms: C_5  and  C_8 
ROOT
HETATM    1  C   UNL     1     -21.017  -6.811  -5.245  1.00  0.00     0.043 C 
HETATM    2  C   UNL     1     -21.252  -7.151  -3.801  1.00  0.00    -0.087 C 
HETATM    3  C   UNL     1     -21.890  -6.317  -2.963  1.00  0.00    -0.024 C 
HETATM    4  C   UNL     1     -22.129  -6.612  -1.508  1.00  0.00     0.036 C 
HETATM    5  C   UNL     1     -21.330  -7.817  -0.961  1.00  0.00     0.017 C 
HETATM    6  C   UNL     1     -21.320  -8.947  -2.007  1.00  0.00     0.013 C 
HETATM    7  C   UNL     1     -20.739  -8.492  -3.348  1.00  0.00     0.034 C 
ENDROOT
BRANCH   5   8
HETATM    8  C   UNL     1     -21.831  -8.234   0.426  1.00  0.00    -0.089 C 
HETATM    9  C   UNL     1     -21.044  -8.654   1.433  1.00  0.00     0.014 C 
HETATM   10  C   UNL     1     -23.316  -8.136   0.672  1.00  0.00     0.043 C 
ENDBRANCH   5   8
TORSDOF 1
ENDMDL
MODEL 6
REMARK VINA RESULT:      -5.7      4.867      7.455
REMARK  1 active torsions:
REMARK  status: ('A' for Active; 'I' for Inactive)
REMARK    1  A    between atoms: C_5  and  C_8 
ROOT
HETATM    1  C   UNL     1     -22.229  -8.086   1.087  1.00  0.00     0.043 C 
HETATM    2  C   UNL     1     -21.872  -7.756  -0.334  1.00  0.00    -0.087 C 
HETATM    3  C   UNL     1     -22.330  -6.654  -0.951  1.00  0.00    -0.024 C 
HETATM    4  C   UNL     1     -22.010  -6.299  -2.377  1.00  0.00     0.036 C 
HETATM    5  C   UNL     1     -21.357  -7.441  -3.189  1.00  0.00     0.017 C 
HETATM    6  C   UNL     1     -20.332  -8.179  -2.309  1.00  0.00     0.013 C 
HETATM    7  C   UNL     1     -20.960  -8.732  -1.027  1.00  0.00     0.034 C 
ENDROOT
BRANCH   5   8
HETATM    8  C   UNL     1     -20.804  -6.928  -4.523  1.00  0.00    -0.089 C 
HETATM    9  C   UNL     1     -20.965  -5.677  -4.991  1.00  0.00     0.014 C 
HETATM   10  C   UNL     1     -20.001  -7.903  -5.348  1.00  0.00     0.043 C 
ENDBRANCH   5   8
TORSDOF 1
ENDMDL
MODEL 7
REMARK VINA RESULT:      -5.4      8.843     11.204
REMARK  1 active torsions:
REMARK  status: ('A' for Active; 'I' for Inactive)
REMARK    1  A    between atoms: C_5  and  C_8 
ROOT
HETATM    1  C   UNL     1     -23.163 -13.667   1.197  1.00  0.00     0.043 C 
HETATM    2  C   UNL     1     -22.775 -12.307   0.693  1.00  0.00    -0.087 C 
HETATM    3  C   UNL     1     -21.521 -11.835   0.795  1.00  0.00    -0.024 C 
HETATM    4  C   UNL     1     -21.098 -10.472   0.320  1.00  0.00     0.036 C 
HETATM    5  C   UNL     1     -22.269  -9.524  -0.028  1.00  0.00     0.017 C 
HETATM    6  C   UNL     1     -23.368 -10.312  -0.763  1.00  0.00     0.013 C 
HETATM    7  C   UNL     1     -23.876 -11.502   0.055  1.00  0.00     0.034 C 
ENDROOT
BRANCH   5   8
HETATM    8  C   UNL     1     -21.773  -8.277  -0.767  1.00  0.00    -0.089 C 
HETATM    9  C   UNL     1     -22.374  -7.074  -0.731  1.00  0.00     0.014 C 
HETATM   10  C   UNL     1     -20.504  -8.419  -1.569  1.00  0.00     0.043 C 
ENDBRANCH   5   8
TORSDOF 1
ENDMDL
MODEL 8
REMARK VINA RESULT:      -5.4      5.063      7.635
REMARK  1 active torsions:
REMARK  status: ('A' for Active; 'I' for Inactive)
REMARK    1  A    between atoms: C_5  and  C_8 
ROOT
HETATM    1  C   UNL     1     -23.059  -7.864   0.778  1.00  0.00     0.043 C 
HETATM    2  C   UNL     1     -22.434  -7.874  -0.587  1.00  0.00    -0.087 C 
HETATM    3  C   UNL     1     -22.112  -9.014  -1.220  1.00  0.00    -0.024 C 
HETATM    4  C   UNL     1     -21.469  -9.066  -2.579  1.00  0.00     0.036 C 
HETATM    5  C   UNL     1     -20.924  -7.708  -3.079  1.00  0.00     0.017 C 
HETATM    6  C   UNL     1     -21.917  -6.589  -2.716  1.00  0.00     0.013 C 
HETATM    7  C   UNL     1     -22.195  -6.525  -1.212  1.00  0.00     0.034 C 
ENDROOT
BRANCH   5   8
HETATM    8  C   UNL     1     -20.548  -7.774  -4.564  1.00  0.00    -0.089 C 
HETATM    9  C   UNL     1     -19.507  -8.464  -5.062  1.00  0.00     0.014 C 
HETATM   10  C   UNL     1     -21.435  -7.023  -5.525  1.00  0.00     0.043 C 
ENDBRANCH   5   8
TORSDOF 1
ENDMDL
MODEL 9
REMARK VINA RESULT:      -5.3      5.638      9.215
REMARK  1 active torsions:
REMARK  status: ('A' for Active; 'I' for Inactive)
REMARK    1  A    between atoms: C_5  and  C_8 
ROOT
HETATM    1  C   UNL     1     -21.244  -6.067  -4.912  1.00  0.00     0.043 C 
HETATM    2  C   UNL     1     -21.333  -6.789  -3.599  1.00  0.00    -0.087 C 
HETATM    3  C   UNL     1     -20.618  -7.897  -3.340  1.00  0.00    -0.024 C 
HETATM    4  C   UNL     1     -20.692  -8.659  -2.045  1.00  0.00     0.036 C 
HETATM    5  C   UNL     1     -21.873  -8.254  -1.133  1.00  0.00     0.017 C 
HETATM    6  C   UNL     1     -22.046  -6.725  -1.162  1.00  0.00     0.013 C 
HETATM    7  C   UNL     1     -22.267  -6.192  -2.580  1.00  0.00     0.034 C 
ENDROOT
BRANCH   5   8
HETATM    8  C   UNL     1     -21.723  -8.855   0.269  1.00  0.00    -0.089 C 
HETATM    9  C   UNL     1     -21.819  -8.159   1.416  1.00  0.00     0.014 C 
HETATM   10  C   UNL     1     -21.473 -10.340   0.352  1.00  0.00     0.043 C 
ENDBRANCH   5   8
TORSDOF 1
ENDMDL
