MODEL 1
REMARK VINA RESULT:      -2.7      0.000      0.000
REMARK  1 active torsions:
REMARK  status: ('A' for Active; 'I' for Inactive)
REMARK    1  A    between atoms: C_2  and  O_3 
ROOT
HETATM    1  C   UNL     1     -23.429  -2.383 -14.102  1.00  0.00     0.033 C 
HETATM    2  C   UNL     1     -23.663  -1.180 -14.991  1.00  0.00     0.159 C 
ENDROOT
BRANCH   2   3
HETATM    3  O   UNL     1     -24.901  -0.566 -14.664  1.00  0.00    -0.401 OA
HETATM    4  H   UNL     1     -25.557  -0.859 -15.319  1.00  0.00     0.209 HD
ENDBRANCH   2   3
TORSDOF 1
ENDMDL
MODEL 2
REMARK VINA RESULT:      -2.5     12.654     12.883
REMARK  1 active torsions:
REMARK  status: ('A' for Active; 'I' for Inactive)
REMARK    1  A    between atoms: C_2  and  O_3 
ROOT
HETATM    1  C   UNL     1     -34.281  -6.545 -10.509  1.00  0.00     0.033 C 
HETATM    2  C   UNL     1     -34.600  -7.964 -10.090  1.00  0.00     0.159 C 
ENDROOT
BRANCH   2   3
HETATM    3  O   UNL     1     -33.468  -8.798 -10.290  1.00  0.00    -0.401 OA
HETATM    4  H   UNL     1     -33.051  -8.531 -11.128  1.00  0.00     0.209 HD
ENDBRANCH   2   3
TORSDOF 1
ENDMDL
MODEL 3
REMARK VINA RESULT:      -2.5      4.544      4.961
REMARK  1 active torsions:
REMARK  status: ('A' for Active; 'I' for Inactive)
REMARK    1  A    between atoms: C_2  and  O_3 
ROOT
HETATM    1  C   UNL     1     -24.154  -3.225 -11.319  1.00  0.00     0.033 C 
HETATM    2  C   UNL     1     -24.557  -3.471  -9.880  1.00  0.00     0.159 C 
ENDROOT
BRANCH   2   3
HETATM    3  O   UNL     1     -25.946  -3.229  -9.715  1.00  0.00    -0.401 OA
HETATM    4  H   UNL     1     -26.356  -3.252 -10.598  1.00  0.00     0.209 HD
ENDBRANCH   2   3
TORSDOF 1
ENDMDL
MODEL 4
REMARK VINA RESULT:      -2.5     14.593     14.681
REMARK  1 active torsions:
REMARK  status: ('A' for Active; 'I' for Inactive)
REMARK    1  A    between atoms: C_2  and  O_3 
ROOT
HETATM    1  C   UNL     1     -28.785 -14.958 -17.970  1.00  0.00     0.033 C 
HETATM    2  C   UNL     1     -30.183 -14.548 -18.382  1.00  0.00     0.159 C 
ENDROOT
BRANCH   2   3
HETATM    3  O   UNL     1     -30.130 -13.382 -19.191  1.00  0.00    -0.401 OA
HETATM    4  H   UNL     1     -29.233 -13.323 -19.563  1.00  0.00     0.209 HD
ENDBRANCH   2   3
TORSDOF 1
ENDMDL
MODEL 5
REMARK VINA RESULT:      -2.4     16.482     16.631
REMARK  1 active torsions:
REMARK  status: ('A' for Active; 'I' for Inactive)
REMARK    1  A    between atoms: C_2  and  O_3 
ROOT
HETATM    1  C   UNL     1     -30.708 -14.775 -20.635  1.00  0.00     0.033 C 
HETATM    2  C   UNL     1     -31.428 -14.965 -21.953  1.00  0.00     0.159 C 
ENDROOT
BRANCH   2   3
HETATM    3  O   UNL     1     -31.835 -13.707 -22.472  1.00  0.00    -0.401 OA
HETATM    4  H   UNL     1     -32.475 -13.877 -23.185  1.00  0.00     0.209 HD
ENDBRANCH   2   3
TORSDOF 1
ENDMDL
MODEL 6
REMARK VINA RESULT:      -2.4     15.395     15.600
REMARK  1 active torsions:
REMARK  status: ('A' for Active; 'I' for Inactive)
REMARK    1  A    between atoms: C_2  and  O_3 
ROOT
HETATM    1  C   UNL     1     -30.897 -14.880 -21.057  1.00  0.00     0.033 C 
HETATM    2  C   UNL     1     -30.236 -14.832 -19.695  1.00  0.00     0.159 C 
ENDROOT
BRANCH   2   3
HETATM    3  O   UNL     1     -30.373 -13.535 -19.132  1.00  0.00    -0.401 OA
HETATM    4  H   UNL     1     -29.843 -13.511 -18.317  1.00  0.00     0.209 HD
ENDBRANCH   2   3
TORSDOF 1
ENDMDL
MODEL 7
REMARK VINA RESULT:      -2.4      2.238      2.463
REMARK  1 active torsions:
REMARK  status: ('A' for Active; 'I' for Inactive)
REMARK    1  A    between atoms: C_2  and  O_3 
ROOT
HETATM    1  C   UNL     1     -24.230  -2.996 -12.545  1.00  0.00     0.033 C 
HETATM    2  C   UNL     1     -23.313  -2.706 -13.714  1.00  0.00     0.159 C 
ENDROOT
BRANCH   2   3
HETATM    3  O   UNL     1     -23.618  -3.569 -14.800  1.00  0.00    -0.401 OA
HETATM    4  H   UNL     1     -23.485  -3.066 -15.622  1.00  0.00     0.209 HD
ENDBRANCH   2   3
TORSDOF 1
ENDMDL
MODEL 8
REMARK VINA RESULT:      -2.4      8.708      9.024
REMARK  1 active torsions:
REMARK  status: ('A' for Active; 'I' for Inactive)
REMARK    1  A    between atoms: C_2  and  O_3 
ROOT
HETATM    1  C   UNL     1     -26.699   7.159 -11.059  1.00  0.00     0.033 C 
HETATM    2  C   UNL     1     -25.430   6.427 -10.678  1.00  0.00     0.159 C 
ENDROOT
BRANCH   2   3
HETATM    3  O   UNL     1     -25.746   5.145 -10.154  1.00  0.00    -0.401 OA
HETATM    4  H   UNL     1     -26.290   4.684 -10.815  1.00  0.00     0.209 HD
ENDBRANCH   2   3
TORSDOF 1
ENDMDL
MODEL 9
REMARK VINA RESULT:      -2.4     15.128     15.310
REMARK  1 active torsions:
REMARK  status: ('A' for Active; 'I' for Inactive)
REMARK    1  A    between atoms: C_2  and  O_3 
ROOT
HETATM    1  C   UNL     1     -29.950 -14.293 -19.529  1.00  0.00     0.033 C 
HETATM    2  C   UNL     1     -29.686 -14.662 -20.974  1.00  0.00     0.159 C 
ENDROOT
BRANCH   2   3
HETATM    3  O   UNL     1     -28.870 -13.674 -21.587  1.00  0.00    -0.401 OA
HETATM    4  H   UNL     1     -29.456 -13.075 -22.081  1.00  0.00     0.209 HD
ENDBRANCH   2   3
TORSDOF 1
ENDMDL
