MODEL 1
REMARK VINA RESULT:      -3.9      0.000      0.000
REMARK  2 active torsions:
REMARK  status: ('A' for Active; 'I' for Inactive)
REMARK    1  A    between atoms: C_1  and  O_3 
REMARK    2  A    between atoms: C_1  and  O_4 
ROOT
HETATM    1  C   UNL     1     -23.842  -1.659 -14.740  1.00  0.00     0.329 C 
HETATM    2  O   UNL     1     -24.231  -2.214 -13.672  1.00  0.00    -0.624 OA
ENDROOT
BRANCH   1   3
HETATM    3  O   UNL     1     -24.494  -0.585 -15.101  1.00  0.00    -0.753 OA
HETATM    4  H   UNL     1     -25.099  -0.990 -15.752  1.00  0.00     0.170 HD
ENDBRANCH   1   3
BRANCH   1   5
HETATM    5  O   UNL     1     -22.828  -2.062 -15.368  1.00  0.00    -0.121 OA
HETATM    6 NA   UNL     2     -22.941  -0.326 -16.621  1.00  0.00     0.000 Na
ENDBRANCH   1   5
TORSDOF 2
ENDMDL
MODEL 2
REMARK VINA RESULT:      -3.9      5.640      5.891
REMARK  2 active torsions:
REMARK  status: ('A' for Active; 'I' for Inactive)
REMARK    1  A    between atoms: C_1  and  O_3 
REMARK    2  A    between atoms: C_1  and  O_4 
ROOT
HETATM    1  C   UNL     1     -25.433  -6.363 -15.920  1.00  0.00     0.329 C 
HETATM    2  O   UNL     1     -26.170  -5.961 -16.865  1.00  0.00    -0.624 OA
ENDROOT
BRANCH   1   3
HETATM    3  O   UNL     1     -24.607  -5.483 -15.419  1.00  0.00    -0.753 OA
HETATM    4  H   UNL     1     -24.076  -6.079 -14.857  1.00  0.00     0.170 HD
ENDBRANCH   1   3
BRANCH   1   5
HETATM    5  O   UNL     1     -25.552  -7.516 -15.426  1.00  0.00    -0.121 OA
HETATM    6 NA   UNL     2     -23.491  -7.898 -15.877  1.00  0.00     0.000 Na
ENDBRANCH   1   5
TORSDOF 2
ENDMDL
MODEL 3
REMARK VINA RESULT:      -3.9      5.572      5.888
REMARK  2 active torsions:
REMARK  status: ('A' for Active; 'I' for Inactive)
REMARK    1  A    between atoms: C_1  and  O_3 
REMARK    2  A    between atoms: C_1  and  O_4 
ROOT
HETATM    1  C   UNL     1     -25.243  -6.931 -15.779  1.00  0.00     0.329 C 
HETATM    2  O   UNL     1     -26.342  -7.444 -15.422  1.00  0.00    -0.624 OA
ENDROOT
BRANCH   1   3
HETATM    3  O   UNL     1     -24.284  -7.770 -16.071  1.00  0.00    -0.753 OA
HETATM    4  H   UNL     1     -24.473  -8.452 -15.398  1.00  0.00     0.170 HD
ENDBRANCH   1   3
BRANCH   1   5
HETATM    5  O   UNL     1     -25.107  -5.689 -15.934  1.00  0.00    -0.121 OA
HETATM    6 NA   UNL     2     -24.339  -5.545 -13.937  1.00  0.00     0.000 Na
ENDBRANCH   1   5
TORSDOF 2
ENDMDL
MODEL 4
REMARK VINA RESULT:      -3.9      1.559      2.036
REMARK  2 active torsions:
REMARK  status: ('A' for Active; 'I' for Inactive)
REMARK    1  A    between atoms: C_1  and  O_3 
REMARK    2  A    between atoms: C_1  and  O_4 
ROOT
HETATM    1  C   UNL     1     -23.481  -1.433 -15.103  1.00  0.00     0.329 C 
HETATM    2  O   UNL     1     -22.657  -2.343 -15.406  1.00  0.00    -0.624 OA
ENDROOT
BRANCH   1   3
HETATM    3  O   UNL     1     -23.396  -0.328 -15.795  1.00  0.00    -0.753 OA
HETATM    4  H   UNL     1     -22.565  -0.514 -16.273  1.00  0.00     0.170 HD
ENDBRANCH   1   3
BRANCH   1   5
HETATM    5  O   UNL     1     -24.390  -1.614 -14.251  1.00  0.00    -0.121 OA
HETATM    6 NA   UNL     2     -25.029   0.413 -14.534  1.00  0.00     0.000 Na
ENDBRANCH   1   5
TORSDOF 2
ENDMDL
MODEL 5
REMARK VINA RESULT:      -3.9      5.766      5.946
REMARK  2 active torsions:
REMARK  status: ('A' for Active; 'I' for Inactive)
REMARK    1  A    between atoms: C_1  and  O_3 
REMARK    2  A    between atoms: C_1  and  O_4 
ROOT
HETATM    1  C   UNL     1     -25.215  -6.601 -16.079  1.00  0.00     0.329 C 
HETATM    2  O   UNL     1     -25.792  -7.524 -15.437  1.00  0.00    -0.624 OA
ENDROOT
BRANCH   1   3
HETATM    3  O   UNL     1     -24.818  -5.573 -15.375  1.00  0.00    -0.753 OA
HETATM    4  H   UNL     1     -25.354  -5.725 -14.574  1.00  0.00     0.170 HD
ENDBRANCH   1   3
BRANCH   1   5
HETATM    5  O   UNL     1     -24.953  -6.705 -17.306  1.00  0.00    -0.121 OA
HETATM    6 NA   UNL     2     -23.359  -8.059 -16.829  1.00  0.00     0.000 Na
ENDBRANCH   1   5
TORSDOF 2
ENDMDL
MODEL 6
REMARK VINA RESULT:      -3.8      1.718      2.628
REMARK  2 active torsions:
REMARK  status: ('A' for Active; 'I' for Inactive)
REMARK    1  A    between atoms: C_1  and  O_3 
REMARK    2  A    between atoms: C_1  and  O_4 
ROOT
HETATM    1  C   UNL     1     -23.066  -2.751 -14.238  1.00  0.00     0.329 C 
HETATM    2  O   UNL     1     -22.705  -2.410 -15.401  1.00  0.00    -0.624 OA
ENDROOT
BRANCH   1   3
HETATM    3  O   UNL     1     -22.160  -3.345 -13.506  1.00  0.00    -0.753 OA
HETATM    4  H   UNL     1     -21.430  -2.707 -13.626  1.00  0.00     0.170 HD
ENDBRANCH   1   3
BRANCH   1   5
HETATM    5  O   UNL     1     -24.199  -2.453 -13.778  1.00  0.00    -0.121 OA
HETATM    6 NA   UNL     2     -23.769  -0.380 -14.117  1.00  0.00     0.000 Na
ENDBRANCH   1   5
TORSDOF 2
ENDMDL
MODEL 7
REMARK VINA RESULT:      -3.8      1.884      2.335
REMARK  2 active torsions:
REMARK  status: ('A' for Active; 'I' for Inactive)
REMARK    1  A    between atoms: C_1  and  O_3 
REMARK    2  A    between atoms: C_1  and  O_4 
ROOT
HETATM    1  C   UNL     1     -23.988  -1.609 -14.532  1.00  0.00     0.329 C 
HETATM    2  O   UNL     1     -23.047  -1.823 -15.348  1.00  0.00    -0.624 OA
ENDROOT
BRANCH   1   3
HETATM    3  O   UNL     1     -24.742  -0.571 -14.782  1.00  0.00    -0.753 OA
HETATM    4  H   UNL     1     -24.633  -0.538 -15.752  1.00  0.00     0.170 HD
ENDBRANCH   1   3
BRANCH   1   5
HETATM    5  O   UNL     1     -24.244  -2.401 -13.587  1.00  0.00    -0.121 OA
HETATM    6 NA   UNL     2     -23.463  -4.018 -14.760  1.00  0.00     0.000 Na
ENDBRANCH   1   5
TORSDOF 2
ENDMDL
MODEL 8
REMARK VINA RESULT:      -3.7     14.283     14.500
REMARK  2 active torsions:
REMARK  status: ('A' for Active; 'I' for Inactive)
REMARK    1  A    between atoms: C_1  and  O_3 
REMARK    2  A    between atoms: C_1  and  O_4 
ROOT
HETATM    1  C   UNL     1     -29.739 -14.178 -18.771  1.00  0.00     0.329 C 
HETATM    2  O   UNL     1     -29.186 -13.065 -19.003  1.00  0.00    -0.624 OA
ENDROOT
BRANCH   1   3
HETATM    3  O   UNL     1     -31.037 -14.217 -18.925  1.00  0.00    -0.753 OA
HETATM    4  H   UNL     1     -31.300 -14.142 -17.987  1.00  0.00     0.170 HD
ENDBRANCH   1   3
BRANCH   1   5
HETATM    5  O   UNL     1     -29.072 -15.210 -18.500  1.00  0.00    -0.121 OA
HETATM    6 NA   UNL     2     -27.454 -13.966 -17.841  1.00  0.00     0.000 Na
ENDBRANCH   1   5
TORSDOF 2
ENDMDL
MODEL 9
REMARK VINA RESULT:      -3.7     16.018     16.161
REMARK  2 active torsions:
REMARK  status: ('A' for Active; 'I' for Inactive)
REMARK    1  A    between atoms: C_1  and  O_3 
REMARK    2  A    between atoms: C_1  and  O_4 
ROOT
HETATM    1  C   UNL     1     -30.418 -14.528 -19.951  1.00  0.00     0.329 C 
HETATM    2  O   UNL     1     -30.460 -13.614 -19.080  1.00  0.00    -0.624 OA
ENDROOT
BRANCH   1   3
HETATM    3  O   UNL     1     -31.033 -14.278 -21.077  1.00  0.00    -0.753 OA
HETATM    4  H   UNL     1     -31.897 -13.999 -20.716  1.00  0.00     0.170 HD
ENDBRANCH   1   3
BRANCH   1   5
HETATM    5  O   UNL     1     -29.745 -15.579 -19.783  1.00  0.00    -0.121 OA
HETATM    6 NA   UNL     2     -31.415 -16.733 -20.474  1.00  0.00     0.000 Na
ENDBRANCH   1   5
TORSDOF 2
ENDMDL
