MODEL 1
REMARK VINA RESULT:      -6.7      0.000      0.000
REMARK  15 active torsions:
REMARK  status: ('A' for Active; 'I' for Inactive)
REMARK    1  A    between atoms: C_2  and  C_3 
REMARK    2  A    between atoms: C_3  and  C_4 
REMARK    3  A    between atoms: C_4  and  C_5 
REMARK    4  A    between atoms: C_5  and  C_6 
REMARK    5  A    between atoms: C_6  and  C_7 
REMARK    6  A    between atoms: C_7  and  C_8 
REMARK    7  A    between atoms: C_8  and  C_9 
REMARK    8  A    between atoms: C_9  and  C_10 
REMARK    9  A    between atoms: C_10  and  C_11 
REMARK   10  A    between atoms: C_11  and  C_12 
REMARK   11  A    between atoms: C_12  and  C_13 
REMARK   12  A    between atoms: C_13  and  C_14 
REMARK   13  A    between atoms: C_14  and  N_15 
REMARK   14  A    between atoms: N_15  and  C_18 
REMARK   15  A    between atoms: C_18  and  C_19 
ROOT
HETATM    1  C   UNL     1     -20.530  -4.624  -7.347  1.00  0.00     0.000 C 
ENDROOT
BRANCH   1   2
HETATM    2  C   UNL     1     -20.574  -5.275  -5.965  1.00  0.00     0.000 C 
BRANCH   2   3
HETATM    3  C   UNL     1     -20.977  -6.737  -6.023  1.00  0.00     0.000 C 
BRANCH   3   4
HETATM    4  C   UNL     1     -21.650  -7.121  -4.712  1.00  0.00     0.000 C 
BRANCH   4   5
HETATM    5  C   UNL     1     -21.416  -6.053  -3.661  1.00  0.00     0.000 C 
BRANCH   5   6
HETATM    6  C   UNL     1     -21.647  -6.616  -2.265  1.00  0.00     0.000 C 
BRANCH   6   7
HETATM    7  C   UNL     1     -20.696  -7.775  -2.007  1.00  0.00     0.000 C 
BRANCH   7   8
HETATM    8  C   UNL     1     -21.118  -8.555  -0.769  1.00  0.00     0.000 C 
BRANCH   8   9
HETATM    9  C   UNL     1     -22.020  -7.698   0.113  1.00  0.00    -0.000 C 
BRANCH   9  10
HETATM   10  C   UNL     1     -23.322  -8.424   0.432  1.00  0.00    -0.005 C 
HETATM   11  C   UNL     1     -23.305  -9.836  -0.130  1.00  0.00     0.005 C 
ENDBRANCH   9  10
ENDBRANCH   8   9
ENDBRANCH   7   8
ENDBRANCH   6   7
ENDBRANCH   5   6
ENDBRANCH   4   5
ENDBRANCH   3   4
ENDBRANCH   2   3
ENDBRANCH   1   2
BRANCH   1  12
HETATM   12  C   UNL     1     -21.772  -3.763  -7.614  1.00  0.00     0.002 C 
BRANCH  12  13
HETATM   13  C   UNL     1     -22.630  -4.389  -8.712  1.00  0.00     0.028 C 
BRANCH  13  14
HETATM   14  C   UNL     1     -23.092  -3.406  -9.780  1.00  0.00     0.237 C 
BRANCH  14  15
HETATM   15  N   UNL     1     -22.623  -3.872 -11.180  1.00  0.00    -0.065 N 
HETATM   16  C   UNL     1     -21.144  -4.154 -11.261  1.00  0.00     0.272 C 
HETATM   17  C   UNL     1     -23.438  -5.073 -11.647  1.00  0.00     0.272 C 
BRANCH  15  18
HETATM   18  C   UNL     1     -22.943  -2.677 -12.183  1.00  0.00     0.349 C 
BRANCH  18  19
HETATM   19  C   UNL     1     -24.130  -2.886 -13.158  1.00  0.00     0.199 C 
HETATM   20  O   UNL     1     -25.266  -2.839 -12.606  1.00  0.00    -0.647 OA
HETATM   21  O   UNL     1     -23.793  -3.220 -14.327  1.00  0.00    -0.647 OA
ENDBRANCH  18  19
ENDBRANCH  15  18
ENDBRANCH  14  15
ENDBRANCH  13  14
ENDBRANCH  12  13
ENDBRANCH   1  12
TORSDOF 15
ENDMDL
MODEL 2
REMARK VINA RESULT:      -6.1      1.330      2.415
REMARK  15 active torsions:
REMARK  status: ('A' for Active; 'I' for Inactive)
REMARK    1  A    between atoms: C_2  and  C_3 
REMARK    2  A    between atoms: C_3  and  C_4 
REMARK    3  A    between atoms: C_4  and  C_5 
REMARK    4  A    between atoms: C_5  and  C_6 
REMARK    5  A    between atoms: C_6  and  C_7 
REMARK    6  A    between atoms: C_7  and  C_8 
REMARK    7  A    between atoms: C_8  and  C_9 
REMARK    8  A    between atoms: C_9  and  C_10 
REMARK    9  A    between atoms: C_10  and  C_11 
REMARK   10  A    between atoms: C_11  and  C_12 
REMARK   11  A    between atoms: C_12  and  C_13 
REMARK   12  A    between atoms: C_13  and  C_14 
REMARK   13  A    between atoms: C_14  and  N_15 
REMARK   14  A    between atoms: N_15  and  C_18 
REMARK   15  A    between atoms: C_18  and  C_19 
ROOT
HETATM    1  C   UNL     1     -20.641  -4.484  -6.262  1.00  0.00     0.000 C 
ENDROOT
BRANCH   1   2
HETATM    2  C   UNL     1     -20.525  -5.920  -6.771  1.00  0.00     0.000 C 
BRANCH   2   3
HETATM    3  C   UNL     1     -20.975  -6.940  -5.741  1.00  0.00     0.000 C 
BRANCH   3   4
HETATM    4  C   UNL     1     -20.919  -6.307  -4.357  1.00  0.00     0.000 C 
BRANCH   4   5
HETATM    5  C   UNL     1     -22.252  -6.456  -3.649  1.00  0.00     0.000 C 
BRANCH   5   6
HETATM    6  C   UNL     1     -22.047  -6.612  -2.149  1.00  0.00     0.000 C 
BRANCH   6   7
HETATM    7  C   UNL     1     -20.728  -7.317  -1.874  1.00  0.00     0.000 C 
BRANCH   7   8
HETATM    8  C   UNL     1     -20.951  -8.803  -1.626  1.00  0.00     0.000 C 
BRANCH   8   9
HETATM    9  C   UNL     1     -19.727  -9.602  -2.062  1.00  0.00    -0.000 C 
BRANCH   9  10
HETATM   10  C   UNL     1     -19.630  -9.665  -3.582  1.00  0.00    -0.005 C 
HETATM   11  C   UNL     1     -18.183  -9.574  -4.036  1.00  0.00     0.005 C 
ENDBRANCH   9  10
ENDBRANCH   8   9
ENDBRANCH   7   8
ENDBRANCH   6   7
ENDBRANCH   5   6
ENDBRANCH   4   5
ENDBRANCH   3   4
ENDBRANCH   2   3
ENDBRANCH   1   2
BRANCH   1  12
HETATM   12  C   UNL     1     -21.142  -3.528  -7.353  1.00  0.00     0.002 C 
BRANCH  12  13
HETATM   13  C   UNL     1     -22.090  -4.254  -8.306  1.00  0.00     0.028 C 
BRANCH  13  14
HETATM   14  C   UNL     1     -21.938  -3.849  -9.767  1.00  0.00     0.237 C 
BRANCH  14  15
HETATM   15  N   UNL     1     -23.311  -3.879 -10.480  1.00  0.00    -0.065 N 
HETATM   16  C   UNL     1     -23.657  -5.221 -11.073  1.00  0.00     0.272 C 
HETATM   17  C   UNL     1     -24.413  -3.392  -9.544  1.00  0.00     0.272 C 
BRANCH  15  18
HETATM   18  C   UNL     1     -23.222  -2.830 -11.675  1.00  0.00     0.349 C 
BRANCH  18  19
HETATM   19  C   UNL     1     -24.209  -3.031 -12.853  1.00  0.00     0.199 C 
HETATM   20  O   UNL     1     -23.651  -3.286 -13.957  1.00  0.00    -0.647 OA
HETATM   21  O   UNL     1     -25.412  -2.766 -12.577  1.00  0.00    -0.647 OA
ENDBRANCH  18  19
ENDBRANCH  15  18
ENDBRANCH  14  15
ENDBRANCH  13  14
ENDBRANCH  12  13
ENDBRANCH   1  12
TORSDOF 15
ENDMDL
MODEL 3
REMARK VINA RESULT:      -6.0      5.154     10.170
REMARK  15 active torsions:
REMARK  status: ('A' for Active; 'I' for Inactive)
REMARK    1  A    between atoms: C_2  and  C_3 
REMARK    2  A    between atoms: C_3  and  C_4 
REMARK    3  A    between atoms: C_4  and  C_5 
REMARK    4  A    between atoms: C_5  and  C_6 
REMARK    5  A    between atoms: C_6  and  C_7 
REMARK    6  A    between atoms: C_7  and  C_8 
REMARK    7  A    between atoms: C_8  and  C_9 
REMARK    8  A    between atoms: C_9  and  C_10 
REMARK    9  A    between atoms: C_10  and  C_11 
REMARK   10  A    between atoms: C_11  and  C_12 
REMARK   11  A    between atoms: C_12  and  C_13 
REMARK   12  A    between atoms: C_13  and  C_14 
REMARK   13  A    between atoms: C_14  and  N_15 
REMARK   14  A    between atoms: N_15  and  C_18 
REMARK   15  A    between atoms: C_18  and  C_19 
ROOT
HETATM    1  C   UNL     1     -21.534  -6.627  -5.197  1.00  0.00     0.000 C 
ENDROOT
BRANCH   1   2
HETATM    2  C   UNL     1     -20.206  -6.502  -5.943  1.00  0.00     0.000 C 
BRANCH   2   3
HETATM    3  C   UNL     1     -19.996  -5.118  -6.529  1.00  0.00     0.000 C 
BRANCH   3   4
HETATM    4  C   UNL     1     -20.811  -4.992  -7.811  1.00  0.00     0.000 C 
BRANCH   4   5
HETATM    5  C   UNL     1     -21.760  -3.812  -7.724  1.00  0.00     0.000 C 
BRANCH   5   6
HETATM    6  C   UNL     1     -23.203  -4.274  -7.868  1.00  0.00     0.000 C 
BRANCH   6   7
HETATM    7  C   UNL     1     -23.792  -3.746  -9.167  1.00  0.00     0.000 C 
BRANCH   7   8
HETATM    8  C   UNL     1     -23.575  -4.739 -10.301  1.00  0.00     0.000 C 
BRANCH   8   9
HETATM    9  C   UNL     1     -22.923  -4.046 -11.493  1.00  0.00    -0.000 C 
BRANCH   9  10
HETATM   10  C   UNL     1     -21.436  -4.377 -11.569  1.00  0.00    -0.005 C 
HETATM   11  C   UNL     1     -20.594  -3.179 -11.164  1.00  0.00     0.005 C 
ENDBRANCH   9  10
ENDBRANCH   8   9
ENDBRANCH   7   8
ENDBRANCH   6   7
ENDBRANCH   5   6
ENDBRANCH   4   5
ENDBRANCH   3   4
ENDBRANCH   2   3
ENDBRANCH   1   2
BRANCH   1  12
HETATM   12  C   UNL     1     -21.327  -6.853  -3.694  1.00  0.00     0.002 C 
BRANCH  12  13
HETATM   13  C   UNL     1     -21.276  -8.346  -3.379  1.00  0.00     0.028 C 
BRANCH  13  14
HETATM   14  C   UNL     1     -20.669  -8.678  -2.021  1.00  0.00     0.237 C 
BRANCH  14  15
HETATM   15  N   UNL     1     -21.410  -9.875  -1.378  1.00  0.00    -0.065 N 
HETATM   16  C   UNL     1     -22.014 -10.824  -2.382  1.00  0.00     0.272 C 
HETATM   17  C   UNL     1     -20.496 -10.613  -0.406  1.00  0.00     0.272 C 
BRANCH  15  18
HETATM   18  C   UNL     1     -22.600  -9.259  -0.518  1.00  0.00     0.349 C 
BRANCH  18  19
HETATM   19  C   UNL     1     -22.354  -7.864   0.111  1.00  0.00     0.199 C 
HETATM   20  O   UNL     1     -21.804  -7.899   1.247  1.00  0.00    -0.647 OA
HETATM   21  O   UNL     1     -22.870  -6.906  -0.528  1.00  0.00    -0.647 OA
ENDBRANCH  18  19
ENDBRANCH  15  18
ENDBRANCH  14  15
ENDBRANCH  13  14
ENDBRANCH  12  13
ENDBRANCH   1  12
TORSDOF 15
ENDMDL
MODEL 4
REMARK VINA RESULT:      -6.0      5.156     10.048
REMARK  15 active torsions:
REMARK  status: ('A' for Active; 'I' for Inactive)
REMARK    1  A    between atoms: C_2  and  C_3 
REMARK    2  A    between atoms: C_3  and  C_4 
REMARK    3  A    between atoms: C_4  and  C_5 
REMARK    4  A    between atoms: C_5  and  C_6 
REMARK    5  A    between atoms: C_6  and  C_7 
REMARK    6  A    between atoms: C_7  and  C_8 
REMARK    7  A    between atoms: C_8  and  C_9 
REMARK    8  A    between atoms: C_9  and  C_10 
REMARK    9  A    between atoms: C_10  and  C_11 
REMARK   10  A    between atoms: C_11  and  C_12 
REMARK   11  A    between atoms: C_12  and  C_13 
REMARK   12  A    between atoms: C_13  and  C_14 
REMARK   13  A    between atoms: C_14  and  N_15 
REMARK   14  A    between atoms: N_15  and  C_18 
REMARK   15  A    between atoms: C_18  and  C_19 
ROOT
HETATM    1  C   UNL     1     -20.682  -8.955  -4.571  1.00  0.00     0.000 C 
ENDROOT
BRANCH   1   2
HETATM    2  C   UNL     1     -21.398  -7.638  -4.271  1.00  0.00     0.000 C 
BRANCH   2   3
HETATM    3  C   UNL     1     -21.661  -6.821  -5.523  1.00  0.00     0.000 C 
BRANCH   3   4
HETATM    4  C   UNL     1     -20.341  -6.260  -6.037  1.00  0.00     0.000 C 
BRANCH   4   5
HETATM    5  C   UNL     1     -20.260  -4.768  -5.778  1.00  0.00     0.000 C 
BRANCH   5   6
HETATM    6  C   UNL     1     -20.714  -3.986  -7.003  1.00  0.00     0.000 C 
BRANCH   6   7
HETATM    7  C   UNL     1     -19.715  -4.167  -8.136  1.00  0.00     0.000 C 
BRANCH   7   8
HETATM    8  C   UNL     1     -20.422  -4.174  -9.484  1.00  0.00     0.000 C 
BRANCH   8   9
HETATM    9  C   UNL     1     -21.923  -4.363  -9.292  1.00  0.00    -0.000 C 
BRANCH   9  10
HETATM   10  C   UNL     1     -22.636  -4.463 -10.637  1.00  0.00    -0.005 C 
HETATM   11  C   UNL     1     -21.704  -4.080 -11.773  1.00  0.00     0.005 C 
ENDBRANCH   9  10
ENDBRANCH   8   9
ENDBRANCH   7   8
ENDBRANCH   6   7
ENDBRANCH   5   6
ENDBRANCH   4   5
ENDBRANCH   3   4
ENDBRANCH   2   3
ENDBRANCH   1   2
BRANCH   1  12
HETATM   12  C   UNL     1     -19.297  -9.015  -3.914  1.00  0.00     0.002 C 
BRANCH  12  13
HETATM   13  C   UNL     1     -19.426  -9.025  -2.392  1.00  0.00     0.028 C 
BRANCH  13  14
HETATM   14  C   UNL     1     -20.064 -10.289  -1.828  1.00  0.00     0.237 C 
BRANCH  14  15
HETATM   15  N   UNL     1     -21.180  -9.925  -0.819  1.00  0.00    -0.065 N 
HETATM   16  C   UNL     1     -22.571 -10.196  -1.331  1.00  0.00     0.272 C 
HETATM   17  C   UNL     1     -20.942 -10.618   0.518  1.00  0.00     0.272 C 
BRANCH  15  18
HETATM   18  C   UNL     1     -21.057  -8.359  -0.557  1.00  0.00     0.349 C 
BRANCH  18  19
HETATM   19  C   UNL     1     -22.360  -7.613  -0.172  1.00  0.00     0.199 C 
HETATM   20  O   UNL     1     -22.718  -6.734  -1.007  1.00  0.00    -0.647 OA
HETATM   21  O   UNL     1     -22.795  -7.882   0.981  1.00  0.00    -0.647 OA
ENDBRANCH  18  19
ENDBRANCH  15  18
ENDBRANCH  14  15
ENDBRANCH  13  14
ENDBRANCH  12  13
ENDBRANCH   1  12
TORSDOF 15
ENDMDL
MODEL 5
REMARK VINA RESULT:      -6.0      5.014     10.338
REMARK  15 active torsions:
REMARK  status: ('A' for Active; 'I' for Inactive)
REMARK    1  A    between atoms: C_2  and  C_3 
REMARK    2  A    between atoms: C_3  and  C_4 
REMARK    3  A    between atoms: C_4  and  C_5 
REMARK    4  A    between atoms: C_5  and  C_6 
REMARK    5  A    between atoms: C_6  and  C_7 
REMARK    6  A    between atoms: C_7  and  C_8 
REMARK    7  A    between atoms: C_8  and  C_9 
REMARK    8  A    between atoms: C_9  and  C_10 
REMARK    9  A    between atoms: C_10  and  C_11 
REMARK   10  A    between atoms: C_11  and  C_12 
REMARK   11  A    between atoms: C_12  and  C_13 
REMARK   12  A    between atoms: C_13  and  C_14 
REMARK   13  A    between atoms: C_14  and  N_15 
REMARK   14  A    between atoms: N_15  and  C_18 
REMARK   15  A    between atoms: C_18  and  C_19 
ROOT
HETATM    1  C   UNL     1     -20.901  -6.387  -4.709  1.00  0.00     0.000 C 
ENDROOT
BRANCH   1   2
HETATM    2  C   UNL     1     -20.540  -5.671  -6.011  1.00  0.00     0.000 C 
BRANCH   2   3
HETATM    3  C   UNL     1     -21.731  -4.970  -6.638  1.00  0.00     0.000 C 
BRANCH   3   4
HETATM    4  C   UNL     1     -21.257  -3.688  -7.310  1.00  0.00     0.000 C 
BRANCH   4   5
HETATM    5  C   UNL     1     -20.171  -3.990  -8.325  1.00  0.00     0.000 C 
BRANCH   5   6
HETATM    6  C   UNL     1     -20.778  -4.518  -9.617  1.00  0.00     0.000 C 
BRANCH   6   7
HETATM    7  C   UNL     1     -20.341  -3.653 -10.790  1.00  0.00     0.000 C 
BRANCH   7   8
HETATM    8  C   UNL     1     -21.546  -3.010 -11.465  1.00  0.00     0.000 C 
BRANCH   8   9
HETATM    9  C   UNL     1     -22.838  -3.523 -10.839  1.00  0.00    -0.000 C 
BRANCH   9  10
HETATM   10  C   UNL     1     -24.051  -3.076 -11.648  1.00  0.00    -0.005 C 
HETATM   11  C   UNL     1     -24.094  -3.782 -12.992  1.00  0.00     0.005 C 
ENDBRANCH   9  10
ENDBRANCH   8   9
ENDBRANCH   7   8
ENDBRANCH   6   7
ENDBRANCH   5   6
ENDBRANCH   4   5
ENDBRANCH   3   4
ENDBRANCH   2   3
ENDBRANCH   1   2
BRANCH   1  12
HETATM   12  C   UNL     1     -20.661  -7.900  -4.803  1.00  0.00     0.002 C 
BRANCH  12  13
HETATM   13  C   UNL     1     -21.274  -8.614  -3.600  1.00  0.00     0.028 C 
BRANCH  13  14
HETATM   14  C   UNL     1     -20.297  -8.868  -2.459  1.00  0.00     0.237 C 
BRANCH  14  15
HETATM   15  N   UNL     1     -21.022  -9.542  -1.269  1.00  0.00    -0.065 N 
HETATM   16  C   UNL     1     -22.379 -10.096  -1.621  1.00  0.00     0.272 C 
HETATM   17  C   UNL     1     -20.138 -10.613  -0.639  1.00  0.00     0.272 C 
BRANCH  15  18
HETATM   18  C   UNL     1     -21.231  -8.410  -0.170  1.00  0.00     0.349 C 
BRANCH  18  19
HETATM   19  C   UNL     1     -22.596  -7.673  -0.180  1.00  0.00     0.199 C 
HETATM   20  O   UNL     1     -22.656  -6.710  -0.994  1.00  0.00    -0.647 OA
HETATM   21  O   UNL     1     -23.394  -8.042   0.725  1.00  0.00    -0.647 OA
ENDBRANCH  18  19
ENDBRANCH  15  18
ENDBRANCH  14  15
ENDBRANCH  13  14
ENDBRANCH  12  13
ENDBRANCH   1  12
TORSDOF 15
ENDMDL
MODEL 6
REMARK VINA RESULT:      -5.7      5.686     10.625
REMARK  15 active torsions:
REMARK  status: ('A' for Active; 'I' for Inactive)
REMARK    1  A    between atoms: C_2  and  C_3 
REMARK    2  A    between atoms: C_3  and  C_4 
REMARK    3  A    between atoms: C_4  and  C_5 
REMARK    4  A    between atoms: C_5  and  C_6 
REMARK    5  A    between atoms: C_6  and  C_7 
REMARK    6  A    between atoms: C_7  and  C_8 
REMARK    7  A    between atoms: C_8  and  C_9 
REMARK    8  A    between atoms: C_9  and  C_10 
REMARK    9  A    between atoms: C_10  and  C_11 
REMARK   10  A    between atoms: C_11  and  C_12 
REMARK   11  A    between atoms: C_12  and  C_13 
REMARK   12  A    between atoms: C_13  and  C_14 
REMARK   13  A    between atoms: C_14  and  N_15 
REMARK   14  A    between atoms: N_15  and  C_18 
REMARK   15  A    between atoms: C_18  and  C_19 
ROOT
HETATM    1  C   UNL     1     -21.228  -6.756  -2.213  1.00  0.00     0.000 C 
ENDROOT
BRANCH   1   2
HETATM    2  C   UNL     1     -21.845  -6.456  -3.579  1.00  0.00     0.000 C 
BRANCH   2   3
HETATM    3  C   UNL     1     -21.370  -7.417  -4.654  1.00  0.00     0.000 C 
BRANCH   3   4
HETATM    4  C   UNL     1     -21.402  -6.709  -6.003  1.00  0.00     0.000 C 
BRANCH   4   5
HETATM    5  C   UNL     1     -20.125  -5.920  -6.220  1.00  0.00     0.000 C 
BRANCH   5   6
HETATM    6  C   UNL     1     -20.441  -4.461  -6.518  1.00  0.00     0.000 C 
BRANCH   6   7
HETATM    7  C   UNL     1     -21.685  -4.365  -7.388  1.00  0.00     0.000 C 
BRANCH   7   8
HETATM    8  C   UNL     1     -21.347  -4.641  -8.847  1.00  0.00     0.000 C 
BRANCH   8   9
HETATM    9  C   UNL     1     -22.531  -4.285  -9.740  1.00  0.00    -0.000 C 
BRANCH   9  10
HETATM   10  C   UNL     1     -22.103  -3.351 -10.867  1.00  0.00    -0.005 C 
HETATM   11  C   UNL     1     -20.612  -3.469 -11.130  1.00  0.00     0.005 C 
ENDBRANCH   9  10
ENDBRANCH   8   9
ENDBRANCH   7   8
ENDBRANCH   6   7
ENDBRANCH   5   6
ENDBRANCH   4   5
ENDBRANCH   3   4
ENDBRANCH   2   3
ENDBRANCH   1   2
BRANCH   1  12
HETATM   12  C   UNL     1     -22.294  -6.856  -1.113  1.00  0.00     0.002 C 
BRANCH  12  13
HETATM   13  C   UNL     1     -21.881  -7.881  -0.059  1.00  0.00     0.028 C 
BRANCH  13  14
HETATM   14  C   UNL     1     -22.468  -9.270  -0.275  1.00  0.00     0.237 C 
BRANCH  14  15
HETATM   15  N   UNL     1     -21.338 -10.326  -0.352  1.00  0.00    -0.065 N 
HETATM   16  C   UNL     1     -20.289 -10.017  -1.389  1.00  0.00     0.272 C 
HETATM   17  C   UNL     1     -20.708 -10.538   1.021  1.00  0.00     0.272 C 
BRANCH  15  18
HETATM   18  C   UNL     1     -22.032 -11.700  -0.759  1.00  0.00     0.349 C 
BRANCH  18  19
HETATM   19  C   UNL     1     -23.488 -11.916  -0.272  1.00  0.00     0.199 C 
HETATM   20  O   UNL     1     -23.576 -12.462   0.864  1.00  0.00    -0.647 OA
HETATM   21  O   UNL     1     -24.371 -11.657  -1.134  1.00  0.00    -0.647 OA
ENDBRANCH  18  19
ENDBRANCH  15  18
ENDBRANCH  14  15
ENDBRANCH  13  14
ENDBRANCH  12  13
ENDBRANCH   1  12
TORSDOF 15
ENDMDL
MODEL 7
REMARK VINA RESULT:      -5.7      1.546      2.192
REMARK  15 active torsions:
REMARK  status: ('A' for Active; 'I' for Inactive)
REMARK    1  A    between atoms: C_2  and  C_3 
REMARK    2  A    between atoms: C_3  and  C_4 
REMARK    3  A    between atoms: C_4  and  C_5 
REMARK    4  A    between atoms: C_5  and  C_6 
REMARK    5  A    between atoms: C_6  and  C_7 
REMARK    6  A    between atoms: C_7  and  C_8 
REMARK    7  A    between atoms: C_8  and  C_9 
REMARK    8  A    between atoms: C_9  and  C_10 
REMARK    9  A    between atoms: C_10  and  C_11 
REMARK   10  A    between atoms: C_11  and  C_12 
REMARK   11  A    between atoms: C_12  and  C_13 
REMARK   12  A    between atoms: C_13  and  C_14 
REMARK   13  A    between atoms: C_14  and  N_15 
REMARK   14  A    between atoms: N_15  and  C_18 
REMARK   15  A    between atoms: C_18  and  C_19 
ROOT
HETATM    1  C   UNL     1     -20.655  -4.649  -6.358  1.00  0.00     0.000 C 
ENDROOT
BRANCH   1   2
HETATM    2  C   UNL     1     -21.216  -6.070  -6.320  1.00  0.00     0.000 C 
BRANCH   2   3
HETATM    3  C   UNL     1     -22.152  -6.294  -5.147  1.00  0.00     0.000 C 
BRANCH   3   4
HETATM    4  C   UNL     1     -21.327  -6.563  -3.895  1.00  0.00     0.000 C 
BRANCH   4   5
HETATM    5  C   UNL     1     -22.206  -6.525  -2.659  1.00  0.00     0.000 C 
BRANCH   5   6
HETATM    6  C   UNL     1     -21.448  -7.049  -1.447  1.00  0.00     0.000 C 
BRANCH   6   7
HETATM    7  C   UNL     1     -22.428  -7.494  -0.372  1.00  0.00     0.000 C 
BRANCH   7   8
HETATM    8  C   UNL     1     -22.353  -9.000  -0.163  1.00  0.00     0.000 C 
BRANCH   8   9
HETATM    9  C   UNL     1     -23.721  -9.548   0.229  1.00  0.00    -0.000 C 
BRANCH   9  10
HETATM   10  C   UNL     1     -23.895 -10.982  -0.260  1.00  0.00    -0.005 C 
HETATM   11  C   UNL     1     -23.352 -11.143  -1.669  1.00  0.00     0.005 C 
ENDBRANCH   9  10
ENDBRANCH   8   9
ENDBRANCH   7   8
ENDBRANCH   6   7
ENDBRANCH   5   6
ENDBRANCH   4   5
ENDBRANCH   3   4
ENDBRANCH   2   3
ENDBRANCH   1   2
BRANCH   1  12
HETATM   12  C   UNL     1     -21.257  -3.827  -7.505  1.00  0.00     0.002 C 
BRANCH  12  13
HETATM   13  C   UNL     1     -21.249  -4.632  -8.803  1.00  0.00     0.028 C 
BRANCH  13  14
HETATM   14  C   UNL     1     -20.990  -3.800 -10.053  1.00  0.00     0.237 C 
BRANCH  14  15
HETATM   15  N   UNL     1     -22.311  -3.556 -10.821  1.00  0.00    -0.065 N 
HETATM   16  C   UNL     1     -22.219  -2.460 -11.851  1.00  0.00     0.272 C 
HETATM   17  C   UNL     1     -22.818  -4.853 -11.442  1.00  0.00     0.272 C 
BRANCH  15  18
HETATM   18  C   UNL     1     -23.388  -3.111  -9.735  1.00  0.00     0.349 C 
BRANCH  18  19
HETATM   19  C   UNL     1     -24.766  -3.818  -9.791  1.00  0.00     0.199 C 
HETATM   20  O   UNL     1     -24.702  -5.079  -9.751  1.00  0.00    -0.647 OA
HETATM   21  O   UNL     1     -25.739  -3.048 -10.017  1.00  0.00    -0.647 OA
ENDBRANCH  18  19
ENDBRANCH  15  18
ENDBRANCH  14  15
ENDBRANCH  13  14
ENDBRANCH  12  13
ENDBRANCH   1  12
TORSDOF 15
ENDMDL
MODEL 8
REMARK VINA RESULT:      -5.7      4.566      9.204
REMARK  15 active torsions:
REMARK  status: ('A' for Active; 'I' for Inactive)
REMARK    1  A    between atoms: C_2  and  C_3 
REMARK    2  A    between atoms: C_3  and  C_4 
REMARK    3  A    between atoms: C_4  and  C_5 
REMARK    4  A    between atoms: C_5  and  C_6 
REMARK    5  A    between atoms: C_6  and  C_7 
REMARK    6  A    between atoms: C_7  and  C_8 
REMARK    7  A    between atoms: C_8  and  C_9 
REMARK    8  A    between atoms: C_9  and  C_10 
REMARK    9  A    between atoms: C_10  and  C_11 
REMARK   10  A    between atoms: C_11  and  C_12 
REMARK   11  A    between atoms: C_12  and  C_13 
REMARK   12  A    between atoms: C_13  and  C_14 
REMARK   13  A    between atoms: C_14  and  N_15 
REMARK   14  A    between atoms: N_15  and  C_18 
REMARK   15  A    between atoms: C_18  and  C_19 
ROOT
HETATM    1  C   UNL     1     -20.758  -5.789  -4.916  1.00  0.00     0.000 C 
ENDROOT
BRANCH   1   2
HETATM    2  C   UNL     1     -20.311  -6.517  -6.183  1.00  0.00     0.000 C 
BRANCH   2   3
HETATM    3  C   UNL     1     -20.673  -5.759  -7.447  1.00  0.00     0.000 C 
BRANCH   3   4
HETATM    4  C   UNL     1     -20.305  -4.291  -7.270  1.00  0.00     0.000 C 
BRANCH   4   5
HETATM    5  C   UNL     1     -21.521  -3.408  -7.476  1.00  0.00     0.000 C 
BRANCH   5   6
HETATM    6  C   UNL     1     -22.739  -4.250  -7.829  1.00  0.00     0.000 C 
BRANCH   6   7
HETATM    7  C   UNL     1     -23.385  -3.724  -9.102  1.00  0.00     0.000 C 
BRANCH   7   8
HETATM    8  C   UNL     1     -23.535  -4.836 -10.131  1.00  0.00     0.000 C 
BRANCH   8   9
HETATM    9  C   UNL     1     -22.787  -4.476 -11.410  1.00  0.00    -0.000 C 
BRANCH   9  10
HETATM   10  C   UNL     1     -21.763  -3.376 -11.153  1.00  0.00    -0.005 C 
HETATM   11  C   UNL     1     -20.355  -3.946 -11.119  1.00  0.00     0.005 C 
ENDBRANCH   9  10
ENDBRANCH   8   9
ENDBRANCH   7   8
ENDBRANCH   6   7
ENDBRANCH   5   6
ENDBRANCH   4   5
ENDBRANCH   3   4
ENDBRANCH   2   3
ENDBRANCH   1   2
BRANCH   1  12
HETATM   12  C   UNL     1     -21.882  -6.541  -4.191  1.00  0.00     0.002 C 
BRANCH  12  13
HETATM   13  C   UNL     1     -21.302  -7.597  -3.252  1.00  0.00     0.028 C 
BRANCH  13  14
HETATM   14  C   UNL     1     -21.581  -9.033  -3.678  1.00  0.00     0.237 C 
BRANCH  14  15
HETATM   15  N   UNL     1     -20.505  -9.984  -3.102  1.00  0.00    -0.065 N 
HETATM   16  C   UNL     1     -19.225  -9.289  -2.717  1.00  0.00     0.272 C 
HETATM   17  C   UNL     1     -21.068 -10.786  -1.933  1.00  0.00     0.272 C 
BRANCH  15  18
HETATM   18  C   UNL     1     -20.162 -11.027  -4.255  1.00  0.00     0.349 C 
BRANCH  18  19
HETATM   19  C   UNL     1     -21.262 -11.275  -5.319  1.00  0.00     0.199 C 
HETATM   20  O   UNL     1     -21.112 -10.608  -6.382  1.00  0.00    -0.647 OA
HETATM   21  O   UNL     1     -22.223 -11.988  -4.920  1.00  0.00    -0.647 OA
ENDBRANCH  18  19
ENDBRANCH  15  18
ENDBRANCH  14  15
ENDBRANCH  13  14
ENDBRANCH  12  13
ENDBRANCH   1  12
TORSDOF 15
ENDMDL
MODEL 9
REMARK VINA RESULT:      -5.6     11.737     14.598
REMARK  15 active torsions:
REMARK  status: ('A' for Active; 'I' for Inactive)
REMARK    1  A    between atoms: C_2  and  C_3 
REMARK    2  A    between atoms: C_3  and  C_4 
REMARK    3  A    between atoms: C_4  and  C_5 
REMARK    4  A    between atoms: C_5  and  C_6 
REMARK    5  A    between atoms: C_6  and  C_7 
REMARK    6  A    between atoms: C_7  and  C_8 
REMARK    7  A    between atoms: C_8  and  C_9 
REMARK    8  A    between atoms: C_9  and  C_10 
REMARK    9  A    between atoms: C_10  and  C_11 
REMARK   10  A    between atoms: C_11  and  C_12 
REMARK   11  A    between atoms: C_12  and  C_13 
REMARK   12  A    between atoms: C_13  and  C_14 
REMARK   13  A    between atoms: C_14  and  N_15 
REMARK   14  A    between atoms: N_15  and  C_18 
REMARK   15  A    between atoms: C_18  and  C_19 
ROOT
HETATM    1  C   UNL     1     -33.817  -3.104 -17.008  1.00  0.00     0.000 C 
ENDROOT
BRANCH   1   2
HETATM    2  C   UNL     1     -34.957  -2.509 -16.183  1.00  0.00     0.000 C 
BRANCH   2   3
HETATM    3  C   UNL     1     -35.425  -1.168 -16.720  1.00  0.00     0.000 C 
BRANCH   3   4
HETATM    4  C   UNL     1     -36.078  -0.380 -15.591  1.00  0.00     0.000 C 
BRANCH   4   5
HETATM    5  C   UNL     1     -35.040   0.045 -14.570  1.00  0.00     0.000 C 
BRANCH   5   6
HETATM    6  C   UNL     1     -35.512  -0.278 -13.160  1.00  0.00     0.000 C 
BRANCH   6   7
HETATM    7  C   UNL     1     -34.954  -1.623 -12.719  1.00  0.00     0.000 C 
BRANCH   7   8
HETATM    8  C   UNL     1     -34.892  -1.710 -11.200  1.00  0.00     0.000 C 
BRANCH   8   9
HETATM    9  C   UNL     1     -33.516  -2.194 -10.754  1.00  0.00    -0.000 C 
BRANCH   9  10
HETATM   10  C   UNL     1     -33.109  -3.454 -11.512  1.00  0.00    -0.005 C 
HETATM   11  C   UNL     1     -33.697  -4.692 -10.857  1.00  0.00     0.005 C 
ENDBRANCH   9  10
ENDBRANCH   8   9
ENDBRANCH   7   8
ENDBRANCH   6   7
ENDBRANCH   5   6
ENDBRANCH   4   5
ENDBRANCH   3   4
ENDBRANCH   2   3
ENDBRANCH   1   2
BRANCH   1  12
HETATM   12  C   UNL     1     -33.239  -4.368 -16.357  1.00  0.00     0.002 C 
BRANCH  12  13
HETATM   13  C   UNL     1     -31.844  -4.662 -16.905  1.00  0.00     0.028 C 
BRANCH  13  14
HETATM   14  C   UNL     1     -31.567  -6.140 -17.149  1.00  0.00     0.237 C 
BRANCH  14  15
HETATM   15  N   UNL     1     -30.052  -6.376 -17.361  1.00  0.00    -0.065 N 
HETATM   16  C   UNL     1     -29.704  -7.801 -17.709  1.00  0.00     0.272 C 
HETATM   17  C   UNL     1     -29.498  -5.406 -18.399  1.00  0.00     0.272 C 
BRANCH  15  18
HETATM   18  C   UNL     1     -29.343  -6.029 -15.978  1.00  0.00     0.349 C 
BRANCH  18  19
HETATM   19  C   UNL     1     -27.915  -6.592 -15.767  1.00  0.00     0.199 C 
HETATM   20  O   UNL     1     -27.031  -6.040 -16.481  1.00  0.00    -0.647 OA
HETATM   21  O   UNL     1     -27.860  -7.614 -15.029  1.00  0.00    -0.647 OA
ENDBRANCH  18  19
ENDBRANCH  15  18
ENDBRANCH  14  15
ENDBRANCH  13  14
ENDBRANCH  12  13
ENDBRANCH   1  12
TORSDOF 15
ENDMDL
