MODEL 1
REMARK VINA RESULT:      -6.1      0.000      0.000
REMARK  21 active torsions:
REMARK  status: ('A' for Active; 'I' for Inactive)
REMARK    1  A    between atoms: C_2  and  C_3 
REMARK    2  A    between atoms: C_3  and  C_4 
REMARK    3  A    between atoms: C_4  and  C_5 
REMARK    4  A    between atoms: C_5  and  C_6 
REMARK    5  A    between atoms: C_6  and  C_7 
REMARK    6  A    between atoms: C_7  and  C_8 
REMARK    7  A    between atoms: C_8  and  C_9 
REMARK    8  A    between atoms: C_9  and  C_10 
REMARK    9  A    between atoms: C_10  and  C_11 
REMARK   10  A    between atoms: C_11  and  C_12 
REMARK   11  A    between atoms: C_11  and  C_20 
REMARK   12  A    between atoms: C_12  and  C_13 
REMARK   13  A    between atoms: C_13  and  C_14 
REMARK   14  A    between atoms: C_14  and  C_15 
REMARK   15  A    between atoms: C_15  and  C_16 
REMARK   16  A    between atoms: C_16  and  C_17 
REMARK   17  A    between atoms: C_17  and  C_18 
REMARK   18  A    between atoms: C_20  and  O_21 
REMARK   19  A    between atoms: O_21  and  C_22 
REMARK   20  A    between atoms: C_22  and  C_24 
REMARK   21  A    between atoms: C_24  and  O_26 
ROOT
HETATM    1  C   UNL     1     -21.734  -6.547  -4.336  1.00  0.00     0.010 C 
ENDROOT
BRANCH   1   2
HETATM    2  C   UNL     1     -21.853  -7.983  -4.897  1.00  0.00     0.007 C 
BRANCH   2   3
HETATM    3  C   UNL     1     -20.626  -8.839  -4.581  1.00  0.00     0.000 C 
BRANCH   3   4
HETATM    4  C   UNL     1     -20.970 -10.123  -3.827  1.00  0.00     0.000 C 
BRANCH   4   5
HETATM    5  C   UNL     1     -19.795 -10.508  -2.926  1.00  0.00     0.000 C 
BRANCH   5   6
HETATM    6  C   UNL     1     -18.700  -9.447  -2.918  1.00  0.00     0.000 C 
BRANCH   6   7
HETATM    7  C   UNL     1     -17.373 -10.046  -2.443  1.00  0.00     0.000 C 
BRANCH   7   8
HETATM    8  C   UNL     1     -16.221  -9.577  -3.325  1.00  0.00     0.000 C 
BRANCH   8   9
HETATM    9  C   UNL     1     -15.571 -10.742  -4.068  1.00  0.00    -0.000 C 
BRANCH   9  10
HETATM   10  C   UNL     1     -16.300 -11.015  -5.382  1.00  0.00    -0.005 C 
HETATM   11  C   UNL     1     -16.741  -9.728  -6.058  1.00  0.00     0.005 C 
ENDBRANCH   9  10
ENDBRANCH   8   9
ENDBRANCH   7   8
ENDBRANCH   6   7
ENDBRANCH   5   6
ENDBRANCH   4   5
ENDBRANCH   3   4
ENDBRANCH   2   3
ENDBRANCH   1   2
BRANCH   1  12
HETATM   12  C   UNL     1     -21.148  -6.475  -2.906  1.00  0.00     0.007 C 
BRANCH  12  13
HETATM   13  C   UNL     1     -22.150  -6.036  -1.833  1.00  0.00     0.000 C 
BRANCH  13  14
HETATM   14  C   UNL     1     -22.437  -7.119  -0.790  1.00  0.00     0.000 C 
BRANCH  14  15
HETATM   15  C   UNL     1     -21.250  -8.053  -0.566  1.00  0.00     0.000 C 
BRANCH  15  16
HETATM   16  C   UNL     1     -21.691  -9.395   0.012  1.00  0.00     0.000 C 
BRANCH  16  17
HETATM   17  C   UNL     1     -23.214  -9.513  -0.021  1.00  0.00    -0.000 C 
BRANCH  17  18
HETATM   18  C   UNL     1     -23.649 -10.968  -0.135  1.00  0.00    -0.005 C 
HETATM   19  C   UNL     1     -23.729 -11.407  -1.587  1.00  0.00     0.005 C 
ENDBRANCH  17  18
ENDBRANCH  16  17
ENDBRANCH  15  16
ENDBRANCH  14  15
ENDBRANCH  13  14
ENDBRANCH  12  13
ENDBRANCH   1  12
BRANCH   1  20
HETATM   20  C   UNL     1     -20.952  -5.663  -5.323  1.00  0.00     0.183 C 
BRANCH  20  21
HETATM   21  O   UNL     1     -21.848  -4.942  -6.184  1.00  0.00    -0.319 OA
BRANCH  21  22
HETATM   22  C   UNL     1     -21.536  -4.958  -7.508  1.00  0.00     0.287 C 
HETATM   23  O   UNL     1     -20.585  -5.550  -8.009  1.00  0.00    -0.262 OA
BRANCH  22  24
HETATM   24  C   UNL     1     -22.528  -4.119  -8.315  1.00  0.00     0.213 C 
HETATM   25  C   UNL     1     -22.624  -4.626  -9.743  1.00  0.00     0.050 C 
BRANCH  24  26
HETATM   26  O   UNL     1     -23.836  -4.159  -7.740  1.00  0.00    -0.386 OA
HETATM   27  H   UNL     1     -24.189  -3.249  -7.788  1.00  0.00     0.210 HD
ENDBRANCH  24  26
ENDBRANCH  22  24
ENDBRANCH  21  22
ENDBRANCH  20  21
ENDBRANCH   1  20
TORSDOF 21
ENDMDL
MODEL 2
REMARK VINA RESULT:      -6.1      2.371      7.733
REMARK  21 active torsions:
REMARK  status: ('A' for Active; 'I' for Inactive)
REMARK    1  A    between atoms: C_2  and  C_3 
REMARK    2  A    between atoms: C_3  and  C_4 
REMARK    3  A    between atoms: C_4  and  C_5 
REMARK    4  A    between atoms: C_5  and  C_6 
REMARK    5  A    between atoms: C_6  and  C_7 
REMARK    6  A    between atoms: C_7  and  C_8 
REMARK    7  A    between atoms: C_8  and  C_9 
REMARK    8  A    between atoms: C_9  and  C_10 
REMARK    9  A    between atoms: C_10  and  C_11 
REMARK   10  A    between atoms: C_11  and  C_12 
REMARK   11  A    between atoms: C_11  and  C_20 
REMARK   12  A    between atoms: C_12  and  C_13 
REMARK   13  A    between atoms: C_13  and  C_14 
REMARK   14  A    between atoms: C_14  and  C_15 
REMARK   15  A    between atoms: C_15  and  C_16 
REMARK   16  A    between atoms: C_16  and  C_17 
REMARK   17  A    between atoms: C_17  and  C_18 
REMARK   18  A    between atoms: C_20  and  O_21 
REMARK   19  A    between atoms: O_21  and  C_22 
REMARK   20  A    between atoms: C_22  and  C_24 
REMARK   21  A    between atoms: C_24  and  O_26 
ROOT
HETATM    1  C   UNL     1     -21.038  -7.170  -5.569  1.00  0.00     0.010 C 
ENDROOT
BRANCH   1   2
HETATM    2  C   UNL     1     -21.818  -6.379  -4.494  1.00  0.00     0.007 C 
BRANCH   2   3
HETATM    3  C   UNL     1     -21.866  -7.107  -3.150  1.00  0.00     0.000 C 
BRANCH   3   4
HETATM    4  C   UNL     1     -22.024  -6.159  -1.962  1.00  0.00     0.000 C 
BRANCH   4   5
HETATM    5  C   UNL     1     -22.398  -6.968  -0.718  1.00  0.00     0.000 C 
BRANCH   5   6
HETATM    6  C   UNL     1     -21.514  -8.198  -0.541  1.00  0.00     0.000 C 
BRANCH   6   7
HETATM    7  C   UNL     1     -22.271  -9.304   0.199  1.00  0.00     0.000 C 
BRANCH   7   8
HETATM    8  C   UNL     1     -23.026 -10.194  -0.781  1.00  0.00     0.000 C 
BRANCH   8   9
HETATM    9  C   UNL     1     -24.007 -11.118  -0.063  1.00  0.00    -0.000 C 
BRANCH   9  10
HETATM   10  C   UNL     1     -23.520 -12.565  -0.117  1.00  0.00    -0.005 C 
HETATM   11  C   UNL     1     -23.300 -13.136   1.273  1.00  0.00     0.005 C 
ENDBRANCH   9  10
ENDBRANCH   8   9
ENDBRANCH   7   8
ENDBRANCH   6   7
ENDBRANCH   5   6
ENDBRANCH   4   5
ENDBRANCH   3   4
ENDBRANCH   2   3
ENDBRANCH   1   2
BRANCH   1  12
HETATM   12  C   UNL     1     -20.015  -6.322  -6.359  1.00  0.00     0.007 C 
BRANCH  12  13
HETATM   13  C   UNL     1     -20.055  -4.823  -6.044  1.00  0.00     0.000 C 
BRANCH  13  14
HETATM   14  C   UNL     1     -20.315  -3.950  -7.274  1.00  0.00     0.000 C 
BRANCH  14  15
HETATM   15  C   UNL     1     -21.786  -3.923  -7.680  1.00  0.00     0.000 C 
BRANCH  15  16
HETATM   16  C   UNL     1     -21.967  -4.234  -9.164  1.00  0.00     0.000 C 
BRANCH  16  17
HETATM   17  C   UNL     1     -20.609  -4.299  -9.861  1.00  0.00    -0.000 C 
BRANCH  17  18
HETATM   18  C   UNL     1     -20.737  -3.960 -11.341  1.00  0.00    -0.005 C 
HETATM   19  C   UNL     1     -21.869  -2.978 -11.586  1.00  0.00     0.005 C 
ENDBRANCH  17  18
ENDBRANCH  16  17
ENDBRANCH  15  16
ENDBRANCH  14  15
ENDBRANCH  13  14
ENDBRANCH  12  13
ENDBRANCH   1  12
BRANCH   1  20
HETATM   20  C   UNL     1     -20.388  -8.412  -4.935  1.00  0.00     0.183 C 
BRANCH  20  21
HETATM   21  O   UNL     1     -19.288  -8.878  -5.734  1.00  0.00    -0.319 OA
BRANCH  21  22
HETATM   22  C   UNL     1     -18.228  -9.381  -5.044  1.00  0.00     0.287 C 
HETATM   23  O   UNL     1     -18.114  -9.394  -3.823  1.00  0.00    -0.262 OA
BRANCH  22  24
HETATM   24  C   UNL     1     -17.165  -9.929  -5.998  1.00  0.00     0.213 C 
HETATM   25  C   UNL     1     -15.813 -10.001  -5.312  1.00  0.00     0.050 C 
BRANCH  24  26
HETATM   26  O   UNL     1     -17.501 -11.241  -6.457  1.00  0.00    -0.386 OA
HETATM   27  H   UNL     1     -16.830 -11.846  -6.084  1.00  0.00     0.210 HD
ENDBRANCH  24  26
ENDBRANCH  22  24
ENDBRANCH  21  22
ENDBRANCH  20  21
ENDBRANCH   1  20
TORSDOF 21
ENDMDL
MODEL 3
REMARK VINA RESULT:      -6.1      2.456      6.262
REMARK  21 active torsions:
REMARK  status: ('A' for Active; 'I' for Inactive)
REMARK    1  A    between atoms: C_2  and  C_3 
REMARK    2  A    between atoms: C_3  and  C_4 
REMARK    3  A    between atoms: C_4  and  C_5 
REMARK    4  A    between atoms: C_5  and  C_6 
REMARK    5  A    between atoms: C_6  and  C_7 
REMARK    6  A    between atoms: C_7  and  C_8 
REMARK    7  A    between atoms: C_8  and  C_9 
REMARK    8  A    between atoms: C_9  and  C_10 
REMARK    9  A    between atoms: C_10  and  C_11 
REMARK   10  A    between atoms: C_11  and  C_12 
REMARK   11  A    between atoms: C_11  and  C_20 
REMARK   12  A    between atoms: C_12  and  C_13 
REMARK   13  A    between atoms: C_13  and  C_14 
REMARK   14  A    between atoms: C_14  and  C_15 
REMARK   15  A    between atoms: C_15  and  C_16 
REMARK   16  A    between atoms: C_16  and  C_17 
REMARK   17  A    between atoms: C_17  and  C_18 
REMARK   18  A    between atoms: C_20  and  O_21 
REMARK   19  A    between atoms: O_21  and  C_22 
REMARK   20  A    between atoms: C_22  and  C_24 
REMARK   21  A    between atoms: C_24  and  O_26 
ROOT
HETATM    1  C   UNL     1     -20.718  -7.596  -3.529  1.00  0.00     0.010 C 
ENDROOT
BRANCH   1   2
HETATM    2  C   UNL     1     -22.007  -7.388  -4.357  1.00  0.00     0.007 C 
BRANCH   2   3
HETATM    3  C   UNL     1     -21.855  -6.292  -5.412  1.00  0.00     0.000 C 
BRANCH   3   4
HETATM    4  C   UNL     1     -20.397  -5.943  -5.707  1.00  0.00     0.000 C 
BRANCH   4   5
HETATM    5  C   UNL     1     -20.343  -4.639  -6.506  1.00  0.00     0.000 C 
BRANCH   5   6
HETATM    6  C   UNL     1     -21.698  -4.264  -7.094  1.00  0.00     0.000 C 
BRANCH   6   7
HETATM    7  C   UNL     1     -21.561  -3.901  -8.575  1.00  0.00     0.000 C 
BRANCH   7   8
HETATM    8  C   UNL     1     -20.311  -4.535  -9.175  1.00  0.00     0.000 C 
BRANCH   8   9
HETATM    9  C   UNL     1     -20.347  -4.517 -10.702  1.00  0.00    -0.000 C 
BRANCH   9  10
HETATM   10  C   UNL     1     -21.014  -3.240 -11.209  1.00  0.00    -0.005 C 
HETATM   11  C   UNL     1     -22.112  -3.540 -12.214  1.00  0.00     0.005 C 
ENDBRANCH   9  10
ENDBRANCH   8   9
ENDBRANCH   7   8
ENDBRANCH   6   7
ENDBRANCH   5   6
ENDBRANCH   4   5
ENDBRANCH   3   4
ENDBRANCH   2   3
ENDBRANCH   1   2
BRANCH   1  12
HETATM   12  C   UNL     1     -20.798  -7.043  -2.087  1.00  0.00     0.007 C 
BRANCH  12  13
HETATM   13  C   UNL     1     -22.211  -6.667  -1.630  1.00  0.00     0.000 C 
BRANCH  13  14
HETATM   14  C   UNL     1     -22.676  -7.442  -0.394  1.00  0.00     0.000 C 
BRANCH  14  15
HETATM   15  C   UNL     1     -21.545  -8.216   0.278  1.00  0.00     0.000 C 
BRANCH  15  16
HETATM   16  C   UNL     1     -21.830  -9.716   0.310  1.00  0.00     0.000 C 
BRANCH  16  17
HETATM   17  C   UNL     1     -22.887 -10.077  -0.733  1.00  0.00    -0.000 C 
BRANCH  17  18
HETATM   18  C   UNL     1     -24.001 -10.914  -0.117  1.00  0.00    -0.005 C 
HETATM   19  C   UNL     1     -23.484 -12.265   0.344  1.00  0.00     0.005 C 
ENDBRANCH  17  18
ENDBRANCH  16  17
ENDBRANCH  15  16
ENDBRANCH  14  15
ENDBRANCH  13  14
ENDBRANCH  12  13
ENDBRANCH   1  12
BRANCH   1  20
HETATM   20  C   UNL     1     -20.313  -9.080  -3.554  1.00  0.00     0.183 C 
BRANCH  20  21
HETATM   21  O   UNL     1     -18.883  -9.220  -3.541  1.00  0.00    -0.319 OA
BRANCH  21  22
HETATM   22  C   UNL     1     -18.301  -9.463  -4.747  1.00  0.00     0.287 C 
HETATM   23  O   UNL     1     -18.814  -9.251  -5.841  1.00  0.00    -0.262 OA
BRANCH  22  24
HETATM   24  C   UNL     1     -16.903 -10.058  -4.570  1.00  0.00     0.213 C 
HETATM   25  C   UNL     1     -16.073  -9.860  -5.826  1.00  0.00     0.050 C 
BRANCH  24  26
HETATM   26  O   UNL     1     -16.209  -9.449  -3.479  1.00  0.00    -0.386 OA
HETATM   27  H   UNL     1     -15.322  -9.856  -3.452  1.00  0.00     0.210 HD
ENDBRANCH  24  26
ENDBRANCH  22  24
ENDBRANCH  21  22
ENDBRANCH  20  21
ENDBRANCH   1  20
TORSDOF 21
ENDMDL
MODEL 4
REMARK VINA RESULT:      -6.1      2.560      7.378
REMARK  21 active torsions:
REMARK  status: ('A' for Active; 'I' for Inactive)
REMARK    1  A    between atoms: C_2  and  C_3 
REMARK    2  A    between atoms: C_3  and  C_4 
REMARK    3  A    between atoms: C_4  and  C_5 
REMARK    4  A    between atoms: C_5  and  C_6 
REMARK    5  A    between atoms: C_6  and  C_7 
REMARK    6  A    between atoms: C_7  and  C_8 
REMARK    7  A    between atoms: C_8  and  C_9 
REMARK    8  A    between atoms: C_9  and  C_10 
REMARK    9  A    between atoms: C_10  and  C_11 
REMARK   10  A    between atoms: C_11  and  C_12 
REMARK   11  A    between atoms: C_11  and  C_20 
REMARK   12  A    between atoms: C_12  and  C_13 
REMARK   13  A    between atoms: C_13  and  C_14 
REMARK   14  A    between atoms: C_14  and  C_15 
REMARK   15  A    between atoms: C_15  and  C_16 
REMARK   16  A    between atoms: C_16  and  C_17 
REMARK   17  A    between atoms: C_17  and  C_18 
REMARK   18  A    between atoms: C_20  and  O_21 
REMARK   19  A    between atoms: O_21  and  C_22 
REMARK   20  A    between atoms: C_22  and  C_24 
REMARK   21  A    between atoms: C_24  and  O_26 
ROOT
HETATM    1  C   UNL     1     -21.385  -6.842  -5.464  1.00  0.00     0.010 C 
ENDROOT
BRANCH   1   2
HETATM    2  C   UNL     1     -22.283  -6.682  -4.215  1.00  0.00     0.007 C 
BRANCH   2   3
HETATM    3  C   UNL     1     -21.486  -6.304  -2.966  1.00  0.00     0.000 C 
BRANCH   3   4
HETATM    4  C   UNL     1     -22.223  -6.626  -1.667  1.00  0.00     0.000 C 
BRANCH   4   5
HETATM    5  C   UNL     1     -21.471  -7.731  -0.922  1.00  0.00     0.000 C 
BRANCH   5   6
HETATM    6  C   UNL     1     -21.873  -7.817   0.546  1.00  0.00     0.000 C 
BRANCH   6   7
HETATM    7  C   UNL     1     -21.195  -9.012   1.222  1.00  0.00     0.000 C 
BRANCH   7   8
HETATM    8  C   UNL     1     -20.861 -10.094   0.201  1.00  0.00     0.000 C 
BRANCH   8   9
HETATM    9  C   UNL     1     -21.665 -11.369   0.449  1.00  0.00    -0.000 C 
BRANCH   9  10
HETATM   10  C   UNL     1     -22.776 -11.514  -0.589  1.00  0.00    -0.005 C 
HETATM   11  C   UNL     1     -24.066 -10.859  -0.125  1.00  0.00     0.005 C 
ENDBRANCH   9  10
ENDBRANCH   8   9
ENDBRANCH   7   8
ENDBRANCH   6   7
ENDBRANCH   5   6
ENDBRANCH   4   5
ENDBRANCH   3   4
ENDBRANCH   2   3
ENDBRANCH   1   2
BRANCH   1  12
HETATM   12  C   UNL     1     -21.278  -5.566  -6.331  1.00  0.00     0.007 C 
BRANCH  12  13
HETATM   13  C   UNL     1     -19.955  -4.806  -6.181  1.00  0.00     0.000 C 
BRANCH  13  14
HETATM   14  C   UNL     1     -19.327  -4.410  -7.519  1.00  0.00     0.000 C 
BRANCH  14  15
HETATM   15  C   UNL     1     -20.081  -4.980  -8.718  1.00  0.00     0.000 C 
BRANCH  15  16
HETATM   16  C   UNL     1     -20.703  -3.875  -9.568  1.00  0.00     0.000 C 
BRANCH  16  17
HETATM   17  C   UNL     1     -20.492  -4.165 -11.053  1.00  0.00    -0.000 C 
BRANCH  17  18
HETATM   18  C   UNL     1     -21.711  -3.758 -11.870  1.00  0.00    -0.005 C 
HETATM   19  C   UNL     1     -22.926  -4.591 -11.499  1.00  0.00     0.005 C 
ENDBRANCH  17  18
ENDBRANCH  16  17
ENDBRANCH  15  16
ENDBRANCH  14  15
ENDBRANCH  13  14
ENDBRANCH  12  13
ENDBRANCH   1  12
BRANCH   1  20
HETATM   20  C   UNL     1     -20.002  -7.373  -5.050  1.00  0.00     0.183 C 
BRANCH  20  21
HETATM   21  O   UNL     1     -19.720  -8.624  -5.698  1.00  0.00    -0.319 OA
BRANCH  21  22
HETATM   22  C   UNL     1     -19.516  -9.686  -4.872  1.00  0.00     0.287 C 
HETATM   23  O   UNL     1     -18.566  -9.822  -4.107  1.00  0.00    -0.262 OA
BRANCH  22  24
HETATM   24  C   UNL     1     -20.633 -10.719  -5.022  1.00  0.00     0.213 C 
HETATM   25  C   UNL     1     -21.748 -10.454  -4.027  1.00  0.00     0.050 C 
BRANCH  24  26
HETATM   26  O   UNL     1     -21.195 -10.695  -6.336  1.00  0.00    -0.386 OA
HETATM   27  H   UNL     1     -21.747 -11.496  -6.418  1.00  0.00     0.210 HD
ENDBRANCH  24  26
ENDBRANCH  22  24
ENDBRANCH  21  22
ENDBRANCH  20  21
ENDBRANCH   1  20
TORSDOF 21
ENDMDL
MODEL 5
REMARK VINA RESULT:      -6.0      2.811      6.566
REMARK  21 active torsions:
REMARK  status: ('A' for Active; 'I' for Inactive)
REMARK    1  A    between atoms: C_2  and  C_3 
REMARK    2  A    between atoms: C_3  and  C_4 
REMARK    3  A    between atoms: C_4  and  C_5 
REMARK    4  A    between atoms: C_5  and  C_6 
REMARK    5  A    between atoms: C_6  and  C_7 
REMARK    6  A    between atoms: C_7  and  C_8 
REMARK    7  A    between atoms: C_8  and  C_9 
REMARK    8  A    between atoms: C_9  and  C_10 
REMARK    9  A    between atoms: C_10  and  C_11 
REMARK   10  A    between atoms: C_11  and  C_12 
REMARK   11  A    between atoms: C_11  and  C_20 
REMARK   12  A    between atoms: C_12  and  C_13 
REMARK   13  A    between atoms: C_13  and  C_14 
REMARK   14  A    between atoms: C_14  and  C_15 
REMARK   15  A    between atoms: C_15  and  C_16 
REMARK   16  A    between atoms: C_16  and  C_17 
REMARK   17  A    between atoms: C_17  and  C_18 
REMARK   18  A    between atoms: C_20  and  O_21 
REMARK   19  A    between atoms: O_21  and  C_22 
REMARK   20  A    between atoms: C_22  and  C_24 
REMARK   21  A    between atoms: C_24  and  O_26 
ROOT
HETATM    1  C   UNL     1     -20.932  -6.565  -4.418  1.00  0.00     0.010 C 
ENDROOT
BRANCH   1   2
HETATM    2  C   UNL     1     -22.000  -6.373  -5.518  1.00  0.00     0.007 C 
BRANCH   2   3
HETATM    3  C   UNL     1     -21.561  -5.380  -6.595  1.00  0.00     0.000 C 
BRANCH   3   4
HETATM    4  C   UNL     1     -20.082  -5.007  -6.497  1.00  0.00     0.000 C 
BRANCH   4   5
HETATM    5  C   UNL     1     -19.609  -4.463  -7.846  1.00  0.00     0.000 C 
BRANCH   5   6
HETATM    6  C   UNL     1     -20.770  -4.030  -8.735  1.00  0.00     0.000 C 
BRANCH   6   7
HETATM    7  C   UNL     1     -20.450  -4.296 -10.208  1.00  0.00     0.000 C 
BRANCH   7   8
HETATM    8  C   UNL     1     -21.731  -4.405 -11.029  1.00  0.00     0.000 C 
BRANCH   8   9
HETATM    9  C   UNL     1     -22.964  -4.521 -10.135  1.00  0.00    -0.000 C 
BRANCH   9  10
HETATM   10  C   UNL     1     -24.015  -3.486 -10.532  1.00  0.00    -0.005 C 
HETATM   11  C   UNL     1     -23.773  -2.949 -11.932  1.00  0.00     0.005 C 
ENDBRANCH   9  10
ENDBRANCH   8   9
ENDBRANCH   7   8
ENDBRANCH   6   7
ENDBRANCH   5   6
ENDBRANCH   4   5
ENDBRANCH   3   4
ENDBRANCH   2   3
ENDBRANCH   1   2
BRANCH   1  12
HETATM   12  C   UNL     1     -21.386  -6.112  -3.011  1.00  0.00     0.007 C 
BRANCH  12  13
HETATM   13  C   UNL     1     -21.525  -7.250  -1.993  1.00  0.00     0.000 C 
BRANCH  13  14
HETATM   14  C   UNL     1     -22.377  -6.876  -0.777  1.00  0.00     0.000 C 
BRANCH  14  15
HETATM   15  C   UNL     1     -22.371  -7.956   0.303  1.00  0.00     0.000 C 
BRANCH  15  16
HETATM   16  C   UNL     1     -21.410  -9.091  -0.041  1.00  0.00     0.000 C 
BRANCH  16  17
HETATM   17  C   UNL     1     -22.122 -10.438   0.062  1.00  0.00    -0.000 C 
BRANCH  17  18
HETATM   18  C   UNL     1     -23.371 -10.466  -0.810  1.00  0.00    -0.005 C 
HETATM   19  C   UNL     1     -24.013 -11.842  -0.810  1.00  0.00     0.005 C 
ENDBRANCH  17  18
ENDBRANCH  16  17
ENDBRANCH  15  16
ENDBRANCH  14  15
ENDBRANCH  13  14
ENDBRANCH  12  13
ENDBRANCH   1  12
BRANCH   1  20
HETATM   20  C   UNL     1     -20.433  -8.020  -4.421  1.00  0.00     0.183 C 
BRANCH  20  21
HETATM   21  O   UNL     1     -21.043  -8.768  -5.485  1.00  0.00    -0.319 OA
BRANCH  21  22
HETATM   22  C   UNL     1     -20.932 -10.122  -5.396  1.00  0.00     0.287 C 
HETATM   23  O   UNL     1     -20.491 -10.859  -6.271  1.00  0.00    -0.262 OA
BRANCH  22  24
HETATM   24  C   UNL     1     -21.446 -10.626  -4.047  1.00  0.00     0.213 C 
HETATM   25  C   UNL     1     -22.585 -11.612  -4.241  1.00  0.00     0.050 C 
BRANCH  24  26
HETATM   26  O   UNL     1     -20.414 -11.279  -3.305  1.00  0.00    -0.386 OA
HETATM   27  H   UNL     1     -20.818 -11.570  -2.464  1.00  0.00     0.210 HD
ENDBRANCH  24  26
ENDBRANCH  22  24
ENDBRANCH  21  22
ENDBRANCH  20  21
ENDBRANCH   1  20
TORSDOF 21
ENDMDL
MODEL 6
REMARK VINA RESULT:      -6.0      2.135      7.416
REMARK  21 active torsions:
REMARK  status: ('A' for Active; 'I' for Inactive)
REMARK    1  A    between atoms: C_2  and  C_3 
REMARK    2  A    between atoms: C_3  and  C_4 
REMARK    3  A    between atoms: C_4  and  C_5 
REMARK    4  A    between atoms: C_5  and  C_6 
REMARK    5  A    between atoms: C_6  and  C_7 
REMARK    6  A    between atoms: C_7  and  C_8 
REMARK    7  A    between atoms: C_8  and  C_9 
REMARK    8  A    between atoms: C_9  and  C_10 
REMARK    9  A    between atoms: C_10  and  C_11 
REMARK   10  A    between atoms: C_11  and  C_12 
REMARK   11  A    between atoms: C_11  and  C_20 
REMARK   12  A    between atoms: C_12  and  C_13 
REMARK   13  A    between atoms: C_13  and  C_14 
REMARK   14  A    between atoms: C_14  and  C_15 
REMARK   15  A    between atoms: C_15  and  C_16 
REMARK   16  A    between atoms: C_16  and  C_17 
REMARK   17  A    between atoms: C_17  and  C_18 
REMARK   18  A    between atoms: C_20  and  O_21 
REMARK   19  A    between atoms: O_21  and  C_22 
REMARK   20  A    between atoms: C_22  and  C_24 
REMARK   21  A    between atoms: C_24  and  O_26 
ROOT
HETATM    1  C   UNL     1     -21.475  -6.620  -4.503  1.00  0.00     0.010 C 
ENDROOT
BRANCH   1   2
HETATM    2  C   UNL     1     -21.156  -6.829  -3.005  1.00  0.00     0.007 C 
BRANCH   2   3
HETATM    3  C   UNL     1     -22.216  -6.214  -2.089  1.00  0.00     0.000 C 
BRANCH   3   4
HETATM    4  C   UNL     1     -22.325  -6.925  -0.740  1.00  0.00     0.000 C 
BRANCH   4   5
HETATM    5  C   UNL     1     -21.407  -8.148  -0.740  1.00  0.00     0.000 C 
BRANCH   5   6
HETATM    6  C   UNL     1     -21.553  -8.981   0.529  1.00  0.00     0.000 C 
BRANCH   6   7
HETATM    7  C   UNL     1     -22.093 -10.376   0.200  1.00  0.00     0.000 C 
BRANCH   7   8
HETATM    8  C   UNL     1     -23.530 -10.295  -0.302  1.00  0.00     0.000 C 
BRANCH   8   9
HETATM    9  C   UNL     1     -23.895 -11.505  -1.160  1.00  0.00    -0.000 C 
BRANCH   9  10
HETATM   10  C   UNL     1     -22.780 -11.815  -2.156  1.00  0.00    -0.005 C 
HETATM   11  C   UNL     1     -22.766 -10.826  -3.309  1.00  0.00     0.005 C 
ENDBRANCH   9  10
ENDBRANCH   8   9
ENDBRANCH   7   8
ENDBRANCH   6   7
ENDBRANCH   5   6
ENDBRANCH   4   5
ENDBRANCH   3   4
ENDBRANCH   2   3
ENDBRANCH   1   2
BRANCH   1  12
HETATM   12  C   UNL     1     -20.723  -5.434  -5.149  1.00  0.00     0.007 C 
BRANCH  12  13
HETATM   13  C   UNL     1     -21.185  -5.090  -6.570  1.00  0.00     0.000 C 
BRANCH  13  14
HETATM   14  C   UNL     1     -20.033  -4.730  -7.512  1.00  0.00     0.000 C 
BRANCH  14  15
HETATM   15  C   UNL     1     -20.515  -4.192  -8.857  1.00  0.00     0.000 C 
BRANCH  15  16
HETATM   16  C   UNL     1     -22.026  -3.975  -8.868  1.00  0.00     0.000 C 
BRANCH  16  17
HETATM   17  C   UNL     1     -22.631  -4.518 -10.161  1.00  0.00    -0.000 C 
BRANCH  17  18
HETATM   18  C   UNL     1     -23.187  -3.390 -11.021  1.00  0.00    -0.005 C 
HETATM   19  C   UNL     1     -22.126  -2.836 -11.956  1.00  0.00     0.005 C 
ENDBRANCH  17  18
ENDBRANCH  16  17
ENDBRANCH  15  16
ENDBRANCH  14  15
ENDBRANCH  13  14
ENDBRANCH  12  13
ENDBRANCH   1  12
BRANCH   1  20
HETATM   20  C   UNL     1     -21.250  -7.932  -5.274  1.00  0.00     0.183 C 
BRANCH  20  21
HETATM   21  O   UNL     1     -19.855  -8.125  -5.559  1.00  0.00    -0.319 OA
BRANCH  21  22
HETATM   22  C   UNL     1     -19.348  -9.345  -5.231  1.00  0.00     0.287 C 
HETATM   23  O   UNL     1     -19.534 -10.385  -5.854  1.00  0.00    -0.262 OA
BRANCH  22  24
HETATM   24  C   UNL     1     -18.508  -9.263  -3.955  1.00  0.00     0.213 C 
HETATM   25  C   UNL     1     -19.139 -10.082  -2.843  1.00  0.00     0.050 C 
BRANCH  24  26
HETATM   26  O   UNL     1     -17.182  -9.751  -4.170  1.00  0.00    -0.386 OA
HETATM   27  H   UNL     1     -16.611  -8.967  -4.280  1.00  0.00     0.210 HD
ENDBRANCH  24  26
ENDBRANCH  22  24
ENDBRANCH  21  22
ENDBRANCH  20  21
ENDBRANCH   1  20
TORSDOF 21
ENDMDL
MODEL 7
REMARK VINA RESULT:      -6.0      2.538      7.021
REMARK  21 active torsions:
REMARK  status: ('A' for Active; 'I' for Inactive)
REMARK    1  A    between atoms: C_2  and  C_3 
REMARK    2  A    between atoms: C_3  and  C_4 
REMARK    3  A    between atoms: C_4  and  C_5 
REMARK    4  A    between atoms: C_5  and  C_6 
REMARK    5  A    between atoms: C_6  and  C_7 
REMARK    6  A    between atoms: C_7  and  C_8 
REMARK    7  A    between atoms: C_8  and  C_9 
REMARK    8  A    between atoms: C_9  and  C_10 
REMARK    9  A    between atoms: C_10  and  C_11 
REMARK   10  A    between atoms: C_11  and  C_12 
REMARK   11  A    between atoms: C_11  and  C_20 
REMARK   12  A    between atoms: C_12  and  C_13 
REMARK   13  A    between atoms: C_13  and  C_14 
REMARK   14  A    between atoms: C_14  and  C_15 
REMARK   15  A    between atoms: C_15  and  C_16 
REMARK   16  A    between atoms: C_16  and  C_17 
REMARK   17  A    between atoms: C_17  and  C_18 
REMARK   18  A    between atoms: C_20  and  O_21 
REMARK   19  A    between atoms: O_21  and  C_22 
REMARK   20  A    between atoms: C_22  and  C_24 
REMARK   21  A    between atoms: C_24  and  O_26 
ROOT
HETATM    1  C   UNL     1     -20.567  -7.136  -4.868  1.00  0.00     0.010 C 
ENDROOT
BRANCH   1   2
HETATM    2  C   UNL     1     -20.573  -6.519  -6.285  1.00  0.00     0.007 C 
BRANCH   2   3
HETATM    3  C   UNL     1     -20.211  -5.033  -6.278  1.00  0.00     0.000 C 
BRANCH   3   4
HETATM    4  C   UNL     1     -19.143  -4.672  -7.310  1.00  0.00     0.000 C 
BRANCH   4   5
HETATM    5  C   UNL     1     -19.784  -3.856  -8.434  1.00  0.00     0.000 C 
BRANCH   5   6
HETATM    6  C   UNL     1     -20.503  -4.735  -9.451  1.00  0.00     0.000 C 
BRANCH   6   7
HETATM    7  C   UNL     1     -20.426  -4.116 -10.849  1.00  0.00     0.000 C 
BRANCH   7   8
HETATM    8  C   UNL     1     -21.635  -3.225 -11.114  1.00  0.00     0.000 C 
BRANCH   8   9
HETATM    9  C   UNL     1     -22.846  -3.659 -10.291  1.00  0.00    -0.000 C 
BRANCH   9  10
HETATM   10  C   UNL     1     -24.132  -3.491 -11.097  1.00  0.00    -0.005 C 
HETATM   11  C   UNL     1     -23.867  -2.862 -12.454  1.00  0.00     0.005 C 
ENDBRANCH   9  10
ENDBRANCH   8   9
ENDBRANCH   7   8
ENDBRANCH   6   7
ENDBRANCH   5   6
ENDBRANCH   4   5
ENDBRANCH   3   4
ENDBRANCH   2   3
ENDBRANCH   1   2
BRANCH   1  12
HETATM   12  C   UNL     1     -21.925  -7.044  -4.134  1.00  0.00     0.007 C 
BRANCH  12  13
HETATM   13  C   UNL     1     -21.848  -6.420  -2.736  1.00  0.00     0.000 C 
BRANCH  13  14
HETATM   14  C   UNL     1     -21.588  -7.443  -1.628  1.00  0.00     0.000 C 
BRANCH  14  15
HETATM   15  C   UNL     1     -22.432  -7.191  -0.380  1.00  0.00     0.000 C 
BRANCH  15  16
HETATM   16  C   UNL     1     -22.388  -8.378   0.579  1.00  0.00     0.000 C 
BRANCH  16  17
HETATM   17  C   UNL     1     -22.455  -9.691  -0.199  1.00  0.00    -0.000 C 
BRANCH  17  18
HETATM   18  C   UNL     1     -23.827 -10.340  -0.061  1.00  0.00    -0.005 C 
HETATM   19  C   UNL     1     -24.008 -11.465  -1.065  1.00  0.00     0.005 C 
ENDBRANCH  17  18
ENDBRANCH  16  17
ENDBRANCH  15  16
ENDBRANCH  14  15
ENDBRANCH  13  14
ENDBRANCH  12  13
ENDBRANCH   1  12
BRANCH   1  20
HETATM   20  C   UNL     1     -20.043  -8.582  -4.929  1.00  0.00     0.183 C 
BRANCH  20  21
HETATM   21  O   UNL     1     -18.847  -8.659  -5.721  1.00  0.00    -0.319 OA
BRANCH  21  22
HETATM   22  C   UNL     1     -18.350  -9.910  -5.921  1.00  0.00     0.287 C 
HETATM   23  O   UNL     1     -19.002 -10.888  -6.271  1.00  0.00    -0.262 OA
BRANCH  22  24
HETATM   24  C   UNL     1     -16.848  -9.955  -5.637  1.00  0.00     0.213 C 
HETATM   25  C   UNL     1     -16.576  -9.777  -4.154  1.00  0.00     0.050 C 
BRANCH  24  26
HETATM   26  O   UNL     1     -16.274 -11.197  -6.049  1.00  0.00    -0.386 OA
HETATM   27  H   UNL     1     -15.307 -11.104  -5.948  1.00  0.00     0.210 HD
ENDBRANCH  24  26
ENDBRANCH  22  24
ENDBRANCH  21  22
ENDBRANCH  20  21
ENDBRANCH   1  20
TORSDOF 21
ENDMDL
MODEL 8
REMARK VINA RESULT:      -5.9      1.501      3.668
REMARK  21 active torsions:
REMARK  status: ('A' for Active; 'I' for Inactive)
REMARK    1  A    between atoms: C_2  and  C_3 
REMARK    2  A    between atoms: C_3  and  C_4 
REMARK    3  A    between atoms: C_4  and  C_5 
REMARK    4  A    between atoms: C_5  and  C_6 
REMARK    5  A    between atoms: C_6  and  C_7 
REMARK    6  A    between atoms: C_7  and  C_8 
REMARK    7  A    between atoms: C_8  and  C_9 
REMARK    8  A    between atoms: C_9  and  C_10 
REMARK    9  A    between atoms: C_10  and  C_11 
REMARK   10  A    between atoms: C_11  and  C_12 
REMARK   11  A    between atoms: C_11  and  C_20 
REMARK   12  A    between atoms: C_12  and  C_13 
REMARK   13  A    between atoms: C_13  and  C_14 
REMARK   14  A    between atoms: C_14  and  C_15 
REMARK   15  A    between atoms: C_15  and  C_16 
REMARK   16  A    between atoms: C_16  and  C_17 
REMARK   17  A    between atoms: C_17  and  C_18 
REMARK   18  A    between atoms: C_20  and  O_21 
REMARK   19  A    between atoms: O_21  and  C_22 
REMARK   20  A    between atoms: C_22  and  C_24 
REMARK   21  A    between atoms: C_24  and  O_26 
ROOT
HETATM    1  C   UNL     1     -21.575  -6.385  -4.872  1.00  0.00     0.010 C 
ENDROOT
BRANCH   1   2
HETATM    2  C   UNL     1     -21.123  -7.832  -5.170  1.00  0.00     0.007 C 
BRANCH   2   3
HETATM    3  C   UNL     1     -19.891  -8.240  -4.360  1.00  0.00     0.000 C 
BRANCH   3   4
HETATM    4  C   UNL     1     -19.184  -9.470  -4.926  1.00  0.00     0.000 C 
BRANCH   4   5
HETATM    5  C   UNL     1     -18.864 -10.437  -3.784  1.00  0.00     0.000 C 
BRANCH   5   6
HETATM    6  C   UNL     1     -19.692 -10.152  -2.536  1.00  0.00     0.000 C 
BRANCH   6   7
HETATM    7  C   UNL     1     -20.841 -11.156  -2.410  1.00  0.00     0.000 C 
BRANCH   7   8
HETATM    8  C   UNL     1     -22.188 -10.440  -2.405  1.00  0.00     0.000 C 
BRANCH   8   9
HETATM    9  C   UNL     1     -23.332 -11.395  -2.071  1.00  0.00    -0.000 C 
BRANCH   9  10
HETATM   10  C   UNL     1     -23.892 -11.099  -0.681  1.00  0.00    -0.005 C 
HETATM   11  C   UNL     1     -23.684 -12.265   0.269  1.00  0.00     0.005 C 
ENDBRANCH   9  10
ENDBRANCH   8   9
ENDBRANCH   7   8
ENDBRANCH   6   7
ENDBRANCH   5   6
ENDBRANCH   4   5
ENDBRANCH   3   4
ENDBRANCH   2   3
ENDBRANCH   1   2
BRANCH   1  12
HETATM   12  C   UNL     1     -21.253  -5.905  -3.437  1.00  0.00     0.007 C 
BRANCH  12  13
HETATM   13  C   UNL     1     -22.344  -6.214  -2.406  1.00  0.00     0.000 C 
BRANCH  13  14
HETATM   14  C   UNL     1     -21.825  -6.976  -1.183  1.00  0.00     0.000 C 
BRANCH  14  15
HETATM   15  C   UNL     1     -22.940  -7.374  -0.218  1.00  0.00     0.000 C 
BRANCH  15  16
HETATM   16  C   UNL     1     -22.440  -8.343   0.850  1.00  0.00     0.000 C 
BRANCH  16  17
HETATM   17  C   UNL     1     -20.934  -8.557   0.709  1.00  0.00    -0.000 C 
BRANCH  17  18
HETATM   18  C   UNL     1     -20.441  -9.633   1.669  1.00  0.00    -0.005 C 
HETATM   19  C   UNL     1     -20.404 -10.995   0.999  1.00  0.00     0.005 C 
ENDBRANCH  17  18
ENDBRANCH  16  17
ENDBRANCH  15  16
ENDBRANCH  14  15
ENDBRANCH  13  14
ENDBRANCH  12  13
ENDBRANCH   1  12
BRANCH   1  20
HETATM   20  C   UNL     1     -21.011  -5.429  -5.937  1.00  0.00     0.183 C 
BRANCH  20  21
HETATM   21  O   UNL     1     -22.060  -4.921  -6.777  1.00  0.00    -0.319 OA
BRANCH  21  22
HETATM   22  C   UNL     1     -21.693  -4.580  -8.042  1.00  0.00     0.287 C 
HETATM   23  O   UNL     1     -20.592  -4.783  -8.543  1.00  0.00    -0.262 OA
BRANCH  22  24
HETATM   24  C   UNL     1     -22.840  -3.884  -8.776  1.00  0.00     0.213 C 
HETATM   25  C   UNL     1     -23.025  -4.473 -10.164  1.00  0.00     0.050 C 
BRANCH  24  26
HETATM   26  O   UNL     1     -24.074  -4.020  -8.068  1.00  0.00    -0.386 OA
HETATM   27  H   UNL     1     -24.441  -3.120  -7.973  1.00  0.00     0.210 HD
ENDBRANCH  24  26
ENDBRANCH  22  24
ENDBRANCH  21  22
ENDBRANCH  20  21
ENDBRANCH   1  20
TORSDOF 21
ENDMDL
MODEL 9
REMARK VINA RESULT:      -5.9      1.029      1.687
REMARK  21 active torsions:
REMARK  status: ('A' for Active; 'I' for Inactive)
REMARK    1  A    between atoms: C_2  and  C_3 
REMARK    2  A    between atoms: C_3  and  C_4 
REMARK    3  A    between atoms: C_4  and  C_5 
REMARK    4  A    between atoms: C_5  and  C_6 
REMARK    5  A    between atoms: C_6  and  C_7 
REMARK    6  A    between atoms: C_7  and  C_8 
REMARK    7  A    between atoms: C_8  and  C_9 
REMARK    8  A    between atoms: C_9  and  C_10 
REMARK    9  A    between atoms: C_10  and  C_11 
REMARK   10  A    between atoms: C_11  and  C_12 
REMARK   11  A    between atoms: C_11  and  C_20 
REMARK   12  A    between atoms: C_12  and  C_13 
REMARK   13  A    between atoms: C_13  and  C_14 
REMARK   14  A    between atoms: C_14  and  C_15 
REMARK   15  A    between atoms: C_15  and  C_16 
REMARK   16  A    between atoms: C_16  and  C_17 
REMARK   17  A    between atoms: C_17  and  C_18 
REMARK   18  A    between atoms: C_20  and  O_21 
REMARK   19  A    between atoms: O_21  and  C_22 
REMARK   20  A    between atoms: C_22  and  C_24 
REMARK   21  A    between atoms: C_24  and  O_26 
ROOT
HETATM    1  C   UNL     1     -21.679  -6.488  -4.374  1.00  0.00     0.010 C 
ENDROOT
BRANCH   1   2
HETATM    2  C   UNL     1     -21.811  -7.959  -4.832  1.00  0.00     0.007 C 
BRANCH   2   3
HETATM    3  C   UNL     1     -20.491  -8.725  -4.730  1.00  0.00     0.000 C 
BRANCH   3   4
HETATM    4  C   UNL     1     -20.581  -9.953  -3.825  1.00  0.00     0.000 C 
BRANCH   4   5
HETATM    5  C   UNL     1     -19.171 -10.370  -3.401  1.00  0.00     0.000 C 
BRANCH   5   6
HETATM    6  C   UNL     1     -18.430  -9.253  -2.674  1.00  0.00     0.000 C 
BRANCH   6   7
HETATM    7  C   UNL     1     -16.917  -9.420  -2.828  1.00  0.00     0.000 C 
BRANCH   7   8
HETATM    8  C   UNL     1     -16.570 -10.839  -3.267  1.00  0.00     0.000 C 
BRANCH   8   9
HETATM    9  C   UNL     1     -15.725 -11.561  -2.219  1.00  0.00    -0.000 C 
BRANCH   9  10
HETATM   10  C   UNL     1     -16.554 -11.858  -0.971  1.00  0.00    -0.005 C 
HETATM   11  C   UNL     1     -15.691 -11.895   0.279  1.00  0.00     0.005 C 
ENDBRANCH   9  10
ENDBRANCH   8   9
ENDBRANCH   7   8
ENDBRANCH   6   7
ENDBRANCH   5   6
ENDBRANCH   4   5
ENDBRANCH   3   4
ENDBRANCH   2   3
ENDBRANCH   1   2
BRANCH   1  12
HETATM   12  C   UNL     1     -21.121  -6.320  -2.942  1.00  0.00     0.007 C 
BRANCH  12  13
HETATM   13  C   UNL     1     -22.175  -5.964  -1.888  1.00  0.00     0.000 C 
BRANCH  13  14
HETATM   14  C   UNL     1     -22.413  -7.078  -0.866  1.00  0.00     0.000 C 
BRANCH  14  15
HETATM   15  C   UNL     1     -21.207  -8.000  -0.704  1.00  0.00     0.000 C 
BRANCH  15  16
HETATM   16  C   UNL     1     -21.597  -9.333  -0.072  1.00  0.00     0.000 C 
BRANCH  16  17
HETATM   17  C   UNL     1     -23.118  -9.475  -0.031  1.00  0.00    -0.000 C 
BRANCH  17  18
HETATM   18  C   UNL     1     -23.535 -10.937  -0.138  1.00  0.00    -0.005 C 
HETATM   19  C   UNL     1     -23.779 -11.335  -1.583  1.00  0.00     0.005 C 
ENDBRANCH  17  18
ENDBRANCH  16  17
ENDBRANCH  15  16
ENDBRANCH  14  15
ENDBRANCH  13  14
ENDBRANCH  12  13
ENDBRANCH   1  12
BRANCH   1  20
HETATM   20  C   UNL     1     -20.864  -5.690  -5.406  1.00  0.00     0.183 C 
BRANCH  20  21
HETATM   21  O   UNL     1     -21.726  -4.887  -6.228  1.00  0.00    -0.319 OA
BRANCH  21  22
HETATM   22  C   UNL     1     -21.445  -4.891  -7.560  1.00  0.00     0.287 C 
HETATM   23  O   UNL     1     -20.492  -5.458  -8.085  1.00  0.00    -0.262 OA
BRANCH  22  24
HETATM   24  C   UNL     1     -22.476  -4.074  -8.339  1.00  0.00     0.213 C 
HETATM   25  C   UNL     1     -22.621  -4.602  -9.755  1.00  0.00     0.050 C 
BRANCH  24  26
HETATM   26  O   UNL     1     -23.761  -4.119  -7.715  1.00  0.00    -0.386 OA
HETATM   27  H   UNL     1     -23.672  -4.705  -6.938  1.00  0.00     0.210 HD
ENDBRANCH  24  26
ENDBRANCH  22  24
ENDBRANCH  21  22
ENDBRANCH  20  21
ENDBRANCH   1  20
TORSDOF 21
ENDMDL
