MODEL 1
REMARK VINA RESULT:      -6.8      0.000      0.000
REMARK  7 active torsions:
REMARK  status: ('A' for Active; 'I' for Inactive)
REMARK    1  A    between atoms: C_2  and  C_3 
REMARK    2  A    between atoms: C_3  and  C_4 
REMARK    3  A    between atoms: C_4  and  C_5 
REMARK    4  A    between atoms: C_5  and  C_6 
REMARK    5  A    between atoms: C_6  and  C_7 
REMARK    6  A    between atoms: C_8  and  O_14 
REMARK    7  A    between atoms: C_10  and  O_13 
ROOT
HETATM    1  C   UNL     1     -22.477  -3.896  -9.369  1.00  0.00    -0.025 A 
HETATM    2  C   UNL     1     -23.552  -3.320 -10.060  1.00  0.00     0.074 A 
HETATM    3  C   UNL     1     -23.492  -3.098 -11.435  1.00  0.00     0.073 A 
HETATM    4  C   UNL     1     -22.353  -3.473 -12.139  1.00  0.00     0.068 A 
HETATM    5  C   UNL     1     -21.284  -4.072 -11.488  1.00  0.00     0.037 A 
HETATM    6  C   UNL     1     -21.346  -4.284 -10.109  1.00  0.00     0.012 A 
ENDROOT
BRANCH   1   7
HETATM    7  C   UNL     1     -22.478  -4.132  -7.878  1.00  0.00     0.041 C 
BRANCH   7   8
HETATM    8  C   UNL     1     -21.207  -3.593  -7.218  1.00  0.00     0.005 C 
BRANCH   8   9
HETATM    9  C   UNL     1     -20.582  -4.629  -6.283  1.00  0.00     0.000 C 
BRANCH   9  10
HETATM   10  C   UNL     1     -20.794  -6.045  -6.816  1.00  0.00    -0.000 C 
BRANCH  10  11
HETATM   11  C   UNL     1     -21.047  -7.042  -5.686  1.00  0.00    -0.005 C 
HETATM   12  C   UNL     1     -22.286  -6.664  -4.888  1.00  0.00     0.005 C 
ENDBRANCH  10  11
ENDBRANCH   9  10
ENDBRANCH   8   9
ENDBRANCH   7   8
ENDBRANCH   1   7
BRANCH   2  13
HETATM   13  O   UNL     1     -24.715  -2.941  -9.451  1.00  0.00    -0.360 OA
HETATM   14  H   UNL     1     -24.509  -2.460  -8.634  1.00  0.00     0.217 HD
ENDBRANCH   2  13
BRANCH   4  15
HETATM   15  O   UNL     1     -22.247  -3.269 -13.483  1.00  0.00    -0.361 OA
HETATM   16  H   UNL     1     -21.329  -3.445 -13.747  1.00  0.00     0.217 HD
ENDBRANCH   4  15
TORSDOF 7
ENDMDL
MODEL 2
REMARK VINA RESULT:      -6.8      1.204      2.533
REMARK  7 active torsions:
REMARK  status: ('A' for Active; 'I' for Inactive)
REMARK    1  A    between atoms: C_2  and  C_3 
REMARK    2  A    between atoms: C_3  and  C_4 
REMARK    3  A    between atoms: C_4  and  C_5 
REMARK    4  A    between atoms: C_5  and  C_6 
REMARK    5  A    between atoms: C_6  and  C_7 
REMARK    6  A    between atoms: C_8  and  O_14 
REMARK    7  A    between atoms: C_10  and  O_13 
ROOT
HETATM    1  C   UNL     1     -21.497  -4.240  -9.666  1.00  0.00    -0.025 A 
HETATM    2  C   UNL     1     -21.846  -3.706 -10.914  1.00  0.00     0.074 A 
HETATM    3  C   UNL     1     -23.161  -3.349 -11.207  1.00  0.00     0.073 A 
HETATM    4  C   UNL     1     -24.144  -3.505 -10.236  1.00  0.00     0.068 A 
HETATM    5  C   UNL     1     -23.825  -4.003  -8.980  1.00  0.00     0.037 A 
HETATM    6  C   UNL     1     -22.508  -4.368  -8.696  1.00  0.00     0.012 A 
ENDROOT
BRANCH   1   7
HETATM    7  C   UNL     1     -20.095  -4.670  -9.308  1.00  0.00     0.041 C 
BRANCH   7   8
HETATM    8  C   UNL     1     -19.600  -3.981  -8.035  1.00  0.00     0.005 C 
BRANCH   8   9
HETATM    9  C   UNL     1     -19.398  -4.985  -6.900  1.00  0.00     0.000 C 
BRANCH   9  10
HETATM   10  C   UNL     1     -20.204  -4.584  -5.665  1.00  0.00    -0.000 C 
BRANCH  10  11
HETATM   11  C   UNL     1     -20.936  -5.780  -5.056  1.00  0.00    -0.005 C 
HETATM   12  C   UNL     1     -21.200  -6.852  -6.102  1.00  0.00     0.005 C 
ENDBRANCH  10  11
ENDBRANCH   9  10
ENDBRANCH   8   9
ENDBRANCH   7   8
ENDBRANCH   1   7
BRANCH   2  13
HETATM   13  O   UNL     1     -20.940  -3.501 -11.918  1.00  0.00    -0.360 OA
HETATM   14  H   UNL     1     -20.385  -4.289 -12.017  1.00  0.00     0.217 HD
ENDBRANCH   2  13
BRANCH   4  15
HETATM   15  O   UNL     1     -25.444  -3.176 -10.480  1.00  0.00    -0.361 OA
HETATM   16  H   UNL     1     -25.704  -2.476  -9.857  1.00  0.00     0.217 HD
ENDBRANCH   4  15
TORSDOF 7
ENDMDL
MODEL 3
REMARK VINA RESULT:      -6.8      1.307      1.808
REMARK  7 active torsions:
REMARK  status: ('A' for Active; 'I' for Inactive)
REMARK    1  A    between atoms: C_2  and  C_3 
REMARK    2  A    between atoms: C_3  and  C_4 
REMARK    3  A    between atoms: C_4  and  C_5 
REMARK    4  A    between atoms: C_5  and  C_6 
REMARK    5  A    between atoms: C_6  and  C_7 
REMARK    6  A    between atoms: C_8  and  O_14 
REMARK    7  A    between atoms: C_10  and  O_13 
ROOT
HETATM    1  C   UNL     1     -22.549  -4.057 -10.300  1.00  0.00    -0.025 A 
HETATM    2  C   UNL     1     -23.941  -3.899 -10.350  1.00  0.00     0.074 A 
HETATM    3  C   UNL     1     -24.558  -3.252 -11.420  1.00  0.00     0.073 A 
HETATM    4  C   UNL     1     -23.781  -2.774 -12.469  1.00  0.00     0.068 A 
HETATM    5  C   UNL     1     -22.404  -2.941 -12.463  1.00  0.00     0.037 A 
HETATM    6  C   UNL     1     -21.790  -3.581 -11.385  1.00  0.00     0.012 A 
ENDROOT
BRANCH   1   7
HETATM    7  C   UNL     1     -21.828  -4.722  -9.153  1.00  0.00     0.041 C 
BRANCH   7   8
HETATM    8  C   UNL     1     -20.310  -4.582  -9.280  1.00  0.00     0.005 C 
BRANCH   8   9
HETATM    9  C   UNL     1     -19.679  -4.139  -7.960  1.00  0.00     0.000 C 
BRANCH   9  10
HETATM   10  C   UNL     1     -20.731  -4.045  -6.855  1.00  0.00    -0.000 C 
BRANCH  10  11
HETATM   11  C   UNL     1     -20.354  -4.896  -5.643  1.00  0.00    -0.005 C 
HETATM   12  C   UNL     1     -20.234  -6.365  -6.020  1.00  0.00     0.005 C 
ENDBRANCH  10  11
ENDBRANCH   9  10
ENDBRANCH   8   9
ENDBRANCH   7   8
ENDBRANCH   1   7
BRANCH   2  13
HETATM   13  O   UNL     1     -24.780  -4.357  -9.372  1.00  0.00    -0.360 OA
HETATM   14  H   UNL     1     -24.606  -5.297  -9.212  1.00  0.00     0.217 HD
ENDBRANCH   2  13
BRANCH   4  15
HETATM   15  O   UNL     1     -24.341  -2.129 -13.532  1.00  0.00    -0.361 OA
HETATM   16  H   UNL     1     -24.538  -2.788 -14.219  1.00  0.00     0.217 HD
ENDBRANCH   4  15
TORSDOF 7
ENDMDL
MODEL 4
REMARK VINA RESULT:      -6.7      1.164      1.424
REMARK  7 active torsions:
REMARK  status: ('A' for Active; 'I' for Inactive)
REMARK    1  A    between atoms: C_2  and  C_3 
REMARK    2  A    between atoms: C_3  and  C_4 
REMARK    3  A    between atoms: C_4  and  C_5 
REMARK    4  A    between atoms: C_5  and  C_6 
REMARK    5  A    between atoms: C_6  and  C_7 
REMARK    6  A    between atoms: C_8  and  O_14 
REMARK    7  A    between atoms: C_10  and  O_13 
ROOT
HETATM    1  C   UNL     1     -21.734  -3.996  -8.678  1.00  0.00    -0.025 A 
HETATM    2  C   UNL     1     -22.930  -3.742  -9.363  1.00  0.00     0.074 A 
HETATM    3  C   UNL     1     -22.962  -3.652 -10.754  1.00  0.00     0.073 A 
HETATM    4  C   UNL     1     -21.789  -3.838 -11.478  1.00  0.00     0.068 A 
HETATM    5  C   UNL     1     -20.595  -4.119 -10.830  1.00  0.00     0.037 A 
HETATM    6  C   UNL     1     -20.567  -4.199  -9.437  1.00  0.00     0.012 A 
ENDROOT
BRANCH   1   7
HETATM    7  C   UNL     1     -21.639  -4.074  -7.173  1.00  0.00     0.041 C 
BRANCH   7   8
HETATM    8  C   UNL     1     -20.360  -4.784  -6.723  1.00  0.00     0.005 C 
BRANCH   8   9
HETATM    9  C   UNL     1     -20.384  -5.077  -5.223  1.00  0.00     0.000 C 
BRANCH   9  10
HETATM   10  C   UNL     1     -21.518  -6.040  -4.872  1.00  0.00    -0.000 C 
BRANCH  10  11
HETATM   11  C   UNL     1     -21.228  -6.806  -3.582  1.00  0.00    -0.005 C 
HETATM   12  C   UNL     1     -21.979  -6.203  -2.404  1.00  0.00     0.005 C 
ENDBRANCH  10  11
ENDBRANCH   9  10
ENDBRANCH   8   9
ENDBRANCH   7   8
ENDBRANCH   1   7
BRANCH   2  13
HETATM   13  O   UNL     1     -24.130  -3.568  -8.732  1.00  0.00    -0.360 OA
HETATM   14  H   UNL     1     -24.708  -3.018  -9.285  1.00  0.00     0.217 HD
ENDBRANCH   2  13
BRANCH   4  15
HETATM   15  O   UNL     1     -21.772  -3.752 -12.839  1.00  0.00    -0.361 OA
HETATM   16  H   UNL     1     -20.953  -3.300 -13.105  1.00  0.00     0.217 HD
ENDBRANCH   4  15
TORSDOF 7
ENDMDL
MODEL 5
REMARK VINA RESULT:      -6.5     12.355     14.023
REMARK  7 active torsions:
REMARK  status: ('A' for Active; 'I' for Inactive)
REMARK    1  A    between atoms: C_2  and  C_3 
REMARK    2  A    between atoms: C_3  and  C_4 
REMARK    3  A    between atoms: C_4  and  C_5 
REMARK    4  A    between atoms: C_5  and  C_6 
REMARK    5  A    between atoms: C_6  and  C_7 
REMARK    6  A    between atoms: C_8  and  O_14 
REMARK    7  A    between atoms: C_10  and  O_13 
ROOT
HETATM    1  C   UNL     1     -35.700  -1.252 -11.913  1.00  0.00    -0.025 A 
HETATM    2  C   UNL     1     -37.021  -0.783 -11.904  1.00  0.00     0.074 A 
HETATM    3  C   UNL     1     -37.547  -0.082 -12.989  1.00  0.00     0.073 A 
HETATM    4  C   UNL     1     -36.755   0.138 -14.109  1.00  0.00     0.068 A 
HETATM    5  C   UNL     1     -35.453  -0.339 -14.160  1.00  0.00     0.037 A 
HETATM    6  C   UNL     1     -34.928  -1.032 -13.068  1.00  0.00     0.012 A 
ENDROOT
BRANCH   1   7
HETATM    7  C   UNL     1     -35.073  -1.989 -10.755  1.00  0.00     0.041 C 
BRANCH   7   8
HETATM    8  C   UNL     1     -33.561  -2.143 -10.934  1.00  0.00     0.005 C 
BRANCH   8   9
HETATM    9  C   UNL     1     -33.178  -3.595 -11.222  1.00  0.00     0.000 C 
BRANCH   9  10
HETATM   10  C   UNL     1     -34.124  -4.561 -10.509  1.00  0.00    -0.000 C 
BRANCH  10  11
HETATM   11  C   UNL     1     -33.864  -6.010 -10.919  1.00  0.00    -0.005 C 
HETATM   12  C   UNL     1     -34.693  -6.974 -10.085  1.00  0.00     0.005 C 
ENDBRANCH  10  11
ENDBRANCH   9  10
ENDBRANCH   8   9
ENDBRANCH   7   8
ENDBRANCH   1   7
BRANCH   2  13
HETATM   13  O   UNL     1     -37.875  -0.973 -10.853  1.00  0.00    -0.360 OA
HETATM   14  H   UNL     1     -37.989  -0.137 -10.375  1.00  0.00     0.217 HD
ENDBRANCH   2  13
BRANCH   4  15
HETATM   15  O   UNL     1     -37.225   0.824 -15.190  1.00  0.00    -0.361 OA
HETATM   16  H   UNL     1     -37.711   1.602 -14.869  1.00  0.00     0.217 HD
ENDBRANCH   4  15
TORSDOF 7
ENDMDL
MODEL 6
REMARK VINA RESULT:      -6.3     11.569     14.257
REMARK  7 active torsions:
REMARK  status: ('A' for Active; 'I' for Inactive)
REMARK    1  A    between atoms: C_2  and  C_3 
REMARK    2  A    between atoms: C_3  and  C_4 
REMARK    3  A    between atoms: C_4  and  C_5 
REMARK    4  A    between atoms: C_5  and  C_6 
REMARK    5  A    between atoms: C_6  and  C_7 
REMARK    6  A    between atoms: C_8  and  O_14 
REMARK    7  A    between atoms: C_10  and  O_13 
ROOT
HETATM    1  C   UNL     1     -34.239  -2.836 -11.418  1.00  0.00    -0.025 A 
HETATM    2  C   UNL     1     -35.278  -3.651 -10.947  1.00  0.00     0.074 A 
HETATM    3  C   UNL     1     -35.102  -5.025 -10.782  1.00  0.00     0.073 A 
HETATM    4  C   UNL     1     -33.867  -5.595 -11.070  1.00  0.00     0.068 A 
HETATM    5  C   UNL     1     -32.811  -4.809 -11.510  1.00  0.00     0.037 A 
HETATM    6  C   UNL     1     -32.995  -3.437 -11.682  1.00  0.00     0.012 A 
ENDROOT
BRANCH   1   7
HETATM    7  C   UNL     1     -34.385  -1.350 -11.642  1.00  0.00     0.041 C 
BRANCH   7   8
HETATM    8  C   UNL     1     -35.050  -1.043 -12.985  1.00  0.00     0.005 C 
BRANCH   8   9
HETATM    9  C   UNL     1     -34.985   0.450 -13.310  1.00  0.00     0.000 C 
BRANCH   9  10
HETATM   10  C   UNL     1     -35.021   0.682 -14.820  1.00  0.00    -0.000 C 
BRANCH  10  11
HETATM   11  C   UNL     1     -36.282   0.094 -15.451  1.00  0.00    -0.005 C 
HETATM   12  C   UNL     1     -35.936  -0.898 -16.551  1.00  0.00     0.005 C 
ENDBRANCH  10  11
ENDBRANCH   9  10
ENDBRANCH   8   9
ENDBRANCH   7   8
ENDBRANCH   1   7
BRANCH   2  13
HETATM   13  O   UNL     1     -36.515  -3.171 -10.621  1.00  0.00    -0.360 OA
HETATM   14  H   UNL     1     -36.986  -3.830 -10.087  1.00  0.00     0.217 HD
ENDBRANCH   2  13
BRANCH   4  15
HETATM   15  O   UNL     1     -33.651  -6.934 -10.931  1.00  0.00    -0.361 OA
HETATM   16  H   UNL     1     -33.049  -7.069 -10.180  1.00  0.00     0.217 HD
ENDBRANCH   4  15
TORSDOF 7
ENDMDL
MODEL 7
REMARK VINA RESULT:      -6.3     11.965     13.851
REMARK  7 active torsions:
REMARK  status: ('A' for Active; 'I' for Inactive)
REMARK    1  A    between atoms: C_2  and  C_3 
REMARK    2  A    between atoms: C_3  and  C_4 
REMARK    3  A    between atoms: C_4  and  C_5 
REMARK    4  A    between atoms: C_5  and  C_6 
REMARK    5  A    between atoms: C_6  and  C_7 
REMARK    6  A    between atoms: C_8  and  O_14 
REMARK    7  A    between atoms: C_10  and  O_13 
ROOT
HETATM    1  C   UNL     1     -35.264  -2.071 -12.101  1.00  0.00    -0.025 A 
HETATM    2  C   UNL     1     -35.562  -0.895 -12.804  1.00  0.00     0.074 A 
HETATM    3  C   UNL     1     -36.380   0.090 -12.252  1.00  0.00     0.073 A 
HETATM    4  C   UNL     1     -36.893  -0.086 -10.972  1.00  0.00     0.068 A 
HETATM    5  C   UNL     1     -36.591  -1.226 -10.240  1.00  0.00     0.037 A 
HETATM    6  C   UNL     1     -35.779  -2.213 -10.801  1.00  0.00     0.012 A 
ENDROOT
BRANCH   1   7
HETATM    7  C   UNL     1     -34.408  -3.181 -12.664  1.00  0.00     0.041 C 
BRANCH   7   8
HETATM    8  C   UNL     1     -33.139  -3.392 -11.836  1.00  0.00     0.005 C 
BRANCH   8   9
HETATM    9  C   UNL     1     -32.951  -4.865 -11.469  1.00  0.00     0.000 C 
BRANCH   9  10
HETATM   10  C   UNL     1     -34.033  -5.327 -10.494  1.00  0.00    -0.000 C 
BRANCH  10  11
HETATM   11  C   UNL     1     -34.708  -6.613 -10.968  1.00  0.00    -0.005 C 
HETATM   12  C   UNL     1     -34.818  -7.625  -9.838  1.00  0.00     0.005 C 
ENDBRANCH  10  11
ENDBRANCH   9  10
ENDBRANCH   8   9
ENDBRANCH   7   8
ENDBRANCH   1   7
BRANCH   2  13
HETATM   13  O   UNL     1     -35.084  -0.632 -14.057  1.00  0.00    -0.360 OA
HETATM   14  H   UNL     1     -35.215   0.307 -14.262  1.00  0.00     0.217 HD
ENDBRANCH   2  13
BRANCH   4  15
HETATM   15  O   UNL     1     -37.702   0.847 -10.395  1.00  0.00    -0.361 OA
HETATM   16  H   UNL     1     -38.487   0.394 -10.042  1.00  0.00     0.217 HD
ENDBRANCH   4  15
TORSDOF 7
ENDMDL
MODEL 8
REMARK VINA RESULT:      -6.1      1.503      2.281
REMARK  7 active torsions:
REMARK  status: ('A' for Active; 'I' for Inactive)
REMARK    1  A    between atoms: C_2  and  C_3 
REMARK    2  A    between atoms: C_3  and  C_4 
REMARK    3  A    between atoms: C_4  and  C_5 
REMARK    4  A    between atoms: C_5  and  C_6 
REMARK    5  A    between atoms: C_6  and  C_7 
REMARK    6  A    between atoms: C_8  and  O_14 
REMARK    7  A    between atoms: C_10  and  O_13 
ROOT
HETATM    1  C   UNL     1     -21.796  -3.775 -10.028  1.00  0.00    -0.025 A 
HETATM    2  C   UNL     1     -21.429  -3.556 -11.363  1.00  0.00     0.074 A 
HETATM    3  C   UNL     1     -22.385  -3.273 -12.338  1.00  0.00     0.073 A 
HETATM    4  C   UNL     1     -23.724  -3.186 -11.978  1.00  0.00     0.068 A 
HETATM    5  C   UNL     1     -24.115  -3.369 -10.659  1.00  0.00     0.037 A 
HETATM    6  C   UNL     1     -23.156  -3.660  -9.688  1.00  0.00     0.012 A 
ENDROOT
BRANCH   1   7
HETATM    7  C   UNL     1     -20.806  -4.112  -8.939  1.00  0.00     0.041 C 
BRANCH   7   8
HETATM    8  C   UNL     1     -21.274  -5.301  -8.097  1.00  0.00     0.005 C 
BRANCH   8   9
HETATM    9  C   UNL     1     -21.432  -4.915  -6.626  1.00  0.00     0.000 C 
BRANCH   9  10
HETATM   10  C   UNL     1     -20.587  -5.819  -5.730  1.00  0.00    -0.000 C 
BRANCH  10  11
HETATM   11  C   UNL     1     -21.165  -5.913  -4.318  1.00  0.00    -0.005 C 
HETATM   12  C   UNL     1     -21.391  -7.361  -3.912  1.00  0.00     0.005 C 
ENDBRANCH  10  11
ENDBRANCH   9  10
ENDBRANCH   8   9
ENDBRANCH   7   8
ENDBRANCH   1   7
BRANCH   2  13
HETATM   13  O   UNL     1     -20.135  -3.602 -11.800  1.00  0.00    -0.360 OA
HETATM   14  H   UNL     1     -19.648  -4.272 -11.296  1.00  0.00     0.217 HD
ENDBRANCH   2  13
BRANCH   4  15
HETATM   15  O   UNL     1     -24.694  -2.920 -12.899  1.00  0.00    -0.361 OA
HETATM   16  H   UNL     1     -25.547  -3.212 -12.538  1.00  0.00     0.217 HD
ENDBRANCH   4  15
TORSDOF 7
ENDMDL
MODEL 9
REMARK VINA RESULT:      -6.1      2.414      5.817
REMARK  7 active torsions:
REMARK  status: ('A' for Active; 'I' for Inactive)
REMARK    1  A    between atoms: C_2  and  C_3 
REMARK    2  A    between atoms: C_3  and  C_4 
REMARK    3  A    between atoms: C_4  and  C_5 
REMARK    4  A    between atoms: C_5  and  C_6 
REMARK    5  A    between atoms: C_6  and  C_7 
REMARK    6  A    between atoms: C_8  and  O_14 
REMARK    7  A    between atoms: C_10  and  O_13 
ROOT
HETATM    1  C   UNL     1     -22.114  -4.360  -8.343  1.00  0.00    -0.025 A 
HETATM    2  C   UNL     1     -22.682  -4.740  -7.119  1.00  0.00     0.074 A 
HETATM    3  C   UNL     1     -21.974  -5.516  -6.202  1.00  0.00     0.073 A 
HETATM    4  C   UNL     1     -20.672  -5.904  -6.497  1.00  0.00     0.068 A 
HETATM    5  C   UNL     1     -20.072  -5.519  -7.687  1.00  0.00     0.037 A 
HETATM    6  C   UNL     1     -20.788  -4.750  -8.605  1.00  0.00     0.012 A 
ENDROOT
BRANCH   1   7
HETATM    7  C   UNL     1     -22.846  -3.546  -9.382  1.00  0.00     0.041 C 
BRANCH   7   8
HETATM    8  C   UNL     1     -23.785  -4.413 -10.222  1.00  0.00     0.005 C 
BRANCH   8   9
HETATM    9  C   UNL     1     -23.196  -4.695 -11.605  1.00  0.00     0.000 C 
BRANCH   9  10
HETATM   10  C   UNL     1     -22.373  -3.507 -12.101  1.00  0.00    -0.000 C 
BRANCH  10  11
HETATM   11  C   UNL     1     -23.213  -2.555 -12.951  1.00  0.00    -0.005 C 
HETATM   12  C   UNL     1     -22.959  -2.773 -14.435  1.00  0.00     0.005 C 
ENDBRANCH  10  11
ENDBRANCH   9  10
ENDBRANCH   8   9
ENDBRANCH   7   8
ENDBRANCH   1   7
BRANCH   2  13
HETATM   13  O   UNL     1     -23.947  -4.386  -6.741  1.00  0.00    -0.360 OA
HETATM   14  H   UNL     1     -24.138  -3.489  -7.055  1.00  0.00     0.217 HD
ENDBRANCH   2  13
BRANCH   4  15
HETATM   15  O   UNL     1     -19.945  -6.669  -5.634  1.00  0.00    -0.361 OA
HETATM   16  H   UNL     1     -20.309  -7.570  -5.643  1.00  0.00     0.217 HD
ENDBRANCH   4  15
TORSDOF 7
ENDMDL
