MODEL 1
REMARK VINA RESULT:      -2.6      0.000      0.000
REMARK  1 active torsions:
REMARK  status: ('A' for Active; 'I' for Inactive)
REMARK    1  A    between atoms: C_2  and  O_3 
ROOT
HETATM    1  C   UNL     1     -23.689  -2.383 -13.567  1.00  0.00     0.033 C 
HETATM    2  C   UNL     1     -23.768  -1.475 -14.776  1.00  0.00     0.159 C 
ENDROOT
BRANCH   2   3
HETATM    3  O   UNL     1     -24.852  -0.568 -14.634  1.00  0.00    -0.401 OA
HETATM    4  H   UNL     1     -24.480   0.329 -14.590  1.00  0.00     0.209 HD
ENDBRANCH   2   3
TORSDOF 1
ENDMDL
MODEL 2
REMARK VINA RESULT:      -2.5     12.415     12.670
REMARK  1 active torsions:
REMARK  status: ('A' for Active; 'I' for Inactive)
REMARK    1  A    between atoms: C_2  and  O_3 
ROOT
HETATM    1  C   UNL     1     -34.310  -6.559 -10.515  1.00  0.00     0.033 C 
HETATM    2  C   UNL     1     -34.595  -7.982 -10.083  1.00  0.00     0.159 C 
ENDROOT
BRANCH   2   3
HETATM    3  O   UNL     1     -33.454  -8.797 -10.309  1.00  0.00    -0.401 OA
HETATM    4  H   UNL     1     -32.763  -8.514  -9.687  1.00  0.00     0.209 HD
ENDBRANCH   2   3
TORSDOF 1
ENDMDL
MODEL 3
REMARK VINA RESULT:      -2.5      4.228      4.713
REMARK  1 active torsions:
REMARK  status: ('A' for Active; 'I' for Inactive)
REMARK    1  A    between atoms: C_2  and  O_3 
ROOT
HETATM    1  C   UNL     1     -24.196  -3.241 -11.359  1.00  0.00     0.033 C 
HETATM    2  C   UNL     1     -24.578  -3.486  -9.914  1.00  0.00     0.159 C 
ENDROOT
BRANCH   2   3
HETATM    3  O   UNL     1     -25.964  -3.234  -9.728  1.00  0.00    -0.401 OA
HETATM    4  H   UNL     1     -26.426  -3.529 -10.530  1.00  0.00     0.209 HD
ENDBRANCH   2   3
TORSDOF 1
ENDMDL
MODEL 4
REMARK VINA RESULT:      -2.5     14.531     14.622
REMARK  1 active torsions:
REMARK  status: ('A' for Active; 'I' for Inactive)
REMARK    1  A    between atoms: C_2  and  O_3 
ROOT
HETATM    1  C   UNL     1     -28.785 -14.958 -17.969  1.00  0.00     0.033 C 
HETATM    2  C   UNL     1     -30.183 -14.549 -18.383  1.00  0.00     0.159 C 
ENDROOT
BRANCH   2   3
HETATM    3  O   UNL     1     -30.130 -13.382 -19.191  1.00  0.00    -0.401 OA
HETATM    4  H   UNL     1     -30.146 -12.613 -18.597  1.00  0.00     0.209 HD
ENDBRANCH   2   3
TORSDOF 1
ENDMDL
MODEL 5
REMARK VINA RESULT:      -2.4     15.216     15.333
REMARK  1 active torsions:
REMARK  status: ('A' for Active; 'I' for Inactive)
REMARK    1  A    between atoms: C_2  and  O_3 
ROOT
HETATM    1  C   UNL     1     -37.180   0.802  -5.372  1.00  0.00     0.033 C 
HETATM    2  C   UNL     1     -36.915   0.751  -6.862  1.00  0.00     0.159 C 
ENDROOT
BRANCH   2   3
HETATM    3  O   UNL     1     -36.951   2.062  -7.408  1.00  0.00    -0.401 OA
HETATM    4  H   UNL     1     -37.875   2.362  -7.390  1.00  0.00     0.209 HD
ENDBRANCH   2   3
TORSDOF 1
ENDMDL
MODEL 6
REMARK VINA RESULT:      -2.4      2.185      2.271
REMARK  1 active torsions:
REMARK  status: ('A' for Active; 'I' for Inactive)
REMARK    1  A    between atoms: C_2  and  O_3 
ROOT
HETATM    1  C   UNL     1     -24.236  -2.945 -12.596  1.00  0.00     0.033 C 
HETATM    2  C   UNL     1     -23.238  -2.812 -13.727  1.00  0.00     0.159 C 
ENDROOT
BRANCH   2   3
HETATM    3  O   UNL     1     -23.644  -3.608 -14.831  1.00  0.00    -0.401 OA
HETATM    4  H   UNL     1     -23.625  -3.043 -15.622  1.00  0.00     0.209 HD
ENDBRANCH   2   3
TORSDOF 1
ENDMDL
MODEL 7
REMARK VINA RESULT:      -2.2      3.678      4.028
REMARK  1 active torsions:
REMARK  status: ('A' for Active; 'I' for Inactive)
REMARK    1  A    between atoms: C_2  and  O_3 
ROOT
HETATM    1  C   UNL     1     -20.784  -3.546 -11.166  1.00  0.00     0.033 C 
HETATM    2  C   UNL     1     -22.067  -3.224 -11.903  1.00  0.00     0.159 C 
ENDROOT
BRANCH   2   3
HETATM    3  O   UNL     1     -21.907  -3.473 -13.292  1.00  0.00    -0.401 OA
HETATM    4  H   UNL     1     -22.280  -4.351 -13.478  1.00  0.00     0.209 HD
ENDBRANCH   2   3
TORSDOF 1
ENDMDL
MODEL 8
REMARK VINA RESULT:      -2.2     13.710     14.153
REMARK  1 active torsions:
REMARK  status: ('A' for Active; 'I' for Inactive)
REMARK    1  A    between atoms: C_2  and  O_3 
ROOT
HETATM    1  C   UNL     1     -22.426  -7.466  -0.307  1.00  0.00     0.033 C 
HETATM    2  C   UNL     1     -21.928  -6.992  -1.656  1.00  0.00     0.159 C 
ENDROOT
BRANCH   2   3
HETATM    3  O   UNL     1     -22.565  -5.773  -2.010  1.00  0.00    -0.401 OA
HETATM    4  H   UNL     1     -22.241  -5.086  -1.404  1.00  0.00     0.209 HD
ENDBRANCH   2   3
TORSDOF 1
ENDMDL
MODEL 9
REMARK VINA RESULT:      -2.2     10.090     10.169
REMARK  1 active torsions:
REMARK  status: ('A' for Active; 'I' for Inactive)
REMARK    1  A    between atoms: C_2  and  O_3 
ROOT
HETATM    1  C   UNL     1     -33.055  -3.557 -11.612  1.00  0.00     0.033 C 
HETATM    2  C   UNL     1     -34.273  -2.926 -12.253  1.00  0.00     0.159 C 
ENDROOT
BRANCH   2   3
HETATM    3  O   UNL     1     -34.343  -3.285 -13.626  1.00  0.00    -0.401 OA
HETATM    4  H   UNL     1     -33.439  -3.262 -13.981  1.00  0.00     0.209 HD
ENDBRANCH   2   3
TORSDOF 1
ENDMDL
