MODEL 1
REMARK VINA RESULT:      -8.6      0.000      0.000
REMARK  6 active torsions:
REMARK  status: ('A' for Active; 'I' for Inactive)
REMARK    1  A    between atoms: C_9  and  N_15 
REMARK    2  A    between atoms: C_10  and  S_11 
REMARK    3  A    between atoms: S_11  and  O_13 
REMARK    4  A    between atoms: N_17  and  C_19 
REMARK    5  A    between atoms: C_21  and  C_29 
REMARK    6  A    between atoms: C_29  and  O_31 
ROOT
HETATM    1  N   UNL     1     -22.036  -6.392  -4.762  1.00  0.00    -0.299 N 
ATOM      2  HN  UNL     1     -22.402  -6.953  -5.531  1.00  0.00     0.187 HD
HETATM    3  N   UNL     1     -21.663  -5.201  -4.902  1.00  0.00    -0.296 N 
ATOM      4  HN  UNL     1     -21.343  -4.604  -4.139  1.00  0.00     0.187 HD
ENDROOT
BRANCH   1   5
HETATM    5  C   UNL     1     -21.903  -6.885  -3.436  1.00  0.00     0.072 A 
HETATM    6  C   UNL     1     -22.307  -6.140  -2.321  1.00  0.00     0.033 A 
HETATM    7  C   UNL     1     -22.198  -6.643  -1.024  1.00  0.00     0.014 A 
HETATM    8  C   UNL     1     -21.714  -7.938  -0.791  1.00  0.00    -0.024 A 
HETATM    9  C   UNL     1     -21.316  -8.742  -1.877  1.00  0.00     0.000 A 
HETATM   10  C   UNL     1     -21.613  -8.418   0.526  1.00  0.00     0.012 A 
HETATM   11  C   UNL     1     -20.874 -10.062  -1.583  1.00  0.00     0.014 A 
HETATM   12  C   UNL     1     -21.355  -8.158  -3.184  1.00  0.00     0.127 A 
HETATM   13  C   UNL     1     -20.743 -10.515  -0.263  1.00  0.00     0.001 A 
HETATM   14  C   UNL     1     -21.107  -9.703   0.773  1.00  0.00     0.001 A 
BRANCH  12  15
HETATM   15  S   UNL     1     -20.257  -8.852  -4.427  1.00  0.00     0.328 S 
HETATM   16  O   UNL     1     -20.902  -9.982  -5.032  1.00  0.00    -0.191 OA
HETATM   17  O   UNL     1     -18.984  -9.057  -3.702  1.00  0.00    -0.191 OA
BRANCH  15  18
HETATM   18  O   UNL     1     -19.884  -7.711  -5.263  1.00  0.00    -0.086 OA
HETATM   19 CA   UNL     2     -21.033  -7.676  -6.972  1.00  0.00     0.000 Ca
ENDBRANCH  15  18
ENDBRANCH  12  15
ENDBRANCH   1   5
BRANCH   3  20
HETATM   20  C   UNL     1     -21.745  -4.791  -6.274  1.00  0.00     0.110 A 
HETATM   21  C   UNL     1     -23.044  -4.764  -6.922  1.00  0.00     0.217 A 
HETATM   22  C   UNL     1     -22.982  -4.312  -8.295  1.00  0.00     0.090 A 
HETATM   23  O   UNL     1     -24.151  -5.114  -6.341  1.00  0.00    -0.285 OA
HETATM   24  C   UNL     1     -21.777  -4.020  -8.958  1.00  0.00     0.034 A 
HETATM   25  C   UNL     1     -20.541  -4.135  -8.328  1.00  0.00    -0.022 A 
HETATM   26  C   UNL     1     -19.353  -3.877  -9.047  1.00  0.00     0.012 A 
HETATM   27  C   UNL     1     -20.504  -4.511  -6.970  1.00  0.00     0.006 A 
HETATM   28  C   UNL     1     -18.107  -3.988  -8.436  1.00  0.00     0.001 A 
HETATM   29  C   UNL     1     -18.039  -4.363  -7.098  1.00  0.00     0.001 A 
HETATM   30  C   UNL     1     -19.212  -4.612  -6.382  1.00  0.00     0.015 A 
BRANCH  22  31
HETATM   31  C   UNL     1     -24.221  -4.109  -9.138  1.00  0.00     0.180 C 
HETATM   32  O   UNL     1     -24.553  -4.852 -10.047  1.00  0.00    -0.646 OA
BRANCH  31  33
HETATM   33  O   UNL     1     -24.927  -2.995  -8.823  1.00  0.00    -0.773 OA
HETATM   34  H   UNL     1     -25.060  -3.034  -7.833  1.00  0.00     0.167 HD
ENDBRANCH  31  33
ENDBRANCH  22  31
ENDBRANCH   3  20
TORSDOF 6
ENDMDL
MODEL 2
REMARK VINA RESULT:      -8.5      4.247      6.777
REMARK  6 active torsions:
REMARK  status: ('A' for Active; 'I' for Inactive)
REMARK    1  A    between atoms: C_9  and  N_15 
REMARK    2  A    between atoms: C_10  and  S_11 
REMARK    3  A    between atoms: S_11  and  O_13 
REMARK    4  A    between atoms: N_17  and  C_19 
REMARK    5  A    between atoms: C_21  and  C_29 
REMARK    6  A    between atoms: C_29  and  O_31 
ROOT
HETATM    1  N   UNL     1     -18.037  -9.340  -3.398  1.00  0.00    -0.299 N 
ATOM      2  HN  UNL     1     -17.828  -8.372  -3.644  1.00  0.00     0.187 HD
HETATM    3  N   UNL     1     -19.193  -9.740  -3.115  1.00  0.00    -0.296 N 
ATOM      4  HN  UNL     1     -19.435 -10.711  -2.917  1.00  0.00     0.187 HD
ENDROOT
BRANCH   1   5
HETATM    5  C   UNL     1     -17.046 -10.358  -3.345  1.00  0.00     0.072 A 
HETATM    6  C   UNL     1     -16.152 -10.471  -2.274  1.00  0.00     0.033 A 
HETATM    7  C   UNL     1     -15.200 -11.490  -2.217  1.00  0.00     0.014 A 
HETATM    8  C   UNL     1     -15.133 -12.470  -3.218  1.00  0.00    -0.024 A 
HETATM    9  C   UNL     1     -16.024 -12.420  -4.306  1.00  0.00     0.000 A 
HETATM   10  C   UNL     1     -14.163 -13.484  -3.135  1.00  0.00     0.012 A 
HETATM   11  C   UNL     1     -15.936 -13.465  -5.268  1.00  0.00     0.014 A 
HETATM   12  C   UNL     1     -16.923 -11.308  -4.378  1.00  0.00     0.127 A 
HETATM   13  C   UNL     1     -14.941 -14.449  -5.194  1.00  0.00     0.001 A 
HETATM   14  C   UNL     1     -14.068 -14.455  -4.143  1.00  0.00     0.001 A 
BRANCH  12  15
HETATM   15  S   UNL     1     -17.542 -10.854  -6.004  1.00  0.00     0.328 S 
HETATM   16  O   UNL     1     -18.975 -10.902  -5.981  1.00  0.00    -0.191 OA
HETATM   17  O   UNL     1     -16.809 -11.751  -6.925  1.00  0.00    -0.191 OA
BRANCH  15  18
HETATM   18  O   UNL     1     -16.874  -9.589  -6.309  1.00  0.00    -0.086 OA
HETATM   19 CA   UNL     2     -18.209  -8.265  -7.149  1.00  0.00     0.000 Ca
ENDBRANCH  15  18
ENDBRANCH  12  15
ENDBRANCH   1   5
BRANCH   3  20
HETATM   20  C   UNL     1     -20.128  -8.653  -3.106  1.00  0.00     0.110 A 
HETATM   21  C   UNL     1     -20.230  -7.804  -4.279  1.00  0.00     0.217 A 
HETATM   22  C   UNL     1     -21.225  -6.763  -4.141  1.00  0.00     0.090 A 
HETATM   23  O   UNL     1     -19.502  -7.951  -5.345  1.00  0.00    -0.285 OA
HETATM   24  C   UNL     1     -21.950  -6.541  -2.957  1.00  0.00     0.034 A 
HETATM   25  C   UNL     1     -21.768  -7.326  -1.822  1.00  0.00    -0.022 A 
HETATM   26  C   UNL     1     -22.485  -7.037  -0.639  1.00  0.00     0.012 A 
HETATM   27  C   UNL     1     -20.862  -8.404  -1.880  1.00  0.00     0.006 A 
HETATM   28  C   UNL     1     -22.315  -7.808   0.508  1.00  0.00     0.001 A 
HETATM   29  C   UNL     1     -21.424  -8.876   0.482  1.00  0.00     0.001 A 
HETATM   30  C   UNL     1     -20.719  -9.169  -0.689  1.00  0.00     0.015 A 
BRANCH  22  31
HETATM   31  C   UNL     1     -21.575  -5.821  -5.271  1.00  0.00     0.180 C 
HETATM   32  O   UNL     1     -22.714  -5.620  -5.660  1.00  0.00    -0.646 OA
BRANCH  31  33
HETATM   33  O   UNL     1     -20.500  -5.235  -5.854  1.00  0.00    -0.773 OA
HETATM   34  H   UNL     1     -20.612  -5.386  -6.835  1.00  0.00     0.167 HD
ENDBRANCH  31  33
ENDBRANCH  22  31
ENDBRANCH   3  20
TORSDOF 6
ENDMDL
MODEL 3
REMARK VINA RESULT:      -8.2      4.639      6.907
REMARK  6 active torsions:
REMARK  status: ('A' for Active; 'I' for Inactive)
REMARK    1  A    between atoms: C_9  and  N_15 
REMARK    2  A    between atoms: C_10  and  S_11 
REMARK    3  A    between atoms: S_11  and  O_13 
REMARK    4  A    between atoms: N_17  and  C_19 
REMARK    5  A    between atoms: C_21  and  C_29 
REMARK    6  A    between atoms: C_29  and  O_31 
ROOT
HETATM    1  N   UNL     1     -18.334  -9.591  -4.837  1.00  0.00    -0.299 N 
ATOM      2  HN  UNL     1     -17.981  -8.645  -4.980  1.00  0.00     0.187 HD
HETATM    3  N   UNL     1     -19.498  -9.834  -4.434  1.00  0.00    -0.296 N 
ATOM      4  HN  UNL     1     -19.890 -10.770  -4.333  1.00  0.00     0.187 HD
ENDROOT
BRANCH   1   5
HETATM    5  C   UNL     1     -17.553 -10.754  -5.075  1.00  0.00     0.072 A 
HETATM    6  C   UNL     1     -17.746 -11.563  -6.201  1.00  0.00     0.033 A 
HETATM    7  C   UNL     1     -16.957 -12.689  -6.442  1.00  0.00     0.014 A 
HETATM    8  C   UNL     1     -15.906 -13.029  -5.578  1.00  0.00    -0.024 A 
HETATM    9  C   UNL     1     -15.649 -12.238  -4.443  1.00  0.00     0.000 A 
HETATM   10  C   UNL     1     -15.129 -14.169  -5.843  1.00  0.00     0.012 A 
HETATM   11  C   UNL     1     -14.543 -12.607  -3.627  1.00  0.00     0.014 A 
HETATM   12  C   UNL     1     -16.538 -11.146  -4.179  1.00  0.00     0.127 A 
HETATM   13  C   UNL     1     -13.799 -13.767  -3.882  1.00  0.00     0.001 A 
HETATM   14  C   UNL     1     -14.090 -14.535  -4.973  1.00  0.00     0.001 A 
BRANCH  12  15
HETATM   15  S   UNL     1     -16.670 -10.585  -2.476  1.00  0.00     0.328 S 
HETATM   16  O   UNL     1     -15.508 -11.022  -1.757  1.00  0.00    -0.191 OA
HETATM   17  O   UNL     1     -18.002 -11.066  -2.047  1.00  0.00    -0.191 OA
BRANCH  15  18
HETATM   18  O   UNL     1     -16.947  -9.153  -2.583  1.00  0.00    -0.086 OA
HETATM   19 CA   UNL     2     -15.203  -8.075  -2.392  1.00  0.00     0.000 Ca
ENDBRANCH  15  18
ENDBRANCH  12  15
ENDBRANCH   1   5
BRANCH   3  20
HETATM   20  C   UNL     1     -20.205  -8.622  -4.135  1.00  0.00     0.110 A 
HETATM   21  C   UNL     1     -20.232  -7.562  -5.126  1.00  0.00     0.217 A 
HETATM   22  C   UNL     1     -20.996  -6.409  -4.702  1.00  0.00     0.090 A 
HETATM   23  O   UNL     1     -19.632  -7.630  -6.275  1.00  0.00    -0.285 OA
HETATM   24  C   UNL     1     -21.572  -6.292  -3.424  1.00  0.00     0.034 A 
HETATM   25  C   UNL     1     -21.456  -7.297  -2.468  1.00  0.00    -0.022 A 
HETATM   26  C   UNL     1     -22.009  -7.117  -1.181  1.00  0.00     0.012 A 
HETATM   27  C   UNL     1     -20.779  -8.486  -2.810  1.00  0.00     0.006 A 
HETATM   28  C   UNL     1     -21.902  -8.109  -0.209  1.00  0.00     0.001 A 
HETATM   29  C   UNL     1     -21.236  -9.291  -0.517  1.00  0.00     0.001 A 
HETATM   30  C   UNL     1     -20.693  -9.475  -1.791  1.00  0.00     0.015 A 
BRANCH  22  31
HETATM   31  C   UNL     1     -21.246  -5.224  -5.608  1.00  0.00     0.180 C 
HETATM   32  O   UNL     1     -20.421  -4.354  -5.830  1.00  0.00    -0.646 OA
BRANCH  31  33
HETATM   33  O   UNL     1     -22.496  -5.185  -6.132  1.00  0.00    -0.773 OA
HETATM   34  H   UNL     1     -22.827  -6.127  -6.107  1.00  0.00     0.167 HD
ENDBRANCH  31  33
ENDBRANCH  22  31
ENDBRANCH   3  20
TORSDOF 6
ENDMDL
MODEL 4
REMARK VINA RESULT:      -8.0      4.426      6.489
REMARK  6 active torsions:
REMARK  status: ('A' for Active; 'I' for Inactive)
REMARK    1  A    between atoms: C_9  and  N_15 
REMARK    2  A    between atoms: C_10  and  S_11 
REMARK    3  A    between atoms: S_11  and  O_13 
REMARK    4  A    between atoms: N_17  and  C_19 
REMARK    5  A    between atoms: C_21  and  C_29 
REMARK    6  A    between atoms: C_29  and  O_31 
ROOT
HETATM    1  N   UNL     1     -18.787  -9.361  -5.557  1.00  0.00    -0.299 N 
ATOM      2  HN  UNL     1     -19.293  -8.944  -6.338  1.00  0.00     0.187 HD
HETATM    3  N   UNL     1     -19.035  -9.089  -4.357  1.00  0.00    -0.296 N 
ATOM      4  HN  UNL     1     -18.578  -9.531  -3.559  1.00  0.00     0.187 HD
ENDROOT
BRANCH   1   5
HETATM    5  C   UNL     1     -17.736 -10.303  -5.729  1.00  0.00     0.072 A 
HETATM    6  C   UNL     1     -16.408  -9.907  -5.934  1.00  0.00     0.033 A 
HETATM    7  C   UNL     1     -15.378 -10.838  -6.073  1.00  0.00     0.014 A 
HETATM    8  C   UNL     1     -15.632 -12.213  -5.971  1.00  0.00    -0.024 A 
HETATM    9  C   UNL     1     -16.944 -12.668  -5.741  1.00  0.00     0.000 A 
HETATM   10  C   UNL     1     -14.575 -13.129  -6.118  1.00  0.00     0.012 A 
HETATM   11  C   UNL     1     -17.133 -14.071  -5.604  1.00  0.00     0.014 A 
HETATM   12  C   UNL     1     -17.987 -11.689  -5.696  1.00  0.00     0.127 A 
HETATM   13  C   UNL     1     -16.078 -14.975  -5.790  1.00  0.00     0.001 A 
HETATM   14  C   UNL     1     -14.820 -14.509  -6.044  1.00  0.00     0.001 A 
BRANCH  12  15
HETATM   15  S   UNL     1     -19.652 -12.241  -6.093  1.00  0.00     0.328 S 
HETATM   16  O   UNL     1     -20.231 -12.833  -4.922  1.00  0.00    -0.191 OA
HETATM   17  O   UNL     1     -19.470 -13.073  -7.303  1.00  0.00    -0.191 OA
BRANCH  15  18
HETATM   18  O   UNL     1     -20.292 -11.071  -6.693  1.00  0.00    -0.086 OA
HETATM   19 CA   UNL     2     -21.746 -10.333  -5.435  1.00  0.00     0.000 Ca
ENDBRANCH  15  18
ENDBRANCH  12  15
ENDBRANCH   1   5
BRANCH   3  20
HETATM   20  C   UNL     1     -20.045  -8.075  -4.254  1.00  0.00     0.110 A 
HETATM   21  C   UNL     1     -20.295  -7.216  -5.398  1.00  0.00     0.217 A 
HETATM   22  C   UNL     1     -21.351  -6.255  -5.163  1.00  0.00     0.090 A 
HETATM   23  O   UNL     1     -19.641  -7.290  -6.516  1.00  0.00    -0.285 OA
HETATM   24  C   UNL     1     -22.000  -6.109  -3.925  1.00  0.00     0.034 A 
HETATM   25  C   UNL     1     -21.677  -6.898  -2.824  1.00  0.00    -0.022 A 
HETATM   26  C   UNL     1     -22.322  -6.684  -1.585  1.00  0.00     0.012 A 
HETATM   27  C   UNL     1     -20.701  -7.903  -2.973  1.00  0.00     0.006 A 
HETATM   28  C   UNL     1     -22.012  -7.460  -0.472  1.00  0.00     0.001 A 
HETATM   29  C   UNL     1     -21.049  -8.457  -0.588  1.00  0.00     0.001 A 
HETATM   30  C   UNL     1     -20.413  -8.676  -1.813  1.00  0.00     0.015 A 
BRANCH  22  31
HETATM   31  C   UNL     1     -21.853  -5.322  -6.243  1.00  0.00     0.180 C 
HETATM   32  O   UNL     1     -23.020  -4.988  -6.363  1.00  0.00    -0.646 OA
BRANCH  31  33
HETATM   33  O   UNL     1     -20.892  -4.910  -7.105  1.00  0.00    -0.773 OA
HETATM   34  H   UNL     1     -20.579  -4.028  -6.756  1.00  0.00     0.167 HD
ENDBRANCH  31  33
ENDBRANCH  22  31
ENDBRANCH   3  20
TORSDOF 6
ENDMDL
MODEL 5
REMARK VINA RESULT:      -8.0      5.015      7.823
REMARK  6 active torsions:
REMARK  status: ('A' for Active; 'I' for Inactive)
REMARK    1  A    between atoms: C_9  and  N_15 
REMARK    2  A    between atoms: C_10  and  S_11 
REMARK    3  A    between atoms: S_11  and  O_13 
REMARK    4  A    between atoms: N_17  and  C_19 
REMARK    5  A    between atoms: C_21  and  C_29 
REMARK    6  A    between atoms: C_29  and  O_31 
ROOT
HETATM    1  N   UNL     1     -18.384 -10.844  -3.561  1.00  0.00    -0.299 N 
ATOM      2  HN  UNL     1     -17.591 -10.293  -3.889  1.00  0.00     0.187 HD
HETATM    3  N   UNL     1     -18.640 -11.996  -3.990  1.00  0.00    -0.296 N 
ATOM      4  HN  UNL     1     -19.395 -12.587  -3.642  1.00  0.00     0.187 HD
ENDROOT
BRANCH   1   5
HETATM    5  C   UNL     1     -19.298 -10.380  -2.578  1.00  0.00     0.072 A 
HETATM    6  C   UNL     1     -19.533 -11.081  -1.389  1.00  0.00     0.033 A 
HETATM    7  C   UNL     1     -20.412 -10.605  -0.416  1.00  0.00     0.014 A 
HETATM    8  C   UNL     1     -21.066  -9.375  -0.577  1.00  0.00    -0.024 A 
HETATM    9  C   UNL     1     -20.849  -8.614  -1.742  1.00  0.00     0.000 A 
HETATM   10  C   UNL     1     -21.948  -8.919   0.418  1.00  0.00     0.012 A 
HETATM   11  C   UNL     1     -21.507  -7.355  -1.830  1.00  0.00     0.014 A 
HETATM   12  C   UNL     1     -20.014  -9.179  -2.758  1.00  0.00     0.127 A 
HETATM   13  C   UNL     1     -22.412  -6.930  -0.848  1.00  0.00     0.001 A 
HETATM   14  C   UNL     1     -22.629  -7.702   0.257  1.00  0.00     0.001 A 
BRANCH  12  15
HETATM   15  S   UNL     1     -20.266  -8.606  -4.443  1.00  0.00     0.328 S 
HETATM   16  O   UNL     1     -21.104  -7.443  -4.413  1.00  0.00    -0.191 OA
HETATM   17  O   UNL     1     -20.737  -9.811  -5.161  1.00  0.00    -0.191 OA
BRANCH  15  18
HETATM   18  O   UNL     1     -18.917  -8.501  -4.999  1.00  0.00    -0.086 OA
HETATM   19 CA   UNL     2     -18.989  -7.687  -6.890  1.00  0.00     0.000 Ca
ENDBRANCH  15  18
ENDBRANCH  12  15
ENDBRANCH   1   5
BRANCH   3  20
HETATM   20  C   UNL     1     -17.733 -12.373  -5.036  1.00  0.00     0.110 A 
HETATM   21  C   UNL     1     -16.305 -12.328  -4.776  1.00  0.00     0.217 A 
HETATM   22  C   UNL     1     -15.510 -12.753  -5.907  1.00  0.00     0.090 A 
HETATM   23  O   UNL     1     -15.786 -11.942  -3.650  1.00  0.00    -0.285 OA
HETATM   24  C   UNL     1     -16.061 -13.084  -7.157  1.00  0.00     0.034 A 
HETATM   25  C   UNL     1     -17.432 -13.038  -7.395  1.00  0.00    -0.022 A 
HETATM   26  C   UNL     1     -17.938 -13.333  -8.680  1.00  0.00     0.012 A 
HETATM   27  C   UNL     1     -18.294 -12.692  -6.334  1.00  0.00     0.006 A 
HETATM   28  C   UNL     1     -19.306 -13.290  -8.939  1.00  0.00     0.001 A 
HETATM   29  C   UNL     1     -20.180 -12.948  -7.913  1.00  0.00     0.001 A 
HETATM   30  C   UNL     1     -19.684 -12.662  -6.638  1.00  0.00     0.015 A 
BRANCH  22  31
HETATM   31  C   UNL     1     -14.005 -12.882  -5.837  1.00  0.00     0.180 C 
HETATM   32  O   UNL     1     -13.382 -13.828  -6.291  1.00  0.00    -0.646 OA
BRANCH  31  33
HETATM   33  O   UNL     1     -13.394 -11.863  -5.184  1.00  0.00    -0.773 OA
HETATM   34  H   UNL     1     -13.903 -11.747  -4.332  1.00  0.00     0.167 HD
ENDBRANCH  31  33
ENDBRANCH  22  31
ENDBRANCH   3  20
TORSDOF 6
ENDMDL
MODEL 6
REMARK VINA RESULT:      -7.8      5.851      8.664
REMARK  6 active torsions:
REMARK  status: ('A' for Active; 'I' for Inactive)
REMARK    1  A    between atoms: C_9  and  N_15 
REMARK    2  A    between atoms: C_10  and  S_11 
REMARK    3  A    between atoms: S_11  and  O_13 
REMARK    4  A    between atoms: N_17  and  C_19 
REMARK    5  A    between atoms: C_21  and  C_29 
REMARK    6  A    between atoms: C_29  and  O_31 
ROOT
HETATM    1  N   UNL     1     -18.644 -10.922  -2.849  1.00  0.00    -0.299 N 
ATOM      2  HN  UNL     1     -18.443 -11.053  -1.858  1.00  0.00     0.187 HD
HETATM    3  N   UNL     1     -19.742 -10.484  -3.273  1.00  0.00    -0.296 N 
ATOM      4  HN  UNL     1     -19.948 -10.296  -4.254  1.00  0.00     0.187 HD
ENDROOT
BRANCH   1   5
HETATM    5  C   UNL     1     -17.709 -11.221  -3.877  1.00  0.00     0.072 A 
HETATM    6  C   UNL     1     -18.007 -11.033  -5.232  1.00  0.00     0.033 A 
HETATM    7  C   UNL     1     -17.073 -11.302  -6.233  1.00  0.00     0.014 A 
HETATM    8  C   UNL     1     -15.779 -11.736  -5.913  1.00  0.00    -0.024 A 
HETATM    9  C   UNL     1     -15.415 -11.918  -4.565  1.00  0.00     0.000 A 
HETATM   10  C   UNL     1     -14.859 -12.002  -6.942  1.00  0.00     0.012 A 
HETATM   11  C   UNL     1     -14.076 -12.318  -4.300  1.00  0.00     0.014 A 
HETATM   12  C   UNL     1     -16.428 -11.722  -3.572  1.00  0.00     0.127 A 
HETATM   13  C   UNL     1     -13.180 -12.616  -5.336  1.00  0.00     0.001 A 
HETATM   14  C   UNL     1     -13.568 -12.460  -6.636  1.00  0.00     0.001 A 
BRANCH  12  15
HETATM   15  S   UNL     1     -16.221 -12.578  -2.005  1.00  0.00     0.328 S 
HETATM   16  O   UNL     1     -15.066 -13.424  -2.093  1.00  0.00    -0.191 OA
HETATM   17  O   UNL     1     -17.543 -13.194  -1.760  1.00  0.00    -0.191 OA
BRANCH  15  18
HETATM   18  O   UNL     1     -16.253 -11.516  -1.001  1.00  0.00    -0.086 OA
HETATM   19 CA   UNL     2     -15.387  -9.804  -1.748  1.00  0.00     0.000 Ca
ENDBRANCH  15  18
ENDBRANCH  12  15
ENDBRANCH   1   5
BRANCH   3  20
HETATM   20  C   UNL     1     -20.668 -10.280  -2.196  1.00  0.00     0.110 A 
HETATM   21  C   UNL     1     -21.143 -11.433  -1.452  1.00  0.00     0.217 A 
HETATM   22  C   UNL     1     -22.053 -11.082  -0.384  1.00  0.00     0.090 A 
HETATM   23  O   UNL     1     -20.797 -12.657  -1.713  1.00  0.00    -0.285 OA
HETATM   24  C   UNL     1     -22.503  -9.770  -0.153  1.00  0.00     0.034 A 
HETATM   25  C   UNL     1     -22.088  -8.698  -0.940  1.00  0.00    -0.022 A 
HETATM   26  C   UNL     1     -22.603  -7.404  -0.702  1.00  0.00     0.012 A 
HETATM   27  C   UNL     1     -21.154  -8.933  -1.969  1.00  0.00     0.006 A 
HETATM   28  C   UNL     1     -22.203  -6.320  -1.480  1.00  0.00     0.001 A 
HETATM   29  C   UNL     1     -21.286  -6.522  -2.505  1.00  0.00     0.001 A 
HETATM   30  C   UNL     1     -20.770  -7.800  -2.739  1.00  0.00     0.015 A 
BRANCH  22  31
HETATM   31  C   UNL     1     -22.598 -12.106   0.587  1.00  0.00     0.180 C 
HETATM   32  O   UNL     1     -23.788 -12.288   0.784  1.00  0.00    -0.646 OA
BRANCH  31  33
HETATM   33  O   UNL     1     -21.642 -12.791   1.260  1.00  0.00    -0.773 OA
HETATM   34  H   UNL     1     -20.872 -12.868   0.628  1.00  0.00     0.167 HD
ENDBRANCH  31  33
ENDBRANCH  22  31
ENDBRANCH   3  20
TORSDOF 6
ENDMDL
MODEL 7
REMARK VINA RESULT:      -7.7      4.934      6.803
REMARK  6 active torsions:
REMARK  status: ('A' for Active; 'I' for Inactive)
REMARK    1  A    between atoms: C_9  and  N_15 
REMARK    2  A    between atoms: C_10  and  S_11 
REMARK    3  A    between atoms: S_11  and  O_13 
REMARK    4  A    between atoms: N_17  and  C_19 
REMARK    5  A    between atoms: C_21  and  C_29 
REMARK    6  A    between atoms: C_29  and  O_31 
ROOT
HETATM    1  N   UNL     1     -18.120  -9.476  -4.677  1.00  0.00    -0.299 N 
ATOM      2  HN  UNL     1     -17.815  -8.902  -3.892  1.00  0.00     0.187 HD
HETATM    3  N   UNL     1     -19.188  -9.266  -5.304  1.00  0.00    -0.296 N 
ATOM      4  HN  UNL     1     -19.488  -9.794  -6.124  1.00  0.00     0.187 HD
ENDROOT
BRANCH   1   5
HETATM    5  C   UNL     1     -17.377 -10.586  -5.162  1.00  0.00     0.072 A 
HETATM    6  C   UNL     1     -17.736 -11.269  -6.330  1.00  0.00     0.033 A 
HETATM    7  C   UNL     1     -16.985 -12.341  -6.815  1.00  0.00     0.014 A 
HETATM    8  C   UNL     1     -15.810 -12.748  -6.166  1.00  0.00    -0.024 A 
HETATM    9  C   UNL     1     -15.387 -12.082  -5.000  1.00  0.00     0.000 A 
HETATM   10  C   UNL     1     -15.074 -13.832  -6.675  1.00  0.00     0.012 A 
HETATM   11  C   UNL     1     -14.166 -12.512  -4.411  1.00  0.00     0.014 A 
HETATM   12  C   UNL     1     -16.233 -11.049  -4.482  1.00  0.00     0.127 A 
HETATM   13  C   UNL     1     -13.461 -13.617  -4.906  1.00  0.00     0.001 A 
HETATM   14  C   UNL     1     -13.911 -14.266  -6.020  1.00  0.00     0.001 A 
BRANCH  12  15
HETATM   15  S   UNL     1     -16.105 -10.684  -2.726  1.00  0.00     0.328 S 
HETATM   16  O   UNL     1     -15.154 -11.583  -2.138  1.00  0.00    -0.191 OA
HETATM   17  O   UNL     1     -17.507 -10.714  -2.255  1.00  0.00    -0.191 OA
BRANCH  15  18
HETATM   18  O   UNL     1     -15.856  -9.244  -2.669  1.00  0.00    -0.086 OA
HETATM   19 CA   UNL     2     -15.056  -8.590  -4.451  1.00  0.00     0.000 Ca
ENDBRANCH  15  18
ENDBRANCH  12  15
ENDBRANCH   1   5
BRANCH   3  20
HETATM   20  C   UNL     1     -19.930  -8.188  -4.717  1.00  0.00     0.110 A 
HETATM   21  C   UNL     1     -20.517  -8.375  -3.402  1.00  0.00     0.217 A 
HETATM   22  C   UNL     1     -21.217  -7.204  -2.923  1.00  0.00     0.090 A 
HETATM   23  O   UNL     1     -20.433  -9.477  -2.721  1.00  0.00    -0.285 OA
HETATM   24  C   UNL     1     -21.390  -6.039  -3.692  1.00  0.00     0.034 A 
HETATM   25  C   UNL     1     -20.882  -5.925  -4.984  1.00  0.00    -0.022 A 
HETATM   26  C   UNL     1     -21.120  -4.755  -5.738  1.00  0.00     0.012 A 
HETATM   27  C   UNL     1     -20.132  -6.995  -5.514  1.00  0.00     0.006 A 
HETATM   28  C   UNL     1     -20.623  -4.622  -7.032  1.00  0.00     0.001 A 
HETATM   29  C   UNL     1     -19.883  -5.663  -7.584  1.00  0.00     0.001 A 
HETATM   30  C   UNL     1     -19.640  -6.820  -6.838  1.00  0.00     0.015 A 
BRANCH  22  31
HETATM   31  C   UNL     1     -21.824  -7.131  -1.539  1.00  0.00     0.180 C 
HETATM   32  O   UNL     1     -22.745  -6.389  -1.240  1.00  0.00    -0.646 OA
BRANCH  31  33
HETATM   33  O   UNL     1     -21.226  -7.941  -0.632  1.00  0.00    -0.773 OA
HETATM   34  H   UNL     1     -21.965  -8.287  -0.055  1.00  0.00     0.167 HD
ENDBRANCH  31  33
ENDBRANCH  22  31
ENDBRANCH   3  20
TORSDOF 6
ENDMDL
MODEL 8
REMARK VINA RESULT:      -7.7      5.239      8.772
REMARK  6 active torsions:
REMARK  status: ('A' for Active; 'I' for Inactive)
REMARK    1  A    between atoms: C_9  and  N_15 
REMARK    2  A    between atoms: C_10  and  S_11 
REMARK    3  A    between atoms: S_11  and  O_13 
REMARK    4  A    between atoms: N_17  and  C_19 
REMARK    5  A    between atoms: C_21  and  C_29 
REMARK    6  A    between atoms: C_29  and  O_31 
ROOT
HETATM    1  N   UNL     1     -18.059 -11.421  -2.379  1.00  0.00    -0.299 N 
ATOM      2  HN  UNL     1     -18.218 -12.170  -3.052  1.00  0.00     0.187 HD
HETATM    3  N   UNL     1     -16.915 -10.998  -2.083  1.00  0.00    -0.296 N 
ATOM      4  HN  UNL     1     -16.734 -10.217  -1.453  1.00  0.00     0.187 HD
ENDROOT
BRANCH   1   5
HETATM    5  C   UNL     1     -19.113 -10.761  -1.689  1.00  0.00     0.072 A 
HETATM    6  C   UNL     1     -19.627 -11.244  -0.480  1.00  0.00     0.033 A 
HETATM    7  C   UNL     1     -20.643 -10.576   0.206  1.00  0.00     0.014 A 
HETATM    8  C   UNL     1     -21.159  -9.364  -0.275  1.00  0.00    -0.024 A 
HETATM    9  C   UNL     1     -20.662  -8.818  -1.474  1.00  0.00     0.000 A 
HETATM   10  C   UNL     1     -22.183  -8.713   0.434  1.00  0.00     0.012 A 
HETATM   11  C   UNL     1     -21.194  -7.566  -1.889  1.00  0.00     0.014 A 
HETATM   12  C   UNL     1     -19.687  -9.579  -2.196  1.00  0.00     0.127 A 
HETATM   13  C   UNL     1     -22.240  -6.946  -1.193  1.00  0.00     0.001 A 
HETATM   14  C   UNL     1     -22.726  -7.513  -0.050  1.00  0.00     0.001 A 
BRANCH  12  15
HETATM   15  S   UNL     1     -19.560  -9.285  -3.965  1.00  0.00     0.328 S 
HETATM   16  O   UNL     1     -20.535  -8.302  -4.340  1.00  0.00    -0.191 OA
HETATM   17  O   UNL     1     -19.643 -10.639  -4.556  1.00  0.00    -0.191 OA
BRANCH  15  18
HETATM   18  O   UNL     1     -18.142  -9.006  -4.188  1.00  0.00    -0.086 OA
HETATM   19 CA   UNL     2     -17.694  -9.159  -6.193  1.00  0.00     0.000 Ca
ENDBRANCH  15  18
ENDBRANCH  12  15
ENDBRANCH   1   5
BRANCH   3  20
HETATM   20  C   UNL     1     -15.895 -11.756  -2.748  1.00  0.00     0.110 A 
HETATM   21  C   UNL     1     -15.740 -11.616  -4.185  1.00  0.00     0.217 A 
HETATM   22  C   UNL     1     -14.664 -12.420  -4.720  1.00  0.00     0.090 A 
HETATM   23  O   UNL     1     -16.489 -10.854  -4.923  1.00  0.00    -0.285 OA
HETATM   24  C   UNL     1     -13.909 -13.316  -3.942  1.00  0.00     0.034 A 
HETATM   25  C   UNL     1     -14.140 -13.485  -2.579  1.00  0.00    -0.022 A 
HETATM   26  C   UNL     1     -13.389 -14.431  -1.846  1.00  0.00     0.012 A 
HETATM   27  C   UNL     1     -15.130 -12.699  -1.956  1.00  0.00     0.006 A 
HETATM   28  C   UNL     1     -13.605 -14.617  -0.483  1.00  0.00     0.001 A 
HETATM   29  C   UNL     1     -14.579 -13.858   0.159  1.00  0.00     0.001 A 
HETATM   30  C   UNL     1     -15.320 -12.917  -0.562  1.00  0.00     0.015 A 
BRANCH  22  31
HETATM   31  C   UNL     1     -14.253 -12.361  -6.174  1.00  0.00     0.180 C 
HETATM   32  O   UNL     1     -13.116 -12.565  -6.568  1.00  0.00    -0.646 OA
BRANCH  31  33
HETATM   33  O   UNL     1     -15.258 -12.021  -7.018  1.00  0.00    -0.773 OA
HETATM   34  H   UNL     1     -16.005 -12.652  -6.813  1.00  0.00     0.167 HD
ENDBRANCH  31  33
ENDBRANCH  22  31
ENDBRANCH   3  20
TORSDOF 6
ENDMDL
MODEL 9
REMARK VINA RESULT:      -7.7      5.171      7.200
REMARK  6 active torsions:
REMARK  status: ('A' for Active; 'I' for Inactive)
REMARK    1  A    between atoms: C_9  and  N_15 
REMARK    2  A    between atoms: C_10  and  S_11 
REMARK    3  A    between atoms: S_11  and  O_13 
REMARK    4  A    between atoms: N_17  and  C_19 
REMARK    5  A    between atoms: C_21  and  C_29 
REMARK    6  A    between atoms: C_29  and  O_31 
ROOT
HETATM    1  N   UNL     1     -19.541 -10.707  -4.342  1.00  0.00    -0.299 N 
ATOM      2  HN  UNL     1     -19.884 -11.657  -4.483  1.00  0.00     0.187 HD
HETATM    3  N   UNL     1     -18.501 -10.267  -4.892  1.00  0.00    -0.296 N 
ATOM      4  HN  UNL     1     -18.167  -9.307  -4.808  1.00  0.00     0.187 HD
ENDROOT
BRANCH   1   5
HETATM    5  C   UNL     1     -20.195  -9.762  -3.506  1.00  0.00     0.072 A 
HETATM    6  C   UNL     1     -20.263  -8.402  -3.833  1.00  0.00     0.033 A 
HETATM    7  C   UNL     1     -20.931  -7.485  -3.021  1.00  0.00     0.014 A 
HETATM    8  C   UNL     1     -21.598  -7.902  -1.860  1.00  0.00    -0.024 A 
HETATM    9  C   UNL     1     -21.583  -9.262  -1.495  1.00  0.00     0.000 A 
HETATM   10  C   UNL     1     -22.260  -6.956  -1.059  1.00  0.00     0.012 A 
HETATM   11  C   UNL     1     -22.313  -9.632  -0.332  1.00  0.00     0.014 A 
HETATM   12  C   UNL     1     -20.810 -10.157  -2.302  1.00  0.00     0.127 A 
HETATM   13  C   UNL     1     -22.938  -8.674   0.478  1.00  0.00     0.001 A 
HETATM   14  C   UNL     1     -22.910  -7.357   0.118  1.00  0.00     0.001 A 
BRANCH  12  15
HETATM   15  S   UNL     1     -20.219 -11.666  -1.522  1.00  0.00     0.328 S 
HETATM   16  O   UNL     1     -21.259 -12.653  -1.583  1.00  0.00    -0.191 OA
HETATM   17  O   UNL     1     -19.735 -11.215  -0.199  1.00  0.00    -0.191 OA
BRANCH  15  18
HETATM   18  O   UNL     1     -18.939 -11.936  -2.174  1.00  0.00    -0.086 OA
HETATM   19 CA   UNL     2     -17.491 -10.659  -1.456  1.00  0.00     0.000 Ca
ENDBRANCH  15  18
ENDBRANCH  12  15
ENDBRANCH   1   5
BRANCH   3  20
HETATM   20  C   UNL     1     -17.845 -11.290  -5.653  1.00  0.00     0.110 A 
HETATM   21  C   UNL     1     -18.556 -11.907  -6.759  1.00  0.00     0.217 A 
HETATM   22  C   UNL     1     -17.770 -12.905  -7.450  1.00  0.00     0.090 A 
HETATM   23  O   UNL     1     -19.773 -11.606  -7.095  1.00  0.00    -0.285 OA
HETATM   24  C   UNL     1     -16.487 -13.302  -7.035  1.00  0.00     0.034 A 
HETATM   25  C   UNL     1     -15.867 -12.744  -5.920  1.00  0.00    -0.022 A 
HETATM   26  C   UNL     1     -14.596 -13.207  -5.511  1.00  0.00     0.012 A 
HETATM   27  C   UNL     1     -16.531 -11.720  -5.215  1.00  0.00     0.006 A 
HETATM   28  C   UNL     1     -13.961 -12.664  -4.397  1.00  0.00     0.001 A 
HETATM   29  C   UNL     1     -14.594 -11.655  -3.679  1.00  0.00     0.001 A 
HETATM   30  C   UNL     1     -15.848 -11.191  -4.085  1.00  0.00     0.015 A 
BRANCH  22  31
HETATM   31  C   UNL     1     -18.267 -13.610  -8.693  1.00  0.00     0.180 C 
HETATM   32  O   UNL     1     -17.846 -14.689  -9.076  1.00  0.00    -0.646 OA
BRANCH  31  33
HETATM   33  O   UNL     1     -19.207 -12.917  -9.382  1.00  0.00    -0.773 OA
HETATM   34  H   UNL     1     -18.723 -12.501 -10.151  1.00  0.00     0.167 HD
ENDBRANCH  31  33
ENDBRANCH  22  31
ENDBRANCH   3  20
TORSDOF 6
ENDMDL
