MODEL 1
REMARK VINA RESULT:      -5.0      0.000      0.000
REMARK  5 active torsions:
REMARK  status: ('A' for Active; 'I' for Inactive)
REMARK    1  A    between atoms: C_1  and  C_2 
REMARK    2  A    between atoms: C_1  and  C_6 
REMARK    3  A    between atoms: C_2  and  C_3 
REMARK    4  A    between atoms: C_3  and  O_5 
REMARK    5  A    between atoms: C_6  and  O_8 
ROOT
HETATM    1  C   UNL     1     -22.926  -3.008 -11.464  1.00  0.00     0.120 C 
ENDROOT
BRANCH   1   2
HETATM    2  C   UNL     1     -23.612  -4.154 -10.727  1.00  0.00     0.120 C 
BRANCH   2   3
HETATM    3  C   UNL     1     -24.584  -3.620  -9.709  1.00  0.00     0.139 C 
HETATM    4  O   UNL     1     -25.669  -3.127  -9.975  1.00  0.00    -0.650 OA
BRANCH   3   5
HETATM    5  O   UNL     1     -24.130  -3.740  -8.442  1.00  0.00    -0.776 OA
HETATM    6  H   UNL     1     -24.837  -3.831  -7.774  1.00  0.00     0.167 HD
ENDBRANCH   3   5
ENDBRANCH   2   3
ENDBRANCH   1   2
BRANCH   1   7
HETATM    7  C   UNL     1     -23.365  -2.946 -12.901  1.00  0.00     0.139 C 
HETATM    8  O   UNL     1     -24.494  -2.669 -13.275  1.00  0.00    -0.650 OA
BRANCH   7   9
HETATM    9  O   UNL     1     -22.362  -3.234 -13.761  1.00  0.00    -0.776 OA
HETATM   10  H   UNL     1     -21.520  -3.469 -13.323  1.00  0.00     0.167 HD
ENDBRANCH   7   9
ENDBRANCH   1   7
TORSDOF 5
ENDMDL
MODEL 2
REMARK VINA RESULT:      -5.0      0.033      3.826
REMARK  5 active torsions:
REMARK  status: ('A' for Active; 'I' for Inactive)
REMARK    1  A    between atoms: C_1  and  C_2 
REMARK    2  A    between atoms: C_1  and  C_6 
REMARK    3  A    between atoms: C_2  and  C_3 
REMARK    4  A    between atoms: C_3  and  O_5 
REMARK    5  A    between atoms: C_6  and  O_8 
ROOT
HETATM    1  C   UNL     1     -23.597  -4.148 -10.704  1.00  0.00     0.120 C 
ENDROOT
BRANCH   1   2
HETATM    2  C   UNL     1     -22.903  -3.014 -11.452  1.00  0.00     0.120 C 
BRANCH   2   3
HETATM    3  C   UNL     1     -23.358  -2.971 -12.886  1.00  0.00     0.139 C 
HETATM    4  O   UNL     1     -24.501  -2.737 -13.247  1.00  0.00    -0.650 OA
BRANCH   3   5
HETATM    5  O   UNL     1     -22.357  -3.224 -13.758  1.00  0.00    -0.776 OA
HETATM    6  H   UNL     1     -22.529  -2.903 -14.664  1.00  0.00     0.167 HD
ENDBRANCH   3   5
ENDBRANCH   2   3
ENDBRANCH   1   2
BRANCH   1   7
HETATM    7  C   UNL     1     -24.576  -3.613  -9.694  1.00  0.00     0.139 C 
HETATM    8  O   UNL     1     -25.659  -3.122  -9.966  1.00  0.00    -0.650 OA
BRANCH   7   9
HETATM    9  O   UNL     1     -24.126  -3.734  -8.425  1.00  0.00    -0.776 OA
HETATM   10  H   UNL     1     -23.176  -3.530  -8.320  1.00  0.00     0.167 HD
ENDBRANCH   7   9
ENDBRANCH   1   7
TORSDOF 5
ENDMDL
MODEL 3
REMARK VINA RESULT:      -4.8     15.691     16.310
REMARK  5 active torsions:
REMARK  status: ('A' for Active; 'I' for Inactive)
REMARK    1  A    between atoms: C_1  and  C_2 
REMARK    2  A    between atoms: C_1  and  C_6 
REMARK    3  A    between atoms: C_2  and  C_3 
REMARK    4  A    between atoms: C_3  and  O_5 
REMARK    5  A    between atoms: C_6  and  O_8 
ROOT
HETATM    1  C   UNL     1     -29.906 -15.053 -21.605  1.00  0.00     0.120 C 
ENDROOT
BRANCH   1   2
HETATM    2  C   UNL     1     -29.803 -15.403 -20.124  1.00  0.00     0.120 C 
BRANCH   2   3
HETATM    3  C   UNL     1     -30.073 -14.190 -19.275  1.00  0.00     0.139 C 
HETATM    4  O   UNL     1     -29.321 -13.233 -19.172  1.00  0.00    -0.650 OA
BRANCH   3   5
HETATM    5  O   UNL     1     -31.253 -14.262 -18.621  1.00  0.00    -0.776 OA
HETATM    6  H   UNL     1     -31.192 -14.054 -17.668  1.00  0.00     0.167 HD
ENDBRANCH   3   5
ENDBRANCH   2   3
ENDBRANCH   1   2
BRANCH   1   7
HETATM    7  C   UNL     1     -31.340 -15.017 -22.057  1.00  0.00     0.139 C 
HETATM    8  O   UNL     1     -32.086 -15.982 -22.087  1.00  0.00    -0.650 OA
BRANCH   7   9
HETATM    9  O   UNL     1     -31.731 -13.780 -22.437  1.00  0.00    -0.776 OA
HETATM   10  H   UNL     1     -32.683 -13.712 -22.649  1.00  0.00     0.167 HD
ENDBRANCH   7   9
ENDBRANCH   1   7
TORSDOF 5
ENDMDL
MODEL 4
REMARK VINA RESULT:      -4.5      9.969     10.581
REMARK  5 active torsions:
REMARK  status: ('A' for Active; 'I' for Inactive)
REMARK    1  A    between atoms: C_1  and  C_2 
REMARK    2  A    between atoms: C_1  and  C_6 
REMARK    3  A    between atoms: C_2  and  C_3 
REMARK    4  A    between atoms: C_3  and  O_5 
REMARK    5  A    between atoms: C_6  and  O_8 
ROOT
HETATM    1  C   UNL     1     -33.257  -3.155 -11.401  1.00  0.00     0.120 C 
ENDROOT
BRANCH   1   2
HETATM    2  C   UNL     1     -33.974  -4.250 -10.619  1.00  0.00     0.120 C 
BRANCH   2   3
HETATM    3  C   UNL     1     -34.234  -5.443 -11.498  1.00  0.00     0.139 C 
HETATM    4  O   UNL     1     -35.054  -5.475 -12.403  1.00  0.00    -0.650 OA
BRANCH   3   5
HETATM    5  O   UNL     1     -33.456  -6.503 -11.185  1.00  0.00    -0.776 OA
HETATM    6  H   UNL     1     -33.864  -7.368 -11.382  1.00  0.00     0.167 HD
ENDBRANCH   3   5
ENDBRANCH   2   3
ENDBRANCH   1   2
BRANCH   1   7
HETATM    7  C   UNL     1     -34.233  -2.152 -11.952  1.00  0.00     0.139 C 
HETATM    8  O   UNL     1     -34.596  -1.141 -11.373  1.00  0.00    -0.650 OA
BRANCH   7   9
HETATM    9  O   UNL     1     -34.681  -2.489 -13.182  1.00  0.00    -0.776 OA
HETATM   10  H   UNL     1     -34.117  -3.140 -13.645  1.00  0.00     0.167 HD
ENDBRANCH   7   9
ENDBRANCH   1   7
TORSDOF 5
ENDMDL
MODEL 5
REMARK VINA RESULT:      -4.5     10.229     10.902
REMARK  5 active torsions:
REMARK  status: ('A' for Active; 'I' for Inactive)
REMARK    1  A    between atoms: C_1  and  C_2 
REMARK    2  A    between atoms: C_1  and  C_6 
REMARK    3  A    between atoms: C_2  and  C_3 
REMARK    4  A    between atoms: C_3  and  O_5 
REMARK    5  A    between atoms: C_6  and  O_8 
ROOT
HETATM    1  C   UNL     1     -34.050  -4.426 -10.728  1.00  0.00     0.120 C 
ENDROOT
BRANCH   1   2
HETATM    2  C   UNL     1     -33.263  -3.378 -11.509  1.00  0.00     0.120 C 
BRANCH   2   3
HETATM    3  C   UNL     1     -34.162  -2.247 -11.930  1.00  0.00     0.139 C 
HETATM    4  O   UNL     1     -34.420  -1.271 -11.242  1.00  0.00    -0.650 OA
BRANCH   3   5
HETATM    5  O   UNL     1     -34.669  -2.418 -13.171  1.00  0.00    -0.776 OA
HETATM    6  H   UNL     1     -34.829  -3.351 -13.410  1.00  0.00     0.167 HD
ENDBRANCH   3   5
ENDBRANCH   2   3
ENDBRANCH   1   2
BRANCH   1   7
HETATM    7  C   UNL     1     -34.545  -5.520 -11.633  1.00  0.00     0.139 C 
HETATM    8  O   UNL     1     -35.131  -5.341 -12.688  1.00  0.00    -0.650 OA
BRANCH   7   9
HETATM    9  O   UNL     1     -34.270  -6.753 -11.151  1.00  0.00    -0.776 OA
HETATM   10  H   UNL     1     -34.537  -6.883 -10.220  1.00  0.00     0.167 HD
ENDBRANCH   7   9
ENDBRANCH   1   7
TORSDOF 5
ENDMDL
MODEL 6
REMARK VINA RESULT:      -4.5      6.464      7.503
REMARK  5 active torsions:
REMARK  status: ('A' for Active; 'I' for Inactive)
REMARK    1  A    between atoms: C_1  and  C_2 
REMARK    2  A    between atoms: C_1  and  C_6 
REMARK    3  A    between atoms: C_2  and  C_3 
REMARK    4  A    between atoms: C_3  and  O_5 
REMARK    5  A    between atoms: C_6  and  O_8 
ROOT
HETATM    1  C   UNL     1     -26.635  -6.358 -16.505  1.00  0.00     0.120 C 
ENDROOT
BRANCH   1   2
HETATM    2  C   UNL     1     -27.770  -7.104 -15.809  1.00  0.00     0.120 C 
BRANCH   2   3
HETATM    3  C   UNL     1     -29.013  -7.084 -16.657  1.00  0.00     0.139 C 
HETATM    4  O   UNL     1     -29.681  -6.088 -16.888  1.00  0.00    -0.650 OA
BRANCH   3   5
HETATM    5  O   UNL     1     -29.329  -8.302 -17.150  1.00  0.00    -0.776 OA
HETATM    6  H   UNL     1     -29.418  -8.326 -18.122  1.00  0.00     0.167 HD
ENDBRANCH   3   5
ENDBRANCH   2   3
ENDBRANCH   1   2
BRANCH   1   7
HETATM    7  C   UNL     1     -25.313  -6.647 -15.849  1.00  0.00     0.139 C 
HETATM    8  O   UNL     1     -24.761  -7.736 -15.842  1.00  0.00    -0.650 OA
BRANCH   7   9
HETATM    9  O   UNL     1     -24.781  -5.556 -15.254  1.00  0.00    -0.776 OA
HETATM   10  H   UNL     1     -24.600  -4.818 -15.869  1.00  0.00     0.167 HD
ENDBRANCH   7   9
ENDBRANCH   1   7
TORSDOF 5
ENDMDL
MODEL 7
REMARK VINA RESULT:      -4.5      2.538      3.196
REMARK  5 active torsions:
REMARK  status: ('A' for Active; 'I' for Inactive)
REMARK    1  A    between atoms: C_1  and  C_2 
REMARK    2  A    between atoms: C_1  and  C_6 
REMARK    3  A    between atoms: C_2  and  C_3 
REMARK    4  A    between atoms: C_3  and  O_5 
REMARK    5  A    between atoms: C_6  and  O_8 
ROOT
HETATM    1  C   UNL     1     -23.360  -3.135 -12.884  1.00  0.00     0.120 C 
ENDROOT
BRANCH   1   2
HETATM    2  C   UNL     1     -22.225  -2.616 -12.008  1.00  0.00     0.120 C 
BRANCH   2   3
HETATM    3  C   UNL     1     -21.426  -3.760 -11.445  1.00  0.00     0.139 C 
HETATM    4  O   UNL     1     -21.885  -4.652 -10.748  1.00  0.00    -0.650 OA
BRANCH   3   5
HETATM    5  O   UNL     1     -20.121  -3.705 -11.790  1.00  0.00    -0.776 OA
HETATM    6  H   UNL     1     -19.522  -4.132 -11.148  1.00  0.00     0.167 HD
ENDBRANCH   3   5
ENDBRANCH   2   3
ENDBRANCH   1   2
BRANCH   1   7
HETATM    7  C   UNL     1     -23.345  -2.481 -14.239  1.00  0.00     0.139 C 
HETATM    8  O   UNL     1     -22.627  -2.815 -15.167  1.00  0.00    -0.650 OA
BRANCH   7   9
HETATM    9  O   UNL     1     -24.227  -1.461 -14.329  1.00  0.00    -0.776 OA
HETATM   10  H   UNL     1     -23.842  -0.584 -14.132  1.00  0.00     0.167 HD
ENDBRANCH   7   9
ENDBRANCH   1   7
TORSDOF 5
ENDMDL
MODEL 8
REMARK VINA RESULT:      -4.5      1.506      3.986
REMARK  5 active torsions:
REMARK  status: ('A' for Active; 'I' for Inactive)
REMARK    1  A    between atoms: C_1  and  C_2 
REMARK    2  A    between atoms: C_1  and  C_6 
REMARK    3  A    between atoms: C_2  and  C_3 
REMARK    4  A    between atoms: C_3  and  O_5 
REMARK    5  A    between atoms: C_6  and  O_8 
ROOT
HETATM    1  C   UNL     1     -22.801  -4.645  -9.733  1.00  0.00     0.120 C 
ENDROOT
BRANCH   1   2
HETATM    2  C   UNL     1     -22.920  -3.511 -10.747  1.00  0.00     0.120 C 
BRANCH   2   3
HETATM    3  C   UNL     1     -24.361  -3.277 -11.110  1.00  0.00     0.139 C 
HETATM    4  O   UNL     1     -25.284  -3.247 -10.311  1.00  0.00    -0.650 OA
BRANCH   3   5
HETATM    5  O   UNL     1     -24.542  -3.099 -12.438  1.00  0.00    -0.776 OA
HETATM    6  H   UNL     1     -24.469  -3.919 -12.962  1.00  0.00     0.167 HD
ENDBRANCH   3   5
ENDBRANCH   2   3
ENDBRANCH   1   2
BRANCH   1   7
HETATM    7  C   UNL     1     -22.705  -4.112  -8.330  1.00  0.00     0.139 C 
HETATM    8  O   UNL     1     -21.682  -3.697  -7.810  1.00  0.00    -0.650 OA
BRANCH   7   9
HETATM    9  O   UNL     1     -23.893  -4.137  -7.686  1.00  0.00    -0.776 OA
HETATM   10  H   UNL     1     -24.642  -4.421  -8.246  1.00  0.00     0.167 HD
ENDBRANCH   7   9
ENDBRANCH   1   7
TORSDOF 5
ENDMDL
MODEL 9
REMARK VINA RESULT:      -4.4     12.155     13.198
REMARK  5 active torsions:
REMARK  status: ('A' for Active; 'I' for Inactive)
REMARK    1  A    between atoms: C_1  and  C_2 
REMARK    2  A    between atoms: C_1  and  C_6 
REMARK    3  A    between atoms: C_2  and  C_3 
REMARK    4  A    between atoms: C_3  and  O_5 
REMARK    5  A    between atoms: C_6  and  O_8 
ROOT
HETATM    1  C   UNL     1     -35.141   0.422 -14.196  1.00  0.00     0.120 C 
ENDROOT
BRANCH   1   2
HETATM    2  C   UNL     1     -36.223   0.231 -15.254  1.00  0.00     0.120 C 
BRANCH   2   3
HETATM    3  C   UNL     1     -35.852  -0.885 -16.193  1.00  0.00     0.139 C 
HETATM    4  O   UNL     1     -35.176  -1.856 -15.887  1.00  0.00    -0.650 OA
BRANCH   3   5
HETATM    5  O   UNL     1     -36.349  -0.708 -17.437  1.00  0.00    -0.776 OA
HETATM    6  H   UNL     1     -35.666  -0.605 -18.127  1.00  0.00     0.167 HD
ENDBRANCH   3   5
ENDBRANCH   2   3
ENDBRANCH   1   2
BRANCH   1   7
HETATM    7  C   UNL     1     -35.573  -0.139 -12.869  1.00  0.00     0.139 C 
HETATM    8  O   UNL     1     -35.343   0.376 -11.786  1.00  0.00    -0.650 OA
BRANCH   7   9
HETATM    9  O   UNL     1     -36.257  -1.298 -12.996  1.00  0.00    -0.776 OA
HETATM   10  H   UNL     1     -36.958  -1.272 -13.677  1.00  0.00     0.167 HD
ENDBRANCH   7   9
ENDBRANCH   1   7
TORSDOF 5
ENDMDL
