MODEL 1
REMARK VINA RESULT:      -1.1      0.000      0.000
REMARK  3 active torsions:
REMARK  status: ('A' for Active; 'I' for Inactive)
REMARK    1  A    between atoms: C_6  and  N_7 
REMARK    2  A    between atoms: N_9  and  C_11 
REMARK    3  A    between atoms: C_14  and  N_17 
ROOT
HETATM    1 CL   UNL     2     -32.950  -3.303 -11.393  1.00  0.00     0.000 Cl
ENDROOT
TORSDOF 3
ENDMDL
MODEL 2
REMARK VINA RESULT:      -1.0      8.564      8.564
REMARK  3 active torsions:
REMARK  status: ('A' for Active; 'I' for Inactive)
REMARK    1  A    between atoms: C_6  and  N_7 
REMARK    2  A    between atoms: N_9  and  C_11 
REMARK    3  A    between atoms: C_14  and  N_17 
ROOT
HETATM    1 CL   UNL     2     -37.016   0.580  -4.933  1.00  0.00     0.000 Cl
ENDROOT
TORSDOF 3
ENDMDL
MODEL 3
REMARK VINA RESULT:      -1.0     10.561     10.561
REMARK  3 active torsions:
REMARK  status: ('A' for Active; 'I' for Inactive)
REMARK    1  A    between atoms: C_6  and  N_7 
REMARK    2  A    between atoms: N_9  and  C_11 
REMARK    3  A    between atoms: C_14  and  N_17 
ROOT
HETATM    1 CL   UNL     2     -34.319  -5.947  -1.261  1.00  0.00     0.000 Cl
ENDROOT
TORSDOF 3
ENDMDL
MODEL 4
REMARK VINA RESULT:      -1.0     14.601     14.601
REMARK  3 active torsions:
REMARK  status: ('A' for Active; 'I' for Inactive)
REMARK    1  A    between atoms: C_6  and  N_7 
REMARK    2  A    between atoms: N_9  and  C_11 
REMARK    3  A    between atoms: C_14  and  N_17 
ROOT
HETATM    1 CL   UNL     2     -22.241  -6.151  -1.886  1.00  0.00     0.000 Cl
ENDROOT
TORSDOF 3
ENDMDL
MODEL 5
REMARK VINA RESULT:      -0.9      1.492      1.492
REMARK  3 active torsions:
REMARK  status: ('A' for Active; 'I' for Inactive)
REMARK    1  A    between atoms: C_6  and  N_7 
REMARK    2  A    between atoms: N_9  and  C_11 
REMARK    3  A    between atoms: C_14  and  N_17 
ROOT
HETATM    1 CL   UNL     2     -33.809  -4.139 -10.505  1.00  0.00     0.000 Cl
ENDROOT
TORSDOF 3
ENDMDL
MODEL 6
REMARK VINA RESULT:      -0.9     12.032     12.032
REMARK  3 active torsions:
REMARK  status: ('A' for Active; 'I' for Inactive)
REMARK    1  A    between atoms: C_6  and  N_7 
REMARK    2  A    between atoms: N_9  and  C_11 
REMARK    3  A    between atoms: C_14  and  N_17 
ROOT
HETATM    1 CL   UNL     2     -27.117   7.218 -11.166  1.00  0.00     0.000 Cl
ENDROOT
TORSDOF 3
ENDMDL
MODEL 7
REMARK VINA RESULT:      -0.9     16.131     16.131
REMARK  3 active torsions:
REMARK  status: ('A' for Active; 'I' for Inactive)
REMARK    1  A    between atoms: C_6  and  N_7 
REMARK    2  A    between atoms: N_9  and  C_11 
REMARK    3  A    between atoms: C_14  and  N_17 
ROOT
HETATM    1 CL   UNL     2     -23.255  -8.077   0.583  1.00  0.00     0.000 Cl
ENDROOT
TORSDOF 3
ENDMDL
MODEL 8
REMARK VINA RESULT:      -0.9     29.284     29.284
REMARK  3 active torsions:
REMARK  status: ('A' for Active; 'I' for Inactive)
REMARK    1  A    between atoms: C_6  and  N_7 
REMARK    2  A    between atoms: N_9  and  C_11 
REMARK    3  A    between atoms: C_14  and  N_17 
ROOT
HETATM    1 CL   UNL     2     -12.854   9.133   5.900  1.00  0.00     0.000 Cl
ENDROOT
TORSDOF 3
ENDMDL
MODEL 9
REMARK VINA RESULT:      -0.9     11.451     11.451
REMARK  3 active torsions:
REMARK  status: ('A' for Active; 'I' for Inactive)
REMARK    1  A    between atoms: C_6  and  N_7 
REMARK    2  A    between atoms: N_9  and  C_11 
REMARK    3  A    between atoms: C_14  and  N_17 
ROOT
HETATM    1 CL   UNL     2     -26.101   5.769 -10.012  1.00  0.00     0.000 Cl
ENDROOT
TORSDOF 3
ENDMDL
