MODEL 1
REMARK VINA RESULT:      -4.9      0.000      0.000
REMARK  5 active torsions:
REMARK  status: ('A' for Active; 'I' for Inactive)
REMARK    1  A    between atoms: C_1  and  C_2 
REMARK    2  A    between atoms: C_1  and  N_5 
REMARK    3  A    between atoms: C_2  and  O_4 
REMARK    4  A    between atoms: N_5  and  C_6 
REMARK    5  A    between atoms: C_6  and  O_7 
ROOT
HETATM    1  C   UNL     1     -22.862  -2.766 -12.020  1.00  0.00     0.385 C 
ENDROOT
BRANCH   1   2
HETATM    2  C   UNL     1     -23.971  -3.684 -11.461  1.00  0.00     0.317 C 
HETATM    3  O   UNL     1     -24.954  -3.156 -10.910  1.00  0.00    -0.261 OA
BRANCH   2   4
HETATM    4  O   UNL     1     -23.707  -4.923 -11.701  1.00  0.00    -0.148 OA
HETATM    5 NA   UNL     2     -24.048  -5.906 -13.361  1.00  0.00     0.000 Na
ENDBRANCH   2   4
ENDBRANCH   1   2
BRANCH   1   6
HETATM    6  N   UNL     1     -22.263  -3.240 -13.275  1.00  0.00     0.115 N 
HETATM    7  H   UNL     1     -22.360  -4.264 -13.261  1.00  0.00     0.319 HD
BRANCH   6   8
HETATM    8  C   UNL     1     -23.040  -2.793 -14.412  1.00  0.00     0.435 C 
BRANCH   8   9
HETATM    9  O   UNL     1     -23.842  -3.888 -14.772  1.00  0.00    -0.373 OA
HETATM   10  H   UNL     1     -23.479  -4.592 -14.207  1.00  0.00     0.211 HD
ENDBRANCH   8   9
ENDBRANCH   6   8
ENDBRANCH   1   6
TORSDOF 5
ENDMDL
MODEL 2
REMARK VINA RESULT:      -4.9     14.173     14.597
REMARK  5 active torsions:
REMARK  status: ('A' for Active; 'I' for Inactive)
REMARK    1  A    between atoms: C_1  and  C_2 
REMARK    2  A    between atoms: C_1  and  N_5 
REMARK    3  A    between atoms: C_2  and  O_4 
REMARK    4  A    between atoms: N_5  and  C_6 
REMARK    5  A    between atoms: C_6  and  O_7 
ROOT
HETATM    1  C   UNL     1     -29.632 -15.520 -20.000  1.00  0.00     0.385 C 
ENDROOT
BRANCH   1   2
HETATM    2  C   UNL     1     -29.688 -14.420 -18.916  1.00  0.00     0.317 C 
HETATM    3  O   UNL     1     -30.541 -13.522 -19.029  1.00  0.00    -0.261 OA
BRANCH   2   4
HETATM    4  O   UNL     1     -28.815 -14.640 -17.993  1.00  0.00    -0.148 OA
HETATM    5 NA   UNL     2     -27.089 -13.744 -17.761  1.00  0.00     0.000 Na
ENDBRANCH   2   4
ENDBRANCH   1   2
BRANCH   1   6
HETATM    6  N   UNL     1     -30.923 -15.803 -20.639  1.00  0.00     0.115 N 
HETATM    7  H   UNL     1     -31.608 -15.202 -20.161  1.00  0.00     0.319 HD
BRANCH   6   8
HETATM    8  C   UNL     1     -30.918 -15.362 -22.018  1.00  0.00     0.435 C 
BRANCH   8   9
HETATM    9  O   UNL     1     -31.256 -13.999 -21.978  1.00  0.00    -0.373 OA
HETATM   10  H   UNL     1     -32.199 -14.024 -22.217  1.00  0.00     0.211 HD
ENDBRANCH   8   9
ENDBRANCH   6   8
ENDBRANCH   1   6
TORSDOF 5
ENDMDL
MODEL 3
REMARK VINA RESULT:      -4.8      2.449      3.810
REMARK  5 active torsions:
REMARK  status: ('A' for Active; 'I' for Inactive)
REMARK    1  A    between atoms: C_1  and  C_2 
REMARK    2  A    between atoms: C_1  and  N_5 
REMARK    3  A    between atoms: C_2  and  O_4 
REMARK    4  A    between atoms: N_5  and  C_6 
REMARK    5  A    between atoms: C_6  and  O_7 
ROOT
HETATM    1  C   UNL     1     -22.706  -3.020 -12.948  1.00  0.00     0.385 C 
ENDROOT
BRANCH   1   2
HETATM    2  C   UNL     1     -23.301  -2.490 -14.272  1.00  0.00     0.317 C 
HETATM    3  O   UNL     1     -22.654  -2.661 -15.321  1.00  0.00    -0.261 OA
BRANCH   2   4
HETATM    4  O   UNL     1     -24.457  -1.956 -14.075  1.00  0.00    -0.148 OA
HETATM    5 NA   UNL     2     -24.938  -0.068 -14.275  1.00  0.00     0.000 Na
ENDBRANCH   2   4
ENDBRANCH   1   2
BRANCH   1   6
HETATM    6  N   UNL     1     -23.311  -4.270 -12.473  1.00  0.00     0.115 N 
HETATM    7  H   UNL     1     -22.531  -4.934 -12.367  1.00  0.00     0.319 HD
BRANCH   6   8
HETATM    8  C   UNL     1     -23.857  -4.100 -11.144  1.00  0.00     0.435 C 
BRANCH   8   9
HETATM    9  O   UNL     1     -24.897  -3.165 -11.282  1.00  0.00    -0.373 OA
HETATM   10  H   UNL     1     -25.683  -3.733 -11.206  1.00  0.00     0.211 HD
ENDBRANCH   8   9
ENDBRANCH   6   8
ENDBRANCH   1   6
TORSDOF 5
ENDMDL
MODEL 4
REMARK VINA RESULT:      -4.8      1.878      2.198
REMARK  5 active torsions:
REMARK  status: ('A' for Active; 'I' for Inactive)
REMARK    1  A    between atoms: C_1  and  C_2 
REMARK    2  A    between atoms: C_1  and  N_5 
REMARK    3  A    between atoms: C_2  and  O_4 
REMARK    4  A    between atoms: N_5  and  C_6 
REMARK    5  A    between atoms: C_6  and  O_7 
ROOT
HETATM    1  C   UNL     1     -22.925  -2.866 -11.885  1.00  0.00     0.385 C 
ENDROOT
BRANCH   1   2
HETATM    2  C   UNL     1     -23.987  -3.846 -11.338  1.00  0.00     0.317 C 
HETATM    3  O   UNL     1     -23.713  -5.060 -11.312  1.00  0.00    -0.261 OA
BRANCH   2   4
HETATM    4  O   UNL     1     -25.035  -3.212 -10.938  1.00  0.00    -0.148 OA
HETATM    5 NA   UNL     2     -26.300  -3.775  -9.552  1.00  0.00     0.000 Na
ENDBRANCH   2   4
ENDBRANCH   1   2
BRANCH   1   6
HETATM    6  N   UNL     1     -22.303  -3.293 -13.145  1.00  0.00     0.115 N 
HETATM    7  H   UNL     1     -22.380  -4.319 -13.160  1.00  0.00     0.319 HD
BRANCH   6   8
HETATM    8  C   UNL     1     -23.075  -2.831 -14.279  1.00  0.00     0.435 C 
BRANCH   8   9
HETATM    9  O   UNL     1     -22.233  -2.980 -15.393  1.00  0.00    -0.373 OA
HETATM   10  H   UNL     1     -22.550  -2.267 -15.975  1.00  0.00     0.211 HD
ENDBRANCH   8   9
ENDBRANCH   6   8
ENDBRANCH   1   6
TORSDOF 5
ENDMDL
MODEL 5
REMARK VINA RESULT:      -4.4      2.699      2.740
REMARK  5 active torsions:
REMARK  status: ('A' for Active; 'I' for Inactive)
REMARK    1  A    between atoms: C_1  and  C_2 
REMARK    2  A    between atoms: C_1  and  N_5 
REMARK    3  A    between atoms: C_2  and  O_4 
REMARK    4  A    between atoms: N_5  and  C_6 
REMARK    5  A    between atoms: C_6  and  O_7 
ROOT
HETATM    1  C   UNL     1     -23.524  -3.238 -11.311  1.00  0.00     0.385 C 
ENDROOT
BRANCH   1   2
HETATM    2  C   UNL     1     -24.430  -3.425 -10.074  1.00  0.00     0.317 C 
HETATM    3  O   UNL     1     -25.658  -3.280 -10.212  1.00  0.00    -0.261 OA
BRANCH   2   4
HETATM    4  O   UNL     1     -23.733  -3.759  -9.041  1.00  0.00    -0.148 OA
HETATM    5 NA   UNL     2     -24.367  -3.940  -7.197  1.00  0.00     0.000 Na
ENDBRANCH   2   4
ENDBRANCH   1   2
BRANCH   1   6
HETATM    6  N   UNL     1     -24.254  -2.982 -12.560  1.00  0.00     0.115 N 
HETATM    7  H   UNL     1     -24.739  -2.085 -12.420  1.00  0.00     0.319 HD
BRANCH   6   8
HETATM    8  C   UNL     1     -23.332  -2.759 -13.653  1.00  0.00     0.435 C 
BRANCH   8   9
HETATM    9  O   UNL     1     -23.744  -3.630 -14.675  1.00  0.00    -0.373 OA
HETATM   10  H   UNL     1     -23.236  -4.434 -14.464  1.00  0.00     0.211 HD
ENDBRANCH   8   9
ENDBRANCH   6   8
ENDBRANCH   1   6
TORSDOF 5
ENDMDL
MODEL 6
REMARK VINA RESULT:      -4.4      3.070      4.273
REMARK  5 active torsions:
REMARK  status: ('A' for Active; 'I' for Inactive)
REMARK    1  A    between atoms: C_1  and  C_2 
REMARK    2  A    between atoms: C_1  and  N_5 
REMARK    3  A    between atoms: C_2  and  O_4 
REMARK    4  A    between atoms: N_5  and  C_6 
REMARK    5  A    between atoms: C_6  and  O_7 
ROOT
HETATM    1  C   UNL     1     -23.172  -4.172 -10.872  1.00  0.00     0.385 C 
ENDROOT
BRANCH   1   2
HETATM    2  C   UNL     1     -24.372  -3.342 -11.382  1.00  0.00     0.317 C 
HETATM    3  O   UNL     1     -24.395  -3.011 -12.581  1.00  0.00    -0.261 OA
BRANCH   2   4
HETATM    4  O   UNL     1     -25.227  -3.143 -10.438  1.00  0.00    -0.148 OA
HETATM    5 NA   UNL     2     -24.953  -2.118  -8.791  1.00  0.00     0.000 Na
ENDBRANCH   2   4
ENDBRANCH   1   2
BRANCH   1   6
HETATM    6  N   UNL     1     -22.464  -3.572  -9.734  1.00  0.00     0.115 N 
HETATM    7  H   UNL     1     -22.980  -2.711  -9.508  1.00  0.00     0.319 HD
BRANCH   6   8
HETATM    8  C   UNL     1     -22.579  -4.412  -8.561  1.00  0.00     0.435 C 
BRANCH   8   9
HETATM    9  O   UNL     1     -23.799  -4.055  -7.962  1.00  0.00    -0.373 OA
HETATM   10  H   UNL     1     -24.442  -4.441  -8.581  1.00  0.00     0.211 HD
ENDBRANCH   8   9
ENDBRANCH   6   8
ENDBRANCH   1   6
TORSDOF 5
ENDMDL
MODEL 7
REMARK VINA RESULT:      -4.3      2.909      3.517
REMARK  5 active torsions:
REMARK  status: ('A' for Active; 'I' for Inactive)
REMARK    1  A    between atoms: C_1  and  C_2 
REMARK    2  A    between atoms: C_1  and  N_5 
REMARK    3  A    between atoms: C_2  and  O_4 
REMARK    4  A    between atoms: N_5  and  C_6 
REMARK    5  A    between atoms: C_6  and  O_7 
ROOT
HETATM    1  C   UNL     1     -22.692  -2.820 -12.775  1.00  0.00     0.385 C 
ENDROOT
BRANCH   1   2
HETATM    2  C   UNL     1     -24.138  -2.587 -13.266  1.00  0.00     0.317 C 
HETATM    3  O   UNL     1     -25.066  -3.165 -12.671  1.00  0.00    -0.261 OA
BRANCH   2   4
HETATM    4  O   UNL     1     -24.161  -1.754 -14.250  1.00  0.00    -0.148 OA
HETATM    5 NA   UNL     2     -25.032   0.000 -14.293  1.00  0.00     0.000 Na
ENDBRANCH   2   4
ENDBRANCH   1   2
BRANCH   1   6
HETATM    6  N   UNL     1     -22.400  -4.209 -12.398  1.00  0.00     0.115 N 
HETATM    7  H   UNL     1     -21.951  -4.632 -13.222  1.00  0.00     0.319 HD
BRANCH   6   8
HETATM    8  C   UNL     1     -21.404  -4.254 -11.348  1.00  0.00     0.435 C 
BRANCH   8   9
HETATM    9  O   UNL     1     -20.464  -3.263 -11.679  1.00  0.00    -0.373 OA
HETATM   10  H   UNL     1     -21.013  -2.629 -12.173  1.00  0.00     0.211 HD
ENDBRANCH   8   9
ENDBRANCH   6   8
ENDBRANCH   1   6
TORSDOF 5
ENDMDL
MODEL 8
REMARK VINA RESULT:      -4.3      2.893      2.932
REMARK  5 active torsions:
REMARK  status: ('A' for Active; 'I' for Inactive)
REMARK    1  A    between atoms: C_1  and  C_2 
REMARK    2  A    between atoms: C_1  and  N_5 
REMARK    3  A    between atoms: C_2  and  O_4 
REMARK    4  A    between atoms: N_5  and  C_6 
REMARK    5  A    between atoms: C_6  and  O_7 
ROOT
HETATM    1  C   UNL     1     -23.465  -4.319 -10.333  1.00  0.00     0.385 C 
ENDROOT
BRANCH   1   2
HETATM    2  C   UNL     1     -24.618  -3.358 -10.697  1.00  0.00     0.317 C 
HETATM    3  O   UNL     1     -25.508  -3.155  -9.851  1.00  0.00    -0.261 OA
BRANCH   2   4
HETATM    4  O   UNL     1     -24.446  -2.859 -11.873  1.00  0.00    -0.148 OA
HETATM    5 NA   UNL     2     -23.162  -1.475 -12.394  1.00  0.00     0.000 Na
ENDBRANCH   2   4
ENDBRANCH   1   2
BRANCH   1   6
HETATM    6  N   UNL     1     -22.141  -3.686 -10.293  1.00  0.00     0.115 N 
HETATM    7  H   UNL     1     -21.710  -3.996  -9.412  1.00  0.00     0.319 HD
BRANCH   6   8
HETATM    8  C   UNL     1     -21.293  -4.209 -11.344  1.00  0.00     0.435 C 
BRANCH   8   9
HETATM    9  O   UNL     1     -21.544  -3.400 -12.466  1.00  0.00    -0.373 OA
HETATM   10  H   UNL     1     -22.496  -3.546 -12.604  1.00  0.00     0.211 HD
ENDBRANCH   8   9
ENDBRANCH   6   8
ENDBRANCH   1   6
TORSDOF 5
ENDMDL
MODEL 9
REMARK VINA RESULT:      -4.3     14.362     14.858
REMARK  5 active torsions:
REMARK  status: ('A' for Active; 'I' for Inactive)
REMARK    1  A    between atoms: C_1  and  C_2 
REMARK    2  A    between atoms: C_1  and  N_5 
REMARK    3  A    between atoms: C_2  and  O_4 
REMARK    4  A    between atoms: N_5  and  C_6 
REMARK    5  A    between atoms: C_6  and  O_7 
ROOT
HETATM    1  C   UNL     1     -30.712 -14.652 -19.622  1.00  0.00     0.385 C 
ENDROOT
BRANCH   1   2
HETATM    2  C   UNL     1     -29.304 -14.091 -19.324  1.00  0.00     0.317 C 
HETATM    3  O   UNL     1     -28.747 -14.425 -18.263  1.00  0.00    -0.261 OA
BRANCH   2   4
HETATM    4  O   UNL     1     -28.890 -13.351 -20.295  1.00  0.00    -0.148 OA
HETATM    5 NA   UNL     2     -28.799 -13.831 -22.192  1.00  0.00     0.000 Na
ENDBRANCH   2   4
ENDBRANCH   1   2
BRANCH   1   6
HETATM    6  N   UNL     1     -30.729 -15.756 -20.591  1.00  0.00     0.115 N 
HETATM    7  H   UNL     1     -31.248 -16.519 -20.135  1.00  0.00     0.319 HD
BRANCH   6   8
HETATM    8  C   UNL     1     -31.509 -15.400 -21.757  1.00  0.00     0.435 C 
BRANCH   8   9
HETATM    9  O   UNL     1     -31.255 -14.036 -21.976  1.00  0.00    -0.373 OA
HETATM   10  H   UNL     1     -31.541 -13.929 -22.901  1.00  0.00     0.211 HD
ENDBRANCH   8   9
ENDBRANCH   6   8
ENDBRANCH   1   6
TORSDOF 5
ENDMDL
