MODEL 1
REMARK VINA RESULT:      -6.4      0.000      0.000
REMARK  13 active torsions:
REMARK  status: ('A' for Active; 'I' for Inactive)
REMARK    1  A    between atoms: C_2  and  O_4 
REMARK    2  A    between atoms: O_4  and  C_5 
REMARK    3  A    between atoms: C_5  and  C_7 
REMARK    4  A    between atoms: C_7  and  C_8 
REMARK    5  A    between atoms: C_8  and  C_9 
REMARK    6  A    between atoms: C_9  and  C_10 
REMARK    7  A    between atoms: C_10  and  C_11 
REMARK    8  A    between atoms: C_11  and  C_12 
REMARK    9  A    between atoms: C_12  and  C_13 
REMARK   10  A    between atoms: C_13  and  C_14 
REMARK   11  A    between atoms: C_14  and  C_15 
REMARK   12  A    between atoms: C_15  and  O_17 
REMARK   13  A    between atoms: O_17  and  C_18 
ROOT
HETATM    1  C   UNL     1     -20.443  -6.716  -5.871  1.00  0.00     0.000 C 
ENDROOT
BRANCH   1   2
HETATM    2  C   UNL     1     -20.764  -5.925  -4.598  1.00  0.00     0.000 C 
BRANCH   2   3
HETATM    3  C   UNL     1     -21.965  -6.538  -3.887  1.00  0.00     0.010 C 
BRANCH   3   4
HETATM    4  C   UNL     1     -21.893  -6.405  -2.364  1.00  0.00     0.111 C 
BRANCH   4   5
HETATM    5  C   UNL     1     -21.340  -7.682  -1.770  1.00  0.00     0.259 C 
HETATM    6  O   UNL     1     -20.169  -7.849  -1.468  1.00  0.00    -0.265 OA
BRANCH   5   7
HETATM    7  O   UNL     1     -22.329  -8.616  -1.613  1.00  0.00    -0.317 OA
BRANCH   7   8
HETATM    8  C   UNL     1     -22.457  -9.121  -0.267  1.00  0.00     0.123 C 
HETATM    9  C   UNL     1     -23.144  -8.074   0.601  1.00  0.00     0.040 C 
HETATM   10  C   UNL     1     -23.291 -10.404  -0.276  1.00  0.00     0.040 C 
ENDBRANCH   7   8
ENDBRANCH   5   7
ENDBRANCH   4   5
ENDBRANCH   3   4
ENDBRANCH   2   3
ENDBRANCH   1   2
BRANCH   1  11
HETATM   11  C   UNL     1     -20.522  -5.833  -7.112  1.00  0.00     0.000 C 
BRANCH  11  12
HETATM   12  C   UNL     1     -20.368  -4.352  -6.756  1.00  0.00     0.000 C 
BRANCH  12  13
HETATM   13  C   UNL     1     -21.493  -3.540  -7.386  1.00  0.00     0.010 C 
BRANCH  13  14
HETATM   14  C   UNL     1     -22.757  -4.364  -7.645  1.00  0.00     0.111 C 
BRANCH  14  15
HETATM   15  C   UNL     1     -23.246  -4.108  -9.054  1.00  0.00     0.259 C 
HETATM   16  O   UNL     1     -24.343  -4.441  -9.474  1.00  0.00    -0.265 OA
BRANCH  15  17
HETATM   17  O   UNL     1     -22.294  -3.465  -9.793  1.00  0.00    -0.317 OA
BRANCH  17  18
HETATM   18  C   UNL     1     -21.857  -4.180 -10.968  1.00  0.00     0.123 C 
HETATM   19  C   UNL     1     -22.171  -3.375 -12.227  1.00  0.00     0.040 C 
HETATM   20  C   UNL     1     -20.351  -4.400 -10.865  1.00  0.00     0.040 C 
ENDBRANCH  17  18
ENDBRANCH  15  17
ENDBRANCH  14  15
ENDBRANCH  13  14
ENDBRANCH  12  13
ENDBRANCH  11  12
ENDBRANCH   1  11
TORSDOF 13
ENDMDL
MODEL 2
REMARK VINA RESULT:      -6.4      1.363      9.507
REMARK  13 active torsions:
REMARK  status: ('A' for Active; 'I' for Inactive)
REMARK    1  A    between atoms: C_2  and  O_4 
REMARK    2  A    between atoms: O_4  and  C_5 
REMARK    3  A    between atoms: C_5  and  C_7 
REMARK    4  A    between atoms: C_7  and  C_8 
REMARK    5  A    between atoms: C_8  and  C_9 
REMARK    6  A    between atoms: C_9  and  C_10 
REMARK    7  A    between atoms: C_10  and  C_11 
REMARK    8  A    between atoms: C_11  and  C_12 
REMARK    9  A    between atoms: C_12  and  C_13 
REMARK   10  A    between atoms: C_13  and  C_14 
REMARK   11  A    between atoms: C_14  and  C_15 
REMARK   12  A    between atoms: C_15  and  O_17 
REMARK   13  A    between atoms: O_17  and  C_18 
ROOT
HETATM    1  C   UNL     1     -21.411  -4.280  -6.780  1.00  0.00     0.000 C 
ENDROOT
BRANCH   1   2
HETATM    2  C   UNL     1     -21.269  -4.143  -8.299  1.00  0.00     0.000 C 
BRANCH   2   3
HETATM    3  C   UNL     1     -22.482  -4.749  -8.997  1.00  0.00     0.010 C 
BRANCH   3   4
HETATM    4  C   UNL     1     -23.789  -4.028  -8.662  1.00  0.00     0.111 C 
BRANCH   4   5
HETATM    5  C   UNL     1     -24.517  -3.678  -9.943  1.00  0.00     0.259 C 
HETATM    6  O   UNL     1     -25.641  -3.207  -9.986  1.00  0.00    -0.265 OA
BRANCH   5   7
HETATM    7  O   UNL     1     -23.740  -3.954 -11.036  1.00  0.00    -0.317 OA
BRANCH   7   8
HETATM    8  C   UNL     1     -23.325  -2.787 -11.776  1.00  0.00     0.123 C 
HETATM    9  C   UNL     1     -21.804  -2.720 -11.800  1.00  0.00     0.040 C 
HETATM   10  C   UNL     1     -23.855  -2.871 -13.209  1.00  0.00     0.040 C 
ENDBRANCH   7   8
ENDBRANCH   5   7
ENDBRANCH   4   5
ENDBRANCH   3   4
ENDBRANCH   2   3
ENDBRANCH   1   2
BRANCH   1  11
HETATM   11  C   UNL     1     -21.066  -5.690  -6.311  1.00  0.00     0.000 C 
BRANCH  11  12
HETATM   12  C   UNL     1     -20.925  -5.754  -4.788  1.00  0.00     0.000 C 
BRANCH  12  13
HETATM   13  C   UNL     1     -21.965  -6.702  -4.204  1.00  0.00     0.010 C 
BRANCH  13  14
HETATM   14  C   UNL     1     -21.397  -7.628  -3.126  1.00  0.00     0.111 C 
BRANCH  14  15
HETATM   15  C   UNL     1     -21.778  -7.105  -1.758  1.00  0.00     0.259 C 
HETATM   16  O   UNL     1     -22.547  -6.177  -1.565  1.00  0.00    -0.265 OA
BRANCH  15  17
HETATM   17  O   UNL     1     -21.140  -7.803  -0.773  1.00  0.00    -0.317 OA
BRANCH  17  18
HETATM   18  C   UNL     1     -21.979  -8.182   0.339  1.00  0.00     0.123 C 
HETATM   19  C   UNL     1     -22.953  -9.280  -0.081  1.00  0.00     0.040 C 
HETATM   20  C   UNL     1     -21.084  -8.696   1.462  1.00  0.00     0.040 C 
ENDBRANCH  17  18
ENDBRANCH  15  17
ENDBRANCH  14  15
ENDBRANCH  13  14
ENDBRANCH  12  13
ENDBRANCH  11  12
ENDBRANCH   1  11
TORSDOF 13
ENDMDL
MODEL 3
REMARK VINA RESULT:      -6.2      2.242      9.668
REMARK  13 active torsions:
REMARK  status: ('A' for Active; 'I' for Inactive)
REMARK    1  A    between atoms: C_2  and  O_4 
REMARK    2  A    between atoms: O_4  and  C_5 
REMARK    3  A    between atoms: C_5  and  C_7 
REMARK    4  A    between atoms: C_7  and  C_8 
REMARK    5  A    between atoms: C_8  and  C_9 
REMARK    6  A    between atoms: C_9  and  C_10 
REMARK    7  A    between atoms: C_10  and  C_11 
REMARK    8  A    between atoms: C_11  and  C_12 
REMARK    9  A    between atoms: C_12  and  C_13 
REMARK   10  A    between atoms: C_13  and  C_14 
REMARK   11  A    between atoms: C_14  and  C_15 
REMARK   12  A    between atoms: C_15  and  O_17 
REMARK   13  A    between atoms: O_17  and  C_18 
ROOT
HETATM    1  C   UNL     1     -22.680  -4.409  -8.789  1.00  0.00     0.000 C 
ENDROOT
BRANCH   1   2
HETATM    2  C   UNL     1     -22.873  -4.745 -10.271  1.00  0.00     0.000 C 
BRANCH   2   3
HETATM    3  C   UNL     1     -21.978  -3.861 -11.132  1.00  0.00     0.010 C 
BRANCH   3   4
HETATM    4  C   UNL     1     -22.686  -2.603 -11.639  1.00  0.00     0.111 C 
BRANCH   4   5
HETATM    5  C   UNL     1     -24.093  -2.954 -12.073  1.00  0.00     0.259 C 
HETATM    6  O   UNL     1     -25.028  -3.115 -11.306  1.00  0.00    -0.265 OA
BRANCH   5   7
HETATM    7  O   UNL     1     -24.172  -3.056 -13.436  1.00  0.00    -0.317 OA
BRANCH   7   8
HETATM    8  C   UNL     1     -23.322  -2.133 -14.149  1.00  0.00     0.123 C 
HETATM    9  C   UNL     1     -22.569  -2.882 -15.241  1.00  0.00     0.040 C 
HETATM   10  C   UNL     1     -24.176  -1.032 -14.782  1.00  0.00     0.040 C 
ENDBRANCH   7   8
ENDBRANCH   5   7
ENDBRANCH   4   5
ENDBRANCH   3   4
ENDBRANCH   2   3
ENDBRANCH   1   2
BRANCH   1  11
HETATM   11  C   UNL     1     -21.364  -4.967  -8.257  1.00  0.00     0.000 C 
BRANCH  11  12
HETATM   12  C   UNL     1     -20.714  -4.010  -7.256  1.00  0.00     0.000 C 
BRANCH  12  13
HETATM   13  C   UNL     1     -20.430  -4.733  -5.944  1.00  0.00     0.010 C 
BRANCH  13  14
HETATM   14  C   UNL     1     -20.775  -6.223  -5.993  1.00  0.00     0.111 C 
BRANCH  14  15
HETATM   15  C   UNL     1     -22.004  -6.485  -5.150  1.00  0.00     0.259 C 
HETATM   16  O   UNL     1     -23.074  -5.915  -5.295  1.00  0.00    -0.265 OA
BRANCH  15  17
HETATM   17  O   UNL     1     -21.753  -7.435  -4.201  1.00  0.00    -0.317 OA
BRANCH  17  18
HETATM   18  C   UNL     1     -21.106  -6.941  -3.009  1.00  0.00     0.123 C 
HETATM   19  C   UNL     1     -22.126  -6.270  -2.091  1.00  0.00     0.040 C 
HETATM   20  C   UNL     1     -20.467  -8.121  -2.285  1.00  0.00     0.040 C 
ENDBRANCH  17  18
ENDBRANCH  15  17
ENDBRANCH  14  15
ENDBRANCH  13  14
ENDBRANCH  12  13
ENDBRANCH  11  12
ENDBRANCH   1  11
TORSDOF 13
ENDMDL
MODEL 4
REMARK VINA RESULT:      -6.2      1.340      2.104
REMARK  13 active torsions:
REMARK  status: ('A' for Active; 'I' for Inactive)
REMARK    1  A    between atoms: C_2  and  O_4 
REMARK    2  A    between atoms: O_4  and  C_5 
REMARK    3  A    between atoms: C_5  and  C_7 
REMARK    4  A    between atoms: C_7  and  C_8 
REMARK    5  A    between atoms: C_8  and  C_9 
REMARK    6  A    between atoms: C_9  and  C_10 
REMARK    7  A    between atoms: C_10  and  C_11 
REMARK    8  A    between atoms: C_11  and  C_12 
REMARK    9  A    between atoms: C_12  and  C_13 
REMARK   10  A    between atoms: C_13  and  C_14 
REMARK   11  A    between atoms: C_14  and  C_15 
REMARK   12  A    between atoms: C_15  and  O_17 
REMARK   13  A    between atoms: O_17  and  C_18 
ROOT
HETATM    1  C   UNL     1     -21.392  -7.582  -4.689  1.00  0.00     0.000 C 
ENDROOT
BRANCH   1   2
HETATM    2  C   UNL     1     -21.910  -6.640  -3.597  1.00  0.00     0.000 C 
BRANCH   2   3
HETATM    3  C   UNL     1     -21.364  -7.061  -2.237  1.00  0.00     0.010 C 
BRANCH   3   4
HETATM    4  C   UNL     1     -22.285  -6.680  -1.076  1.00  0.00     0.111 C 
BRANCH   4   5
HETATM    5  C   UNL     1     -22.615  -7.915  -0.266  1.00  0.00     0.259 C 
HETATM    6  O   UNL     1     -23.404  -7.935   0.664  1.00  0.00    -0.265 OA
BRANCH   5   7
HETATM    7  O   UNL     1     -21.916  -9.000  -0.723  1.00  0.00    -0.317 OA
BRANCH   7   8
HETATM    8  C   UNL     1     -22.614 -10.255  -0.583  1.00  0.00     0.123 C 
HETATM    9  C   UNL     1     -22.841 -10.862  -1.961  1.00  0.00     0.040 C 
HETATM   10  C   UNL     1     -21.779 -11.216   0.267  1.00  0.00     0.040 C 
ENDBRANCH   7   8
ENDBRANCH   5   7
ENDBRANCH   4   5
ENDBRANCH   3   4
ENDBRANCH   2   3
ENDBRANCH   1   2
BRANCH   1  11
HETATM   11  C   UNL     1     -20.423  -6.870  -5.627  1.00  0.00     0.000 C 
BRANCH  11  12
HETATM   12  C   UNL     1     -20.469  -5.352  -5.434  1.00  0.00     0.000 C 
BRANCH  12  13
HETATM   13  C   UNL     1     -20.104  -4.645  -6.734  1.00  0.00     0.010 C 
BRANCH  13  14
HETATM   14  C   UNL     1     -21.146  -3.614  -7.171  1.00  0.00     0.111 C 
BRANCH  14  15
HETATM   15  C   UNL     1     -22.342  -4.325  -7.767  1.00  0.00     0.259 C 
HETATM   16  O   UNL     1     -23.442  -4.384  -7.240  1.00  0.00    -0.265 OA
BRANCH  15  17
HETATM   17  O   UNL     1     -22.023  -4.897  -8.965  1.00  0.00    -0.317 OA
BRANCH  17  18
HETATM   18  C   UNL     1     -22.422  -4.134 -10.124  1.00  0.00     0.123 C 
HETATM   19  C   UNL     1     -21.250  -3.988 -11.092  1.00  0.00     0.040 C 
HETATM   20  C   UNL     1     -23.565  -4.871 -10.814  1.00  0.00     0.040 C 
ENDBRANCH  17  18
ENDBRANCH  15  17
ENDBRANCH  14  15
ENDBRANCH  13  14
ENDBRANCH  12  13
ENDBRANCH  11  12
ENDBRANCH   1  11
TORSDOF 13
ENDMDL
MODEL 5
REMARK VINA RESULT:      -6.1      1.420      8.881
REMARK  13 active torsions:
REMARK  status: ('A' for Active; 'I' for Inactive)
REMARK    1  A    between atoms: C_2  and  O_4 
REMARK    2  A    between atoms: O_4  and  C_5 
REMARK    3  A    between atoms: C_5  and  C_7 
REMARK    4  A    between atoms: C_7  and  C_8 
REMARK    5  A    between atoms: C_8  and  C_9 
REMARK    6  A    between atoms: C_9  and  C_10 
REMARK    7  A    between atoms: C_10  and  C_11 
REMARK    8  A    between atoms: C_11  and  C_12 
REMARK    9  A    between atoms: C_12  and  C_13 
REMARK   10  A    between atoms: C_13  and  C_14 
REMARK   11  A    between atoms: C_14  and  C_15 
REMARK   12  A    between atoms: C_15  and  O_17 
REMARK   13  A    between atoms: O_17  and  C_18 
ROOT
HETATM    1  C   UNL     1     -20.025  -6.040  -6.317  1.00  0.00     0.000 C 
ENDROOT
BRANCH   1   2
HETATM    2  C   UNL     1     -20.554  -4.614  -6.136  1.00  0.00     0.000 C 
BRANCH   2   3
HETATM    3  C   UNL     1     -20.911  -4.010  -7.490  1.00  0.00     0.010 C 
BRANCH   3   4
HETATM    4  C   UNL     1     -20.573  -4.930  -8.665  1.00  0.00     0.111 C 
BRANCH   4   5
HETATM    5  C   UNL     1     -20.868  -4.217  -9.967  1.00  0.00     0.259 C 
HETATM    6  O   UNL     1     -20.243  -4.389 -11.001  1.00  0.00    -0.265 OA
BRANCH   5   7
HETATM    7  O   UNL     1     -21.929  -3.364  -9.827  1.00  0.00    -0.317 OA
BRANCH   7   8
HETATM    8  C   UNL     1     -23.116  -3.775 -10.537  1.00  0.00     0.123 C 
HETATM    9  C   UNL     1     -24.323  -3.650  -9.615  1.00  0.00     0.040 C 
HETATM   10  C   UNL     1     -23.317  -2.883 -11.764  1.00  0.00     0.040 C 
ENDBRANCH   7   8
ENDBRANCH   5   7
ENDBRANCH   4   5
ENDBRANCH   3   4
ENDBRANCH   2   3
ENDBRANCH   1   2
BRANCH   1  11
HETATM   11  C   UNL     1     -20.643  -6.998  -5.304  1.00  0.00     0.000 C 
BRANCH  11  12
HETATM   12  C   UNL     1     -21.565  -6.262  -4.328  1.00  0.00     0.000 C 
BRANCH  12  13
HETATM   13  C   UNL     1     -21.137  -6.538  -2.891  1.00  0.00     0.010 C 
BRANCH  13  14
HETATM   14  C   UNL     1     -22.205  -6.159  -1.863  1.00  0.00     0.111 C 
BRANCH  14  15
HETATM   15  C   UNL     1     -22.345  -7.272  -0.846  1.00  0.00     0.259 C 
HETATM   16  O   UNL     1     -23.231  -7.334  -0.009  1.00  0.00    -0.265 OA
BRANCH  15  17
HETATM   17  O   UNL     1     -21.343  -8.189  -0.986  1.00  0.00    -0.317 OA
BRANCH  17  18
HETATM   18  C   UNL     1     -21.773  -9.566  -0.929  1.00  0.00     0.123 C 
HETATM   19  C   UNL     1     -21.975 -10.118  -2.339  1.00  0.00     0.040 C 
HETATM   20  C   UNL     1     -20.697 -10.377  -0.213  1.00  0.00     0.040 C 
ENDBRANCH  17  18
ENDBRANCH  15  17
ENDBRANCH  14  15
ENDBRANCH  13  14
ENDBRANCH  12  13
ENDBRANCH  11  12
ENDBRANCH   1  11
TORSDOF 13
ENDMDL
MODEL 6
REMARK VINA RESULT:      -5.9      1.552      9.185
REMARK  13 active torsions:
REMARK  status: ('A' for Active; 'I' for Inactive)
REMARK    1  A    between atoms: C_2  and  O_4 
REMARK    2  A    between atoms: O_4  and  C_5 
REMARK    3  A    between atoms: C_5  and  C_7 
REMARK    4  A    between atoms: C_7  and  C_8 
REMARK    5  A    between atoms: C_8  and  C_9 
REMARK    6  A    between atoms: C_9  and  C_10 
REMARK    7  A    between atoms: C_10  and  C_11 
REMARK    8  A    between atoms: C_11  and  C_12 
REMARK    9  A    between atoms: C_12  and  C_13 
REMARK   10  A    between atoms: C_13  and  C_14 
REMARK   11  A    between atoms: C_14  and  C_15 
REMARK   12  A    between atoms: C_15  and  O_17 
REMARK   13  A    between atoms: O_17  and  C_18 
ROOT
HETATM    1  C   UNL     1     -21.853  -7.215  -4.514  1.00  0.00     0.000 C 
ENDROOT
BRANCH   1   2
HETATM    2  C   UNL     1     -20.466  -7.210  -5.165  1.00  0.00     0.000 C 
BRANCH   2   3
HETATM    3  C   UNL     1     -20.276  -5.938  -5.985  1.00  0.00     0.010 C 
BRANCH   3   4
HETATM    4  C   UNL     1     -21.295  -5.796  -7.117  1.00  0.00     0.111 C 
BRANCH   4   5
HETATM    5  C   UNL     1     -21.137  -4.441  -7.773  1.00  0.00     0.259 C 
HETATM    6  O   UNL     1     -21.245  -3.377  -7.186  1.00  0.00    -0.265 OA
BRANCH   5   7
HETATM    7  O   UNL     1     -20.850  -4.574  -9.106  1.00  0.00    -0.317 OA
BRANCH   7   8
HETATM    8  C   UNL     1     -21.761  -3.874  -9.979  1.00  0.00     0.123 C 
HETATM    9  C   UNL     1     -21.115  -3.703 -11.348  1.00  0.00     0.040 C 
HETATM   10  C   UNL     1     -23.055  -4.677 -10.122  1.00  0.00     0.040 C 
ENDBRANCH   7   8
ENDBRANCH   5   7
ENDBRANCH   4   5
ENDBRANCH   3   4
ENDBRANCH   2   3
ENDBRANCH   1   2
BRANCH   1  11
HETATM   11  C   UNL     1     -21.868  -6.401  -3.224  1.00  0.00     0.000 C 
BRANCH  11  12
HETATM   12  C   UNL     1     -21.473  -7.257  -2.018  1.00  0.00     0.000 C 
BRANCH  12  13
HETATM   13  C   UNL     1     -22.238  -6.805  -0.780  1.00  0.00     0.010 C 
BRANCH  13  14
HETATM   14  C   UNL     1     -22.906  -7.960  -0.031  1.00  0.00     0.111 C 
BRANCH  14  15
HETATM   15  C   UNL     1     -21.843  -8.882   0.528  1.00  0.00     0.259 C 
HETATM   16  O   UNL     1     -21.068  -8.578   1.420  1.00  0.00    -0.265 OA
BRANCH  15  17
HETATM   17  O   UNL     1     -21.864 -10.091  -0.106  1.00  0.00    -0.317 OA
BRANCH  17  18
HETATM   18  C   UNL     1     -23.099 -10.394  -0.790  1.00  0.00     0.123 C 
HETATM   19  C   UNL     1     -22.814 -10.878  -2.210  1.00  0.00     0.040 C 
HETATM   20  C   UNL     1     -23.822 -11.489  -0.013  1.00  0.00     0.040 C 
ENDBRANCH  17  18
ENDBRANCH  15  17
ENDBRANCH  14  15
ENDBRANCH  13  14
ENDBRANCH  12  13
ENDBRANCH  11  12
ENDBRANCH   1  11
TORSDOF 13
ENDMDL
MODEL 7
REMARK VINA RESULT:      -5.8      1.258      2.041
REMARK  13 active torsions:
REMARK  status: ('A' for Active; 'I' for Inactive)
REMARK    1  A    between atoms: C_2  and  O_4 
REMARK    2  A    between atoms: O_4  and  C_5 
REMARK    3  A    between atoms: C_5  and  C_7 
REMARK    4  A    between atoms: C_7  and  C_8 
REMARK    5  A    between atoms: C_8  and  C_9 
REMARK    6  A    between atoms: C_9  and  C_10 
REMARK    7  A    between atoms: C_10  and  C_11 
REMARK    8  A    between atoms: C_11  and  C_12 
REMARK    9  A    between atoms: C_12  and  C_13 
REMARK   10  A    between atoms: C_13  and  C_14 
REMARK   11  A    between atoms: C_14  and  C_15 
REMARK   12  A    between atoms: C_15  and  O_17 
REMARK   13  A    between atoms: O_17  and  C_18 
ROOT
HETATM    1  C   UNL     1     -21.194  -7.465  -5.358  1.00  0.00     0.000 C 
ENDROOT
BRANCH   1   2
HETATM    2  C   UNL     1     -22.037  -6.534  -4.481  1.00  0.00     0.000 C 
BRANCH   2   3
HETATM    3  C   UNL     1     -21.276  -6.179  -3.208  1.00  0.00     0.010 C 
BRANCH   3   4
HETATM    4  C   UNL     1     -21.804  -6.908  -1.970  1.00  0.00     0.111 C 
BRANCH   4   5
HETATM    5  C   UNL     1     -20.864  -8.037  -1.608  1.00  0.00     0.259 C 
HETATM    6  O   UNL     1     -19.857  -8.320  -2.236  1.00  0.00    -0.265 OA
BRANCH   5   7
HETATM    7  O   UNL     1     -21.292  -8.687  -0.481  1.00  0.00    -0.317 OA
BRANCH   7   8
HETATM    8  C   UNL     1     -22.725  -8.689  -0.309  1.00  0.00     0.123 C 
HETATM    9  C   UNL     1     -23.228 -10.127  -0.285  1.00  0.00     0.040 C 
HETATM   10  C   UNL     1     -23.086  -8.000   1.009  1.00  0.00     0.040 C 
ENDBRANCH   7   8
ENDBRANCH   5   7
ENDBRANCH   4   5
ENDBRANCH   3   4
ENDBRANCH   2   3
ENDBRANCH   1   2
BRANCH   1  11
HETATM   11  C   UNL     1     -20.031  -6.722  -6.006  1.00  0.00     0.000 C 
BRANCH  11  12
HETATM   12  C   UNL     1     -20.457  -5.335  -6.496  1.00  0.00     0.000 C 
BRANCH  12  13
HETATM   13  C   UNL     1     -20.606  -5.337  -8.013  1.00  0.00     0.010 C 
BRANCH  13  14
HETATM   14  C   UNL     1     -20.966  -3.963  -8.583  1.00  0.00     0.111 C 
BRANCH  14  15
HETATM   15  C   UNL     1     -20.980  -4.032 -10.095  1.00  0.00     0.259 C 
HETATM   16  O   UNL     1     -20.187  -4.677 -10.763  1.00  0.00    -0.265 OA
BRANCH  15  17
HETATM   17  O   UNL     1     -21.989  -3.270 -10.610  1.00  0.00    -0.317 OA
BRANCH  17  18
HETATM   18  C   UNL     1     -22.867  -3.965 -11.521  1.00  0.00     0.123 C 
HETATM   19  C   UNL     1     -23.730  -4.971 -10.762  1.00  0.00     0.040 C 
HETATM   20  C   UNL     1     -23.762  -2.937 -12.204  1.00  0.00     0.040 C 
ENDBRANCH  17  18
ENDBRANCH  15  17
ENDBRANCH  14  15
ENDBRANCH  13  14
ENDBRANCH  12  13
ENDBRANCH  11  12
ENDBRANCH   1  11
TORSDOF 13
ENDMDL
MODEL 8
REMARK VINA RESULT:      -5.8      1.583      9.006
REMARK  13 active torsions:
REMARK  status: ('A' for Active; 'I' for Inactive)
REMARK    1  A    between atoms: C_2  and  O_4 
REMARK    2  A    between atoms: O_4  and  C_5 
REMARK    3  A    between atoms: C_5  and  C_7 
REMARK    4  A    between atoms: C_7  and  C_8 
REMARK    5  A    between atoms: C_8  and  C_9 
REMARK    6  A    between atoms: C_9  and  C_10 
REMARK    7  A    between atoms: C_10  and  C_11 
REMARK    8  A    between atoms: C_11  and  C_12 
REMARK    9  A    between atoms: C_12  and  C_13 
REMARK   10  A    between atoms: C_13  and  C_14 
REMARK   11  A    between atoms: C_14  and  C_15 
REMARK   12  A    between atoms: C_15  and  O_17 
REMARK   13  A    between atoms: O_17  and  C_18 
ROOT
HETATM    1  C   UNL     1     -20.772  -5.566  -6.700  1.00  0.00     0.000 C 
ENDROOT
BRANCH   1   2
HETATM    2  C   UNL     1     -19.634  -5.187  -7.653  1.00  0.00     0.000 C 
BRANCH   2   3
HETATM    3  C   UNL     1     -20.126  -4.178  -8.684  1.00  0.00     0.010 C 
BRANCH   3   4
HETATM    4  C   UNL     1     -20.101  -4.721 -10.115  1.00  0.00     0.111 C 
BRANCH   4   5
HETATM    5  C   UNL     1     -20.826  -3.762 -11.034  1.00  0.00     0.259 C 
HETATM    6  O   UNL     1     -20.430  -2.640 -11.306  1.00  0.00    -0.265 OA
BRANCH   5   7
HETATM    7  O   UNL     1     -21.975  -4.325 -11.519  1.00  0.00    -0.317 OA
BRANCH   7   8
HETATM    8  C   UNL     1     -23.186  -3.768 -10.965  1.00  0.00     0.123 C 
HETATM    9  C   UNL     1     -24.009  -3.141 -12.083  1.00  0.00     0.040 C 
HETATM   10  C   UNL     1     -24.000  -4.876 -10.292  1.00  0.00     0.040 C 
ENDBRANCH   7   8
ENDBRANCH   5   7
ENDBRANCH   4   5
ENDBRANCH   3   4
ENDBRANCH   2   3
ENDBRANCH   1   2
BRANCH   1  11
HETATM   11  C   UNL     1     -20.474  -5.128  -5.271  1.00  0.00     0.000 C 
BRANCH  11  12
HETATM   12  C   UNL     1     -21.314  -5.911  -4.258  1.00  0.00     0.000 C 
BRANCH  12  13
HETATM   13  C   UNL     1     -21.538  -7.335  -4.751  1.00  0.00     0.010 C 
BRANCH  13  14
HETATM   14  C   UNL     1     -20.349  -8.259  -4.481  1.00  0.00     0.111 C 
BRANCH  14  15
HETATM   15  C   UNL     1     -20.325  -8.638  -3.016  1.00  0.00     0.259 C 
HETATM   16  O   UNL     1     -19.307  -8.811  -2.366  1.00  0.00    -0.265 OA
BRANCH  15  17
HETATM   17  O   UNL     1     -21.592  -8.767  -2.524  1.00  0.00    -0.317 OA
BRANCH  17  18
HETATM   18  C   UNL     1     -21.711  -8.561  -1.101  1.00  0.00     0.123 C 
HETATM   19  C   UNL     1     -22.212  -7.147  -0.809  1.00  0.00     0.040 C 
HETATM   20  C   UNL     1     -22.706  -9.577  -0.549  1.00  0.00     0.040 C 
ENDBRANCH  17  18
ENDBRANCH  15  17
ENDBRANCH  14  15
ENDBRANCH  13  14
ENDBRANCH  12  13
ENDBRANCH  11  12
ENDBRANCH   1  11
TORSDOF 13
ENDMDL
MODEL 9
REMARK VINA RESULT:      -5.4      2.192      4.041
REMARK  13 active torsions:
REMARK  status: ('A' for Active; 'I' for Inactive)
REMARK    1  A    between atoms: C_2  and  O_4 
REMARK    2  A    between atoms: O_4  and  C_5 
REMARK    3  A    between atoms: C_5  and  C_7 
REMARK    4  A    between atoms: C_7  and  C_8 
REMARK    5  A    between atoms: C_8  and  C_9 
REMARK    6  A    between atoms: C_9  and  C_10 
REMARK    7  A    between atoms: C_10  and  C_11 
REMARK    8  A    between atoms: C_11  and  C_12 
REMARK    9  A    between atoms: C_12  and  C_13 
REMARK   10  A    between atoms: C_13  and  C_14 
REMARK   11  A    between atoms: C_14  and  C_15 
REMARK   12  A    between atoms: C_15  and  O_17 
REMARK   13  A    between atoms: O_17  and  C_18 
ROOT
HETATM    1  C   UNL     1     -20.621  -7.840  -1.654  1.00  0.00     0.000 C 
ENDROOT
BRANCH   1   2
HETATM    2  C   UNL     1     -21.826  -7.411  -0.811  1.00  0.00     0.000 C 
BRANCH   2   3
HETATM    3  C   UNL     1     -22.065  -8.412   0.314  1.00  0.00     0.010 C 
BRANCH   3   4
HETATM    4  C   UNL     1     -23.489  -8.971   0.327  1.00  0.00     0.111 C 
BRANCH   4   5
HETATM    5  C   UNL     1     -23.504 -10.337  -0.324  1.00  0.00     0.259 C 
HETATM    6  O   UNL     1     -23.951 -11.344   0.202  1.00  0.00    -0.265 OA
BRANCH   5   7
HETATM    7  O   UNL     1     -22.956 -10.287  -1.578  1.00  0.00    -0.317 OA
BRANCH   7   8
HETATM    8  C   UNL     1     -22.397 -11.538  -2.030  1.00  0.00     0.123 C 
HETATM    9  C   UNL     1     -22.527 -11.630  -3.545  1.00  0.00     0.040 C 
HETATM   10  C   UNL     1     -20.920 -11.613  -1.638  1.00  0.00     0.040 C 
ENDBRANCH   7   8
ENDBRANCH   5   7
ENDBRANCH   4   5
ENDBRANCH   3   4
ENDBRANCH   2   3
ENDBRANCH   1   2
BRANCH   1  11
HETATM   11  C   UNL     1     -20.861  -7.591  -3.139  1.00  0.00     0.000 C 
BRANCH  11  12
HETATM   12  C   UNL     1     -21.966  -6.555  -3.361  1.00  0.00     0.000 C 
BRANCH  12  13
HETATM   13  C   UNL     1     -22.121  -6.262  -4.849  1.00  0.00     0.010 C 
BRANCH  13  14
HETATM   14  C   UNL     1     -20.933  -5.498  -5.438  1.00  0.00     0.111 C 
BRANCH  14  15
HETATM   15  C   UNL     1     -20.468  -6.185  -6.704  1.00  0.00     0.259 C 
HETATM   16  O   UNL     1     -19.521  -6.953  -6.762  1.00  0.00    -0.265 OA
BRANCH  15  17
HETATM   17  O   UNL     1     -21.241  -5.822  -7.769  1.00  0.00    -0.317 OA
BRANCH  17  18
HETATM   18  C   UNL     1     -21.067  -4.457  -8.205  1.00  0.00     0.123 C 
HETATM   19  C   UNL     1     -20.289  -4.414  -9.518  1.00  0.00     0.040 C 
HETATM   20  C   UNL     1     -22.446  -3.838  -8.408  1.00  0.00     0.040 C 
ENDBRANCH  17  18
ENDBRANCH  15  17
ENDBRANCH  14  15
ENDBRANCH  13  14
ENDBRANCH  12  13
ENDBRANCH  11  12
ENDBRANCH   1  11
TORSDOF 13
ENDMDL
