MODEL 1
REMARK VINA RESULT:      -1.3      0.000      0.000
REMARK  7 active torsions:
REMARK  status: ('A' for Active; 'I' for Inactive)
REMARK    1  A    between atoms: C_7  and  N_15 
REMARK    2  A    between atoms: C_10  and  S_11 
REMARK    3  A    between atoms: N_17  and  C_19 
REMARK    4  A    between atoms: C_20  and  O_37 
REMARK    5  A    between atoms: C_25  and  S_33 
REMARK    6  A    between atoms: C_27  and  S_29 
REMARK    7  A    between atoms: S_29  and  O_32 
ROOT
HETATM    1 NA   UNL     3     -32.324  -8.576   4.529  1.00  0.00     0.000 Na
ENDROOT
TORSDOF 7
ENDMDL
MODEL 2
REMARK VINA RESULT:      -1.3     23.494     23.494
REMARK  7 active torsions:
REMARK  status: ('A' for Active; 'I' for Inactive)
REMARK    1  A    between atoms: C_7  and  N_15 
REMARK    2  A    between atoms: C_10  and  S_11 
REMARK    3  A    between atoms: N_17  and  C_19 
REMARK    4  A    between atoms: C_20  and  O_37 
REMARK    5  A    between atoms: C_25  and  S_33 
REMARK    6  A    between atoms: C_27  and  S_29 
REMARK    7  A    between atoms: S_29  and  O_32 
ROOT
HETATM    1 NA   UNL     3     -11.257   1.619   2.468  1.00  0.00     0.000 Na
ENDROOT
TORSDOF 7
ENDMDL
MODEL 3
REMARK VINA RESULT:      -1.2     19.033     19.033
REMARK  7 active torsions:
REMARK  status: ('A' for Active; 'I' for Inactive)
REMARK    1  A    between atoms: C_7  and  N_15 
REMARK    2  A    between atoms: C_10  and  S_11 
REMARK    3  A    between atoms: N_17  and  C_19 
REMARK    4  A    between atoms: C_20  and  O_37 
REMARK    5  A    between atoms: C_25  and  S_33 
REMARK    6  A    between atoms: C_27  and  S_29 
REMARK    7  A    between atoms: S_29  and  O_32 
ROOT
HETATM    1 NA   UNL     3     -27.015 -13.665 -13.026  1.00  0.00     0.000 Na
ENDROOT
TORSDOF 7
ENDMDL
MODEL 4
REMARK VINA RESULT:      -1.2     22.209     22.209
REMARK  7 active torsions:
REMARK  status: ('A' for Active; 'I' for Inactive)
REMARK    1  A    between atoms: C_7  and  N_15 
REMARK    2  A    between atoms: C_10  and  S_11 
REMARK    3  A    between atoms: N_17  and  C_19 
REMARK    4  A    between atoms: C_20  and  O_37 
REMARK    5  A    between atoms: C_25  and  S_33 
REMARK    6  A    between atoms: C_27  and  S_29 
REMARK    7  A    between atoms: S_29  and  O_32 
ROOT
HETATM    1 NA   UNL     3     -25.113   0.407 -14.459  1.00  0.00     0.000 Na
ENDROOT
TORSDOF 7
ENDMDL
MODEL 5
REMARK VINA RESULT:      -1.2     14.867     14.867
REMARK  7 active torsions:
REMARK  status: ('A' for Active; 'I' for Inactive)
REMARK    1  A    between atoms: C_7  and  N_15 
REMARK    2  A    between atoms: C_10  and  S_11 
REMARK    3  A    between atoms: N_17  and  C_19 
REMARK    4  A    between atoms: C_20  and  O_37 
REMARK    5  A    between atoms: C_25  and  S_33 
REMARK    6  A    between atoms: C_27  and  S_29 
REMARK    7  A    between atoms: S_29  and  O_32 
ROOT
HETATM    1 NA   UNL     3     -27.300  -5.625  -9.149  1.00  0.00     0.000 Na
ENDROOT
TORSDOF 7
ENDMDL
MODEL 6
REMARK VINA RESULT:      -1.1     12.328     12.328
REMARK  7 active torsions:
REMARK  status: ('A' for Active; 'I' for Inactive)
REMARK    1  A    between atoms: C_7  and  N_15 
REMARK    2  A    between atoms: C_10  and  S_11 
REMARK    3  A    between atoms: N_17  and  C_19 
REMARK    4  A    between atoms: C_20  and  O_37 
REMARK    5  A    between atoms: C_25  and  S_33 
REMARK    6  A    between atoms: C_27  and  S_29 
REMARK    7  A    between atoms: S_29  and  O_32 
ROOT
HETATM    1 NA   UNL     3     -25.223  -5.220  -4.974  1.00  0.00     0.000 Na
ENDROOT
TORSDOF 7
ENDMDL
MODEL 7
REMARK VINA RESULT:      -1.0      9.903      9.903
REMARK  7 active torsions:
REMARK  status: ('A' for Active; 'I' for Inactive)
REMARK    1  A    between atoms: C_7  and  N_15 
REMARK    2  A    between atoms: C_10  and  S_11 
REMARK    3  A    between atoms: N_17  and  C_19 
REMARK    4  A    between atoms: C_20  and  O_37 
REMARK    5  A    between atoms: C_25  and  S_33 
REMARK    6  A    between atoms: C_27  and  S_29 
REMARK    7  A    between atoms: S_29  and  O_32 
ROOT
HETATM    1 NA   UNL     3     -32.733  -6.045  -5.036  1.00  0.00     0.000 Na
ENDROOT
TORSDOF 7
ENDMDL
MODEL 8
REMARK VINA RESULT:      -1.0     25.372     25.372
REMARK  7 active torsions:
REMARK  status: ('A' for Active; 'I' for Inactive)
REMARK    1  A    between atoms: C_7  and  N_15 
REMARK    2  A    between atoms: C_10  and  S_11 
REMARK    3  A    between atoms: N_17  and  C_19 
REMARK    4  A    between atoms: C_20  and  O_37 
REMARK    5  A    between atoms: C_25  and  S_33 
REMARK    6  A    between atoms: C_27  and  S_29 
REMARK    7  A    between atoms: S_29  and  O_32 
ROOT
HETATM    1 NA   UNL     3     -23.209   0.181 -17.471  1.00  0.00     0.000 Na
ENDROOT
TORSDOF 7
ENDMDL
MODEL 9
REMARK VINA RESULT:      -1.0     15.718     15.718
REMARK  7 active torsions:
REMARK  status: ('A' for Active; 'I' for Inactive)
REMARK    1  A    between atoms: C_7  and  N_15 
REMARK    2  A    between atoms: C_10  and  S_11 
REMARK    3  A    between atoms: N_17  and  C_19 
REMARK    4  A    between atoms: C_20  and  O_37 
REMARK    5  A    between atoms: C_25  and  S_33 
REMARK    6  A    between atoms: C_27  and  S_29 
REMARK    7  A    between atoms: S_29  and  O_32 
ROOT
HETATM    1 NA   UNL     3     -26.953  -3.578  -9.372  1.00  0.00     0.000 Na
ENDROOT
TORSDOF 7
ENDMDL
