MODEL 1
REMARK VINA RESULT:      -6.2      0.000      0.000
REMARK  19 active torsions:
REMARK  status: ('A' for Active; 'I' for Inactive)
REMARK    1  A    between atoms: C_2  and  C_4 
REMARK    2  A    between atoms: C_4  and  C_5 
REMARK    3  A    between atoms: C_5  and  C_6 
REMARK    4  A    between atoms: C_6  and  C_7 
REMARK    5  A    between atoms: C_7  and  C_8 
REMARK    6  A    between atoms: C_8  and  O_9 
REMARK    7  A    between atoms: O_9  and  C_10 
REMARK    8  A    between atoms: C_10  and  C_12 
REMARK    9  A    between atoms: C_12  and  C_13 
REMARK   10  A    between atoms: C_13  and  C_14 
REMARK   11  A    between atoms: C_14  and  C_15 
REMARK   12  A    between atoms: C_15  and  C_16 
REMARK   13  A    between atoms: C_16  and  O_18 
REMARK   14  A    between atoms: O_18  and  C_19 
REMARK   15  A    between atoms: C_19  and  C_20 
REMARK   16  A    between atoms: C_20  and  C_21 
REMARK   17  A    between atoms: C_21  and  C_22 
REMARK   18  A    between atoms: C_22  and  C_23 
REMARK   19  A    between atoms: C_23  and  C_24 
ROOT
HETATM    1  C   UNL     1     -21.209  -6.009  -3.996  1.00  0.00     0.010 C 
ENDROOT
BRANCH   1   2
HETATM    2  C   UNL     1     -21.931  -6.389  -5.281  1.00  0.00     0.111 C 
BRANCH   2   3
HETATM    3  C   UNL     1     -21.007  -6.393  -6.481  1.00  0.00     0.258 C 
HETATM    4  O   UNL     1     -19.942  -6.975  -6.561  1.00  0.00    -0.265 OA
BRANCH   3   5
HETATM    5  O   UNL     1     -21.496  -5.520  -7.404  1.00  0.00    -0.321 OA
BRANCH   5   6
HETATM    6  C   UNL     1     -20.941  -4.207  -7.293  1.00  0.00     0.178 C 
BRANCH   6   7
HETATM    7  C   UNL     1     -19.880  -3.932  -8.346  1.00  0.00     0.027 C 
BRANCH   7   8
HETATM    8  C   UNL     1     -20.234  -4.681  -9.635  1.00  0.00     0.002 C 
BRANCH   8   9
HETATM    9  C   UNL     1     -20.603  -3.724 -10.764  1.00  0.00     0.000 C 
BRANCH   9  10
HETATM   10  C   UNL     1     -21.918  -4.132 -11.438  1.00  0.00     0.004 C 
BRANCH  10  11
HETATM   11  C   UNL     1     -23.127  -3.301 -10.967  1.00  0.00    -0.023 C 
HETATM   12  C   UNL     1     -24.135  -3.148 -12.110  1.00  0.00     0.009 C 
HETATM   13  C   UNL     1     -23.823  -3.916  -9.751  1.00  0.00     0.009 C 
ENDBRANCH  10  11
ENDBRANCH   9  10
ENDBRANCH   8   9
ENDBRANCH   7   8
ENDBRANCH   6   7
ENDBRANCH   5   6
ENDBRANCH   3   5
ENDBRANCH   2   3
ENDBRANCH   1   2
BRANCH   1  14
HETATM   14  C   UNL     1     -22.077  -6.298  -2.772  1.00  0.00     0.010 C 
BRANCH  14  15
HETATM   15  C   UNL     1     -21.285  -7.039  -1.698  1.00  0.00     0.111 C 
BRANCH  15  16
HETATM   16  C   UNL     1     -22.180  -7.851  -0.792  1.00  0.00     0.258 C 
HETATM   17  O   UNL     1     -23.099  -7.410  -0.118  1.00  0.00    -0.265 OA
BRANCH  16  18
HETATM   18  O   UNL     1     -21.696  -9.122  -0.731  1.00  0.00    -0.321 OA
BRANCH  18  19
HETATM   19  C   UNL     1     -22.587 -10.102  -1.266  1.00  0.00     0.178 C 
BRANCH  19  20
HETATM   20  C   UNL     1     -22.226 -10.506  -2.687  1.00  0.00     0.027 C 
BRANCH  20  21
HETATM   21  C   UNL     1     -20.702 -10.499  -2.845  1.00  0.00     0.002 C 
BRANCH  21  22
HETATM   22  C   UNL     1     -20.265  -9.741  -4.094  1.00  0.00     0.000 C 
BRANCH  22  23
HETATM   23  C   UNL     1     -18.935  -9.011  -3.871  1.00  0.00     0.004 C 
BRANCH  23  24
HETATM   24  C   UNL     1     -17.711  -9.938  -3.987  1.00  0.00    -0.023 C 
HETATM   25  C   UNL     1     -17.065  -9.880  -5.373  1.00  0.00     0.009 C 
HETATM   26  C   UNL     1     -16.674  -9.575  -2.923  1.00  0.00     0.009 C 
ENDBRANCH  23  24
ENDBRANCH  22  23
ENDBRANCH  21  22
ENDBRANCH  20  21
ENDBRANCH  19  20
ENDBRANCH  18  19
ENDBRANCH  16  18
ENDBRANCH  15  16
ENDBRANCH  14  15
ENDBRANCH   1  14
TORSDOF 19
ENDMDL
MODEL 2
REMARK VINA RESULT:      -6.0      1.769      9.200
REMARK  19 active torsions:
REMARK  status: ('A' for Active; 'I' for Inactive)
REMARK    1  A    between atoms: C_2  and  C_4 
REMARK    2  A    between atoms: C_4  and  C_5 
REMARK    3  A    between atoms: C_5  and  C_6 
REMARK    4  A    between atoms: C_6  and  C_7 
REMARK    5  A    between atoms: C_7  and  C_8 
REMARK    6  A    between atoms: C_8  and  O_9 
REMARK    7  A    between atoms: O_9  and  C_10 
REMARK    8  A    between atoms: C_10  and  C_12 
REMARK    9  A    between atoms: C_12  and  C_13 
REMARK   10  A    between atoms: C_13  and  C_14 
REMARK   11  A    between atoms: C_14  and  C_15 
REMARK   12  A    between atoms: C_15  and  C_16 
REMARK   13  A    between atoms: C_16  and  O_18 
REMARK   14  A    between atoms: O_18  and  C_19 
REMARK   15  A    between atoms: C_19  and  C_20 
REMARK   16  A    between atoms: C_20  and  C_21 
REMARK   17  A    between atoms: C_21  and  C_22 
REMARK   18  A    between atoms: C_22  and  C_23 
REMARK   19  A    between atoms: C_23  and  C_24 
ROOT
HETATM    1  C   UNL     1     -21.540  -7.717  -2.708  1.00  0.00     0.010 C 
ENDROOT
BRANCH   1   2
HETATM    2  C   UNL     1     -20.231  -8.177  -2.081  1.00  0.00     0.111 C 
BRANCH   2   3
HETATM    3  C   UNL     1     -19.510  -9.197  -2.937  1.00  0.00     0.258 C 
HETATM    4  O   UNL     1     -18.655  -8.957  -3.767  1.00  0.00    -0.265 OA
BRANCH   3   5
HETATM    5  O   UNL     1     -20.081 -10.415  -2.727  1.00  0.00    -0.321 OA
BRANCH   5   6
HETATM    6  C   UNL     1     -19.200 -11.356  -2.110  1.00  0.00     0.178 C 
BRANCH   6   7
HETATM    7  C   UNL     1     -19.896 -12.200  -1.054  1.00  0.00     0.027 C 
BRANCH   7   8
HETATM    8  C   UNL     1     -19.764 -11.521   0.312  1.00  0.00     0.002 C 
BRANCH   8   9
HETATM    9  C   UNL     1     -21.041 -10.784   0.705  1.00  0.00     0.000 C 
BRANCH   9  10
HETATM   10  C   UNL     1     -22.285 -11.642   0.448  1.00  0.00     0.004 C 
BRANCH  10  11
HETATM   11  C   UNL     1     -23.427 -10.867  -0.238  1.00  0.00    -0.023 C 
HETATM   12  C   UNL     1     -23.282  -9.368   0.038  1.00  0.00     0.009 C 
HETATM   13  C   UNL     1     -23.473 -11.107  -1.748  1.00  0.00     0.009 C 
ENDBRANCH  10  11
ENDBRANCH   9  10
ENDBRANCH   8   9
ENDBRANCH   7   8
ENDBRANCH   6   7
ENDBRANCH   5   6
ENDBRANCH   3   5
ENDBRANCH   2   3
ENDBRANCH   1   2
BRANCH   1  14
HETATM   14  C   UNL     1     -21.323  -6.490  -3.593  1.00  0.00     0.010 C 
BRANCH  14  15
HETATM   15  C   UNL     1     -22.003  -6.662  -4.949  1.00  0.00     0.111 C 
BRANCH  15  16
HETATM   16  C   UNL     1     -21.017  -6.588  -6.092  1.00  0.00     0.258 C 
HETATM   17  O   UNL     1     -19.950  -7.180  -6.149  1.00  0.00    -0.265 OA
BRANCH  16  18
HETATM   18  O   UNL     1     -21.441  -5.637  -6.968  1.00  0.00    -0.321 OA
BRANCH  18  19
HETATM   19  C   UNL     1     -20.755  -4.390  -6.838  1.00  0.00     0.178 C 
BRANCH  19  20
HETATM   20  C   UNL     1     -19.767  -4.145  -7.967  1.00  0.00     0.027 C 
BRANCH  20  21
HETATM   21  C   UNL     1     -20.272  -4.830  -9.241  1.00  0.00     0.002 C 
BRANCH  21  22
HETATM   22  C   UNL     1     -20.394  -3.849 -10.402  1.00  0.00     0.000 C 
BRANCH  22  23
HETATM   23  C   UNL     1     -21.532  -4.243 -11.352  1.00  0.00     0.004 C 
BRANCH  23  24
HETATM   24  C   UNL     1     -22.912  -3.750 -10.879  1.00  0.00    -0.023 C 
HETATM   25  C   UNL     1     -23.627  -2.911 -11.940  1.00  0.00     0.009 C 
HETATM   26  C   UNL     1     -23.790  -4.941 -10.490  1.00  0.00     0.009 C 
ENDBRANCH  23  24
ENDBRANCH  22  23
ENDBRANCH  21  22
ENDBRANCH  20  21
ENDBRANCH  19  20
ENDBRANCH  18  19
ENDBRANCH  16  18
ENDBRANCH  15  16
ENDBRANCH  14  15
ENDBRANCH   1  14
TORSDOF 19
ENDMDL
MODEL 3
REMARK VINA RESULT:      -6.0      1.231      1.924
REMARK  19 active torsions:
REMARK  status: ('A' for Active; 'I' for Inactive)
REMARK    1  A    between atoms: C_2  and  C_4 
REMARK    2  A    between atoms: C_4  and  C_5 
REMARK    3  A    between atoms: C_5  and  C_6 
REMARK    4  A    between atoms: C_6  and  C_7 
REMARK    5  A    between atoms: C_7  and  C_8 
REMARK    6  A    between atoms: C_8  and  O_9 
REMARK    7  A    between atoms: O_9  and  C_10 
REMARK    8  A    between atoms: C_10  and  C_12 
REMARK    9  A    between atoms: C_12  and  C_13 
REMARK   10  A    between atoms: C_13  and  C_14 
REMARK   11  A    between atoms: C_14  and  C_15 
REMARK   12  A    between atoms: C_15  and  C_16 
REMARK   13  A    between atoms: C_16  and  O_18 
REMARK   14  A    between atoms: O_18  and  C_19 
REMARK   15  A    between atoms: C_19  and  C_20 
REMARK   16  A    between atoms: C_20  and  C_21 
REMARK   17  A    between atoms: C_21  and  C_22 
REMARK   18  A    between atoms: C_22  and  C_23 
REMARK   19  A    between atoms: C_23  and  C_24 
ROOT
HETATM    1  C   UNL     1     -21.904  -6.420  -3.846  1.00  0.00     0.010 C 
ENDROOT
BRANCH   1   2
HETATM    2  C   UNL     1     -20.865  -5.671  -4.669  1.00  0.00     0.111 C 
BRANCH   2   3
HETATM    3  C   UNL     1     -20.437  -6.446  -5.898  1.00  0.00     0.258 C 
HETATM    4  O   UNL     1     -20.681  -7.614  -6.127  1.00  0.00    -0.265 OA
BRANCH   3   5
HETATM    5  O   UNL     1     -19.609  -5.656  -6.637  1.00  0.00    -0.321 OA
BRANCH   5   6
HETATM    6  C   UNL     1     -20.277  -4.550  -7.249  1.00  0.00     0.178 C 
BRANCH   6   7
HETATM    7  C   UNL     1     -21.334  -4.988  -8.249  1.00  0.00     0.027 C 
BRANCH   7   8
HETATM    8  C   UNL     1     -22.675  -4.340  -7.892  1.00  0.00     0.002 C 
BRANCH   8   9
HETATM    9  C   UNL     1     -23.383  -3.784  -9.124  1.00  0.00     0.000 C 
BRANCH   9  10
HETATM   10  C   UNL     1     -22.716  -4.265 -10.418  1.00  0.00     0.004 C 
BRANCH  10  11
HETATM   11  C   UNL     1     -22.069  -3.126 -11.229  1.00  0.00    -0.023 C 
HETATM   12  C   UNL     1     -20.556  -3.345 -11.324  1.00  0.00     0.009 C 
HETATM   13  C   UNL     1     -22.657  -3.000 -12.636  1.00  0.00     0.009 C 
ENDBRANCH  10  11
ENDBRANCH   9  10
ENDBRANCH   8   9
ENDBRANCH   7   8
ENDBRANCH   6   7
ENDBRANCH   5   6
ENDBRANCH   3   5
ENDBRANCH   2   3
ENDBRANCH   1   2
BRANCH   1  14
HETATM   14  C   UNL     1     -21.284  -7.000  -2.575  1.00  0.00     0.010 C 
BRANCH  14  15
HETATM   15  C   UNL     1     -22.172  -6.739  -1.361  1.00  0.00     0.111 C 
BRANCH  15  16
HETATM   16  C   UNL     1     -22.447  -8.000  -0.577  1.00  0.00     0.258 C 
HETATM   17  O   UNL     1     -22.915  -8.048   0.551  1.00  0.00    -0.265 OA
BRANCH  16  18
HETATM   18  O   UNL     1     -21.946  -9.059  -1.270  1.00  0.00    -0.321 OA
BRANCH  18  19
HETATM   19  C   UNL     1     -21.245  -9.999  -0.453  1.00  0.00     0.178 C 
BRANCH  19  20
HETATM   20  C   UNL     1     -19.986 -10.529  -1.122  1.00  0.00     0.027 C 
BRANCH  20  21
HETATM   21  C   UNL     1     -20.171 -10.511  -2.642  1.00  0.00     0.002 C 
BRANCH  21  22
HETATM   22  C   UNL     1     -18.838 -10.406  -3.375  1.00  0.00     0.000 C 
BRANCH  22  23
HETATM   23  C   UNL     1     -17.970  -9.279  -2.802  1.00  0.00     0.004 C 
BRANCH  23  24
HETATM   24  C   UNL     1     -16.463  -9.588  -2.860  1.00  0.00    -0.023 C 
HETATM   25  C   UNL     1     -16.085 -10.809  -2.018  1.00  0.00     0.009 C 
HETATM   26  C   UNL     1     -16.027  -9.810  -4.309  1.00  0.00     0.009 C 
ENDBRANCH  23  24
ENDBRANCH  22  23
ENDBRANCH  21  22
ENDBRANCH  20  21
ENDBRANCH  19  20
ENDBRANCH  18  19
ENDBRANCH  16  18
ENDBRANCH  15  16
ENDBRANCH  14  15
ENDBRANCH   1  14
TORSDOF 19
ENDMDL
MODEL 4
REMARK VINA RESULT:      -6.0      2.554      4.108
REMARK  19 active torsions:
REMARK  status: ('A' for Active; 'I' for Inactive)
REMARK    1  A    between atoms: C_2  and  C_4 
REMARK    2  A    between atoms: C_4  and  C_5 
REMARK    3  A    between atoms: C_5  and  C_6 
REMARK    4  A    between atoms: C_6  and  C_7 
REMARK    5  A    between atoms: C_7  and  C_8 
REMARK    6  A    between atoms: C_8  and  O_9 
REMARK    7  A    between atoms: O_9  and  C_10 
REMARK    8  A    between atoms: C_10  and  C_12 
REMARK    9  A    between atoms: C_12  and  C_13 
REMARK   10  A    between atoms: C_13  and  C_14 
REMARK   11  A    between atoms: C_14  and  C_15 
REMARK   12  A    between atoms: C_15  and  C_16 
REMARK   13  A    between atoms: C_16  and  O_18 
REMARK   14  A    between atoms: O_18  and  C_19 
REMARK   15  A    between atoms: C_19  and  C_20 
REMARK   16  A    between atoms: C_20  and  C_21 
REMARK   17  A    between atoms: C_21  and  C_22 
REMARK   18  A    between atoms: C_22  and  C_23 
REMARK   19  A    between atoms: C_23  and  C_24 
ROOT
HETATM    1  C   UNL     1     -22.326  -6.193  -2.010  1.00  0.00     0.010 C 
ENDROOT
BRANCH   1   2
HETATM    2  C   UNL     1     -21.222  -6.651  -2.953  1.00  0.00     0.111 C 
BRANCH   2   3
HETATM    3  C   UNL     1     -21.743  -6.964  -4.340  1.00  0.00     0.258 C 
HETATM    4  O   UNL     1     -21.928  -8.074  -4.800  1.00  0.00    -0.265 OA
BRANCH   3   5
HETATM    5  O   UNL     1     -21.834  -5.799  -5.039  1.00  0.00    -0.321 OA
BRANCH   5   6
HETATM    6  C   UNL     1     -20.577  -5.139  -5.209  1.00  0.00     0.178 C 
BRANCH   6   7
HETATM    7  C   UNL     1     -20.464  -4.439  -6.553  1.00  0.00     0.027 C 
BRANCH   7   8
HETATM    8  C   UNL     1     -20.171  -5.472  -7.645  1.00  0.00     0.002 C 
BRANCH   8   9
HETATM    9  C   UNL     1     -20.088  -4.830  -9.027  1.00  0.00     0.000 C 
BRANCH   9  10
HETATM   10  C   UNL     1     -21.350  -4.022  -9.346  1.00  0.00     0.004 C 
BRANCH  10  11
HETATM   11  C   UNL     1     -21.957  -4.359 -10.722  1.00  0.00    -0.023 C 
HETATM   12  C   UNL     1     -23.423  -4.772 -10.560  1.00  0.00     0.009 C 
HETATM   13  C   UNL     1     -21.860  -3.193 -11.707  1.00  0.00     0.009 C 
ENDBRANCH  10  11
ENDBRANCH   9  10
ENDBRANCH   8   9
ENDBRANCH   7   8
ENDBRANCH   6   7
ENDBRANCH   5   6
ENDBRANCH   3   5
ENDBRANCH   2   3
ENDBRANCH   1   2
BRANCH   1  14
HETATM   14  C   UNL     1     -22.256  -6.941  -0.679  1.00  0.00     0.010 C 
BRANCH  14  15
HETATM   15  C   UNL     1     -22.123  -8.446  -0.899  1.00  0.00     0.111 C 
BRANCH  15  16
HETATM   16  C   UNL     1     -21.326  -9.111   0.198  1.00  0.00     0.258 C 
HETATM   17  O   UNL     1     -21.160  -8.669   1.325  1.00  0.00    -0.265 OA
BRANCH  16  18
HETATM   18  O   UNL     1     -20.697 -10.199  -0.323  1.00  0.00    -0.321 OA
BRANCH  18  19
HETATM   19  C   UNL     1     -20.182 -11.094   0.666  1.00  0.00     0.178 C 
BRANCH  19  20
HETATM   20  C   UNL     1     -19.742 -12.425   0.078  1.00  0.00     0.027 C 
BRANCH  20  21
HETATM   21  C   UNL     1     -20.931 -13.392   0.064  1.00  0.00     0.002 C 
BRANCH  21  22
HETATM   22  C   UNL     1     -21.823 -13.212   1.287  1.00  0.00     0.000 C 
BRANCH  22  23
HETATM   23  C   UNL     1     -23.242 -12.788   0.890  1.00  0.00     0.004 C 
BRANCH  23  24
HETATM   24  C   UNL     1     -23.477 -12.811  -0.631  1.00  0.00    -0.023 C 
HETATM   25  C   UNL     1     -24.340 -13.996  -1.070  1.00  0.00     0.009 C 
HETATM   26  C   UNL     1     -24.132 -11.505  -1.082  1.00  0.00     0.009 C 
ENDBRANCH  23  24
ENDBRANCH  22  23
ENDBRANCH  21  22
ENDBRANCH  20  21
ENDBRANCH  19  20
ENDBRANCH  18  19
ENDBRANCH  16  18
ENDBRANCH  15  16
ENDBRANCH  14  15
ENDBRANCH   1  14
TORSDOF 19
ENDMDL
MODEL 5
REMARK VINA RESULT:      -5.9      2.425      4.173
REMARK  19 active torsions:
REMARK  status: ('A' for Active; 'I' for Inactive)
REMARK    1  A    between atoms: C_2  and  C_4 
REMARK    2  A    between atoms: C_4  and  C_5 
REMARK    3  A    between atoms: C_5  and  C_6 
REMARK    4  A    between atoms: C_6  and  C_7 
REMARK    5  A    between atoms: C_7  and  C_8 
REMARK    6  A    between atoms: C_8  and  O_9 
REMARK    7  A    between atoms: O_9  and  C_10 
REMARK    8  A    between atoms: C_10  and  C_12 
REMARK    9  A    between atoms: C_12  and  C_13 
REMARK   10  A    between atoms: C_13  and  C_14 
REMARK   11  A    between atoms: C_14  and  C_15 
REMARK   12  A    between atoms: C_15  and  C_16 
REMARK   13  A    between atoms: C_16  and  O_18 
REMARK   14  A    between atoms: O_18  and  C_19 
REMARK   15  A    between atoms: C_19  and  C_20 
REMARK   16  A    between atoms: C_20  and  C_21 
REMARK   17  A    between atoms: C_21  and  C_22 
REMARK   18  A    between atoms: C_22  and  C_23 
REMARK   19  A    between atoms: C_23  and  C_24 
ROOT
HETATM    1  C   UNL     1     -21.684  -7.389  -3.553  1.00  0.00     0.010 C 
ENDROOT
BRANCH   1   2
HETATM    2  C   UNL     1     -21.141  -6.365  -4.540  1.00  0.00     0.111 C 
BRANCH   2   3
HETATM    3  C   UNL     1     -20.287  -7.002  -5.616  1.00  0.00     0.258 C 
HETATM    4  O   UNL     1     -19.834  -8.130  -5.595  1.00  0.00    -0.265 OA
BRANCH   3   5
HETATM    5  O   UNL     1     -19.988  -6.052  -6.546  1.00  0.00    -0.321 OA
BRANCH   5   6
HETATM    6  C   UNL     1     -20.403  -4.738  -6.168  1.00  0.00     0.178 C 
BRANCH   6   7
HETATM    7  C   UNL     1     -20.932  -3.934  -7.345  1.00  0.00     0.027 C 
BRANCH   7   8
HETATM    8  C   UNL     1     -19.847  -3.830  -8.422  1.00  0.00     0.002 C 
BRANCH   8   9
HETATM    9  C   UNL     1     -20.213  -4.621  -9.674  1.00  0.00     0.000 C 
BRANCH   9  10
HETATM   10  C   UNL     1     -20.570  -3.692 -10.840  1.00  0.00     0.004 C 
BRANCH  10  11
HETATM   11  C   UNL     1     -22.081  -3.414 -10.956  1.00  0.00    -0.023 C 
HETATM   12  C   UNL     1     -22.437  -3.047 -12.400  1.00  0.00     0.009 C 
HETATM   13  C   UNL     1     -22.932  -4.603 -10.506  1.00  0.00     0.009 C 
ENDBRANCH  10  11
ENDBRANCH   9  10
ENDBRANCH   8   9
ENDBRANCH   7   8
ENDBRANCH   6   7
ENDBRANCH   5   6
ENDBRANCH   3   5
ENDBRANCH   2   3
ENDBRANCH   1   2
BRANCH   1  14
HETATM   14  C   UNL     1     -21.144  -7.134  -2.146  1.00  0.00     0.010 C 
BRANCH  14  15
HETATM   15  C   UNL     1     -22.270  -6.773  -1.180  1.00  0.00     0.111 C 
BRANCH  15  16
HETATM   16  C   UNL     1     -22.598  -7.910  -0.240  1.00  0.00     0.258 C 
HETATM   17  O   UNL     1     -23.367  -7.849   0.707  1.00  0.00    -0.265 OA
BRANCH  16  18
HETATM   18  O   UNL     1     -21.780  -8.958  -0.527  1.00  0.00    -0.321 OA
BRANCH  18  19
HETATM   19  C   UNL     1     -22.457 -10.072  -1.113  1.00  0.00     0.178 C 
BRANCH  19  20
HETATM   20  C   UNL     1     -23.612 -10.569  -0.259  1.00  0.00     0.027 C 
BRANCH  20  21
HETATM   21  C   UNL     1     -24.107 -11.912  -0.804  1.00  0.00     0.002 C 
BRANCH  21  22
HETATM   22  C   UNL     1     -23.313 -13.083  -0.236  1.00  0.00     0.000 C 
BRANCH  22  23
HETATM   23  C   UNL     1     -23.105 -12.938   1.277  1.00  0.00     0.004 C 
BRANCH  23  24
HETATM   24  C   UNL     1     -23.501 -14.200   2.065  1.00  0.00    -0.023 C 
HETATM   25  C   UNL     1     -23.959 -15.338   1.151  1.00  0.00     0.009 C 
HETATM   26  C   UNL     1     -22.327 -14.673   2.925  1.00  0.00     0.009 C 
ENDBRANCH  23  24
ENDBRANCH  22  23
ENDBRANCH  21  22
ENDBRANCH  20  21
ENDBRANCH  19  20
ENDBRANCH  18  19
ENDBRANCH  16  18
ENDBRANCH  15  16
ENDBRANCH  14  15
ENDBRANCH   1  14
TORSDOF 19
ENDMDL
MODEL 6
REMARK VINA RESULT:      -5.9      1.905      3.588
REMARK  19 active torsions:
REMARK  status: ('A' for Active; 'I' for Inactive)
REMARK    1  A    between atoms: C_2  and  C_4 
REMARK    2  A    between atoms: C_4  and  C_5 
REMARK    3  A    between atoms: C_5  and  C_6 
REMARK    4  A    between atoms: C_6  and  C_7 
REMARK    5  A    between atoms: C_7  and  C_8 
REMARK    6  A    between atoms: C_8  and  O_9 
REMARK    7  A    between atoms: O_9  and  C_10 
REMARK    8  A    between atoms: C_10  and  C_12 
REMARK    9  A    between atoms: C_12  and  C_13 
REMARK   10  A    between atoms: C_13  and  C_14 
REMARK   11  A    between atoms: C_14  and  C_15 
REMARK   12  A    between atoms: C_15  and  C_16 
REMARK   13  A    between atoms: C_16  and  O_18 
REMARK   14  A    between atoms: O_18  and  C_19 
REMARK   15  A    between atoms: C_19  and  C_20 
REMARK   16  A    between atoms: C_20  and  C_21 
REMARK   17  A    between atoms: C_21  and  C_22 
REMARK   18  A    between atoms: C_22  and  C_23 
REMARK   19  A    between atoms: C_23  and  C_24 
ROOT
HETATM    1  C   UNL     1     -21.941  -6.508  -4.021  1.00  0.00     0.010 C 
ENDROOT
BRANCH   1   2
HETATM    2  C   UNL     1     -21.457  -6.780  -5.438  1.00  0.00     0.111 C 
BRANCH   2   3
HETATM    3  C   UNL     1     -20.594  -5.659  -5.977  1.00  0.00     0.258 C 
HETATM    4  O   UNL     1     -20.141  -4.733  -5.332  1.00  0.00    -0.265 OA
BRANCH   3   5
HETATM    5  O   UNL     1     -20.528  -5.779  -7.332  1.00  0.00    -0.321 OA
BRANCH   5   6
HETATM    6  C   UNL     1     -19.683  -4.804  -7.947  1.00  0.00     0.178 C 
BRANCH   6   7
HETATM    7  C   UNL     1     -20.359  -4.101  -9.113  1.00  0.00     0.027 C 
BRANCH   7   8
HETATM    8  C   UNL     1     -21.857  -3.963  -8.827  1.00  0.00     0.002 C 
BRANCH   8   9
HETATM    9  C   UNL     1     -22.705  -4.616  -9.914  1.00  0.00     0.000 C 
BRANCH   9  10
HETATM   10  C   UNL     1     -23.807  -3.673 -10.408  1.00  0.00     0.004 C 
BRANCH  10  11
HETATM   11  C   UNL     1     -23.429  -2.917 -11.697  1.00  0.00    -0.023 C 
HETATM   12  C   UNL     1     -22.177  -3.541 -12.322  1.00  0.00     0.009 C 
HETATM   13  C   UNL     1     -24.562  -2.908 -12.725  1.00  0.00     0.009 C 
ENDBRANCH  10  11
ENDBRANCH   9  10
ENDBRANCH   8   9
ENDBRANCH   7   8
ENDBRANCH   6   7
ENDBRANCH   5   6
ENDBRANCH   3   5
ENDBRANCH   2   3
ENDBRANCH   1   2
BRANCH   1  14
HETATM   14  C   UNL     1     -21.525  -7.632  -3.072  1.00  0.00     0.010 C 
BRANCH  14  15
HETATM   15  C   UNL     1     -20.847  -8.769  -3.832  1.00  0.00     0.111 C 
BRANCH  15  16
HETATM   16  C   UNL     1     -19.872  -9.530  -2.963  1.00  0.00     0.258 C 
HETATM   17  O   UNL     1     -18.967  -9.034  -2.308  1.00  0.00    -0.265 OA
BRANCH  16  18
HETATM   18  O   UNL     1     -20.071 -10.862  -3.153  1.00  0.00    -0.321 OA
BRANCH  18  19
HETATM   19  C   UNL     1     -21.303 -11.172  -3.808  1.00  0.00     0.178 C 
BRANCH  19  20
HETATM   20  C   UNL     1     -22.208 -12.055  -2.963  1.00  0.00     0.027 C 
BRANCH  20  21
HETATM   21  C   UNL     1     -23.361 -11.214  -2.405  1.00  0.00     0.002 C 
BRANCH  21  22
HETATM   22  C   UNL     1     -23.792 -11.690  -1.022  1.00  0.00     0.000 C 
BRANCH  22  23
HETATM   23  C   UNL     1     -23.871 -10.526  -0.027  1.00  0.00     0.004 C 
BRANCH  23  24
HETATM   24  C   UNL     1     -22.723  -9.513  -0.191  1.00  0.00    -0.023 C 
HETATM   25  C   UNL     1     -23.067  -8.143   0.398  1.00  0.00     0.009 C 
HETATM   26  C   UNL     1     -21.450 -10.049   0.466  1.00  0.00     0.009 C 
ENDBRANCH  23  24
ENDBRANCH  22  23
ENDBRANCH  21  22
ENDBRANCH  20  21
ENDBRANCH  19  20
ENDBRANCH  18  19
ENDBRANCH  16  18
ENDBRANCH  15  16
ENDBRANCH  14  15
ENDBRANCH   1  14
TORSDOF 19
ENDMDL
MODEL 7
REMARK VINA RESULT:      -5.9      2.401      4.305
REMARK  19 active torsions:
REMARK  status: ('A' for Active; 'I' for Inactive)
REMARK    1  A    between atoms: C_2  and  C_4 
REMARK    2  A    between atoms: C_4  and  C_5 
REMARK    3  A    between atoms: C_5  and  C_6 
REMARK    4  A    between atoms: C_6  and  C_7 
REMARK    5  A    between atoms: C_7  and  C_8 
REMARK    6  A    between atoms: C_8  and  O_9 
REMARK    7  A    between atoms: O_9  and  C_10 
REMARK    8  A    between atoms: C_10  and  C_12 
REMARK    9  A    between atoms: C_12  and  C_13 
REMARK   10  A    between atoms: C_13  and  C_14 
REMARK   11  A    between atoms: C_14  and  C_15 
REMARK   12  A    between atoms: C_15  and  C_16 
REMARK   13  A    between atoms: C_16  and  O_18 
REMARK   14  A    between atoms: O_18  and  C_19 
REMARK   15  A    between atoms: C_19  and  C_20 
REMARK   16  A    between atoms: C_20  and  C_21 
REMARK   17  A    between atoms: C_21  and  C_22 
REMARK   18  A    between atoms: C_22  and  C_23 
REMARK   19  A    between atoms: C_23  and  C_24 
ROOT
HETATM    1  C   UNL     1     -21.981  -6.544  -4.769  1.00  0.00     0.010 C 
ENDROOT
BRANCH   1   2
HETATM    2  C   UNL     1     -20.811  -6.789  -5.712  1.00  0.00     0.111 C 
BRANCH   2   3
HETATM    3  C   UNL     1     -20.151  -5.501  -6.157  1.00  0.00     0.258 C 
HETATM    4  O   UNL     1     -20.161  -4.446  -5.551  1.00  0.00    -0.265 OA
BRANCH   3   5
HETATM    5  O   UNL     1     -19.667  -5.678  -7.417  1.00  0.00    -0.321 OA
BRANCH   5   6
HETATM    6  C   UNL     1     -19.668  -4.482  -8.200  1.00  0.00     0.178 C 
BRANCH   6   7
HETATM    7  C   UNL     1     -20.952  -4.308  -8.995  1.00  0.00     0.027 C 
BRANCH   7   8
HETATM    8  C   UNL     1     -20.616  -4.161 -10.482  1.00  0.00     0.002 C 
BRANCH   8   9
HETATM    9  C   UNL     1     -21.847  -4.351 -11.364  1.00  0.00     0.000 C 
BRANCH   9  10
HETATM   10  C   UNL     1     -22.125  -3.106 -12.213  1.00  0.00     0.004 C 
BRANCH  10  11
HETATM   11  C   UNL     1     -23.235  -3.320 -13.261  1.00  0.00    -0.023 C 
HETATM   12  C   UNL     1     -24.598  -2.965 -12.660  1.00  0.00     0.009 C 
HETATM   13  C   UNL     1     -23.007  -2.500 -14.531  1.00  0.00     0.009 C 
ENDBRANCH  10  11
ENDBRANCH   9  10
ENDBRANCH   8   9
ENDBRANCH   7   8
ENDBRANCH   6   7
ENDBRANCH   5   6
ENDBRANCH   3   5
ENDBRANCH   2   3
ENDBRANCH   1   2
BRANCH   1  14
HETATM   14  C   UNL     1     -21.495  -6.330  -3.336  1.00  0.00     0.010 C 
BRANCH  14  15
HETATM   15  C   UNL     1     -21.414  -7.653  -2.579  1.00  0.00     0.111 C 
BRANCH  15  16
HETATM   16  C   UNL     1     -21.884  -7.519  -1.149  1.00  0.00     0.258 C 
HETATM   17  O   UNL     1     -22.810  -6.819  -0.768  1.00  0.00    -0.265 OA
BRANCH  16  18
HETATM   18  O   UNL     1     -21.010  -8.180  -0.342  1.00  0.00    -0.321 OA
BRANCH  18  19
HETATM   19  C   UNL     1     -21.643  -9.039   0.609  1.00  0.00     0.178 C 
BRANCH  19  20
HETATM   20  C   UNL     1     -21.881 -10.438   0.064  1.00  0.00     0.027 C 
BRANCH  20  21
HETATM   21  C   UNL     1     -23.387 -10.713   0.007  1.00  0.00     0.002 C 
BRANCH  21  22
HETATM   22  C   UNL     1     -23.697 -12.202   0.115  1.00  0.00     0.000 C 
BRANCH  22  23
HETATM   23  C   UNL     1     -22.823 -12.881   1.176  1.00  0.00     0.004 C 
BRANCH  23  24
HETATM   24  C   UNL     1     -23.115 -14.386   1.326  1.00  0.00    -0.023 C 
HETATM   25  C   UNL     1     -23.805 -14.717   2.651  1.00  0.00     0.009 C 
HETATM   26  C   UNL     1     -23.980 -14.872   0.162  1.00  0.00     0.009 C 
ENDBRANCH  23  24
ENDBRANCH  22  23
ENDBRANCH  21  22
ENDBRANCH  20  21
ENDBRANCH  19  20
ENDBRANCH  18  19
ENDBRANCH  16  18
ENDBRANCH  15  16
ENDBRANCH  14  15
ENDBRANCH   1  14
TORSDOF 19
ENDMDL
MODEL 8
REMARK VINA RESULT:      -5.8      1.619      2.734
REMARK  19 active torsions:
REMARK  status: ('A' for Active; 'I' for Inactive)
REMARK    1  A    between atoms: C_2  and  C_4 
REMARK    2  A    between atoms: C_4  and  C_5 
REMARK    3  A    between atoms: C_5  and  C_6 
REMARK    4  A    between atoms: C_6  and  C_7 
REMARK    5  A    between atoms: C_7  and  C_8 
REMARK    6  A    between atoms: C_8  and  O_9 
REMARK    7  A    between atoms: O_9  and  C_10 
REMARK    8  A    between atoms: C_10  and  C_12 
REMARK    9  A    between atoms: C_12  and  C_13 
REMARK   10  A    between atoms: C_13  and  C_14 
REMARK   11  A    between atoms: C_14  and  C_15 
REMARK   12  A    between atoms: C_15  and  C_16 
REMARK   13  A    between atoms: C_16  and  O_18 
REMARK   14  A    between atoms: O_18  and  C_19 
REMARK   15  A    between atoms: C_19  and  C_20 
REMARK   16  A    between atoms: C_20  and  C_21 
REMARK   17  A    between atoms: C_21  and  C_22 
REMARK   18  A    between atoms: C_22  and  C_23 
REMARK   19  A    between atoms: C_23  and  C_24 
ROOT
HETATM    1  C   UNL     1     -21.940  -6.182  -2.176  1.00  0.00     0.010 C 
ENDROOT
BRANCH   1   2
HETATM    2  C   UNL     1     -21.250  -6.829  -3.368  1.00  0.00     0.111 C 
BRANCH   2   3
HETATM    3  C   UNL     1     -21.749  -6.281  -4.689  1.00  0.00     0.258 C 
HETATM    4  O   UNL     1     -22.913  -6.137  -5.008  1.00  0.00    -0.265 OA
BRANCH   3   5
HETATM    5  O   UNL     1     -20.681  -6.112  -5.516  1.00  0.00    -0.321 OA
BRANCH   5   6
HETATM    6  C   UNL     1     -20.242  -4.755  -5.607  1.00  0.00     0.178 C 
BRANCH   6   7
HETATM    7  C   UNL     1     -20.803  -4.042  -6.827  1.00  0.00     0.027 C 
BRANCH   7   8
HETATM    8  C   UNL     1     -19.800  -4.138  -7.981  1.00  0.00     0.002 C 
BRANCH   8   9
HETATM    9  C   UNL     1     -20.421  -4.776  -9.220  1.00  0.00     0.000 C 
BRANCH   9  10
HETATM   10  C   UNL     1     -20.502  -3.780 -10.382  1.00  0.00     0.004 C 
BRANCH  10  11
HETATM   11  C   UNL     1     -21.948  -3.459 -10.809  1.00  0.00    -0.023 C 
HETATM   12  C   UNL     1     -22.110  -3.679 -12.316  1.00  0.00     0.009 C 
HETATM   13  C   UNL     1     -22.981  -4.300 -10.056  1.00  0.00     0.009 C 
ENDBRANCH  10  11
ENDBRANCH   9  10
ENDBRANCH   8   9
ENDBRANCH   7   8
ENDBRANCH   6   7
ENDBRANCH   5   6
ENDBRANCH   3   5
ENDBRANCH   2   3
ENDBRANCH   1   2
BRANCH   1  14
HETATM   14  C   UNL     1     -22.299  -7.224  -1.117  1.00  0.00     0.010 C 
BRANCH  14  15
HETATM   15  C   UNL     1     -21.068  -8.018  -0.686  1.00  0.00     0.111 C 
BRANCH  15  16
HETATM   16  C   UNL     1     -21.067  -9.418  -1.254  1.00  0.00     0.258 C 
HETATM   17  O   UNL     1     -22.035 -10.162  -1.309  1.00  0.00    -0.265 OA
BRANCH  16  18
HETATM   18  O   UNL     1     -19.785  -9.766  -1.546  1.00  0.00    -0.321 OA
BRANCH  18  19
HETATM   19  C   UNL     1     -19.606 -10.226  -2.887  1.00  0.00     0.178 C 
BRANCH  19  20
HETATM   20  C   UNL     1     -18.582  -9.404  -3.654  1.00  0.00     0.027 C 
BRANCH  20  21
HETATM   21  C   UNL     1     -17.238  -9.453  -2.921  1.00  0.00     0.002 C 
BRANCH  21  22
HETATM   22  C   UNL     1     -16.372 -10.613  -3.401  1.00  0.00     0.000 C 
BRANCH  22  23
HETATM   23  C   UNL     1     -15.680 -10.283  -4.729  1.00  0.00     0.004 C 
BRANCH  23  24
HETATM   24  C   UNL     1     -14.676 -11.364  -5.172  1.00  0.00    -0.023 C 
HETATM   25  C   UNL     1     -14.640 -12.555  -4.212  1.00  0.00     0.009 C 
HETATM   26  C   UNL     1     -15.017 -11.852  -6.582  1.00  0.00     0.009 C 
ENDBRANCH  23  24
ENDBRANCH  22  23
ENDBRANCH  21  22
ENDBRANCH  20  21
ENDBRANCH  19  20
ENDBRANCH  18  19
ENDBRANCH  16  18
ENDBRANCH  15  16
ENDBRANCH  14  15
ENDBRANCH   1  14
TORSDOF 19
ENDMDL
MODEL 9
REMARK VINA RESULT:      -5.8      2.004      2.864
REMARK  19 active torsions:
REMARK  status: ('A' for Active; 'I' for Inactive)
REMARK    1  A    between atoms: C_2  and  C_4 
REMARK    2  A    between atoms: C_4  and  C_5 
REMARK    3  A    between atoms: C_5  and  C_6 
REMARK    4  A    between atoms: C_6  and  C_7 
REMARK    5  A    between atoms: C_7  and  C_8 
REMARK    6  A    between atoms: C_8  and  O_9 
REMARK    7  A    between atoms: O_9  and  C_10 
REMARK    8  A    between atoms: C_10  and  C_12 
REMARK    9  A    between atoms: C_12  and  C_13 
REMARK   10  A    between atoms: C_13  and  C_14 
REMARK   11  A    between atoms: C_14  and  C_15 
REMARK   12  A    between atoms: C_15  and  C_16 
REMARK   13  A    between atoms: C_16  and  O_18 
REMARK   14  A    between atoms: O_18  and  C_19 
REMARK   15  A    between atoms: C_19  and  C_20 
REMARK   16  A    between atoms: C_20  and  C_21 
REMARK   17  A    between atoms: C_21  and  C_22 
REMARK   18  A    between atoms: C_22  and  C_23 
REMARK   19  A    between atoms: C_23  and  C_24 
ROOT
HETATM    1  C   UNL     1     -20.802  -6.248  -3.496  1.00  0.00     0.010 C 
ENDROOT
BRANCH   1   2
HETATM    2  C   UNL     1     -21.199  -6.077  -4.956  1.00  0.00     0.111 C 
BRANCH   2   3
HETATM    3  C   UNL     1     -20.443  -7.017  -5.871  1.00  0.00     0.258 C 
HETATM    4  O   UNL     1     -19.865  -8.032  -5.534  1.00  0.00    -0.265 OA
BRANCH   3   5
HETATM    5  O   UNL     1     -20.393  -6.460  -7.113  1.00  0.00    -0.321 OA
BRANCH   5   6
HETATM    6  C   UNL     1     -19.664  -5.231  -7.156  1.00  0.00     0.178 C 
BRANCH   6   7
HETATM    7  C   UNL     1     -20.239  -4.247  -8.162  1.00  0.00     0.027 C 
BRANCH   7   8
HETATM    8  C   UNL     1     -21.519  -3.627  -7.594  1.00  0.00     0.002 C 
BRANCH   8   9
HETATM    9  C   UNL     1     -22.769  -4.200  -8.255  1.00  0.00     0.000 C 
BRANCH   9  10
HETATM   10  C   UNL     1     -22.514  -4.556  -9.724  1.00  0.00     0.004 C 
BRANCH  10  11
HETATM   11  C   UNL     1     -22.793  -3.388 -10.690  1.00  0.00    -0.023 C 
HETATM   12  C   UNL     1     -21.527  -3.052 -11.485  1.00  0.00     0.009 C 
HETATM   13  C   UNL     1     -23.939  -3.689 -11.658  1.00  0.00     0.009 C 
ENDBRANCH  10  11
ENDBRANCH   9  10
ENDBRANCH   8   9
ENDBRANCH   7   8
ENDBRANCH   6   7
ENDBRANCH   5   6
ENDBRANCH   3   5
ENDBRANCH   2   3
ENDBRANCH   1   2
BRANCH   1  14
HETATM   14  C   UNL     1     -21.799  -7.140  -2.757  1.00  0.00     0.010 C 
BRANCH  14  15
HETATM   15  C   UNL     1     -22.283  -6.477  -1.470  1.00  0.00     0.111 C 
BRANCH  15  16
HETATM   16  C   UNL     1     -22.446  -7.472  -0.345  1.00  0.00     0.258 C 
HETATM   17  O   UNL     1     -23.420  -7.563   0.387  1.00  0.00    -0.265 OA
BRANCH  16  18
HETATM   18  O   UNL     1     -21.272  -8.140  -0.184  1.00  0.00    -0.321 OA
BRANCH  18  19
HETATM   19  C   UNL     1     -21.198  -8.886   1.033  1.00  0.00     0.178 C 
BRANCH  19  20
HETATM   20  C   UNL     1     -20.838 -10.345   0.803  1.00  0.00     0.027 C 
BRANCH  20  21
HETATM   21  C   UNL     1     -22.093 -11.120   0.391  1.00  0.00     0.002 C 
BRANCH  21  22
HETATM   22  C   UNL     1     -21.781 -12.199  -0.641  1.00  0.00     0.000 C 
BRANCH  22  23
HETATM   23  C   UNL     1     -21.239 -11.592  -1.941  1.00  0.00     0.004 C 
BRANCH  23  24
HETATM   24  C   UNL     1     -22.298 -11.506  -3.055  1.00  0.00    -0.023 C 
HETATM   25  C   UNL     1     -21.984 -10.409  -4.074  1.00  0.00     0.009 C 
HETATM   26  C   UNL     1     -22.419 -12.852  -3.771  1.00  0.00     0.009 C 
ENDBRANCH  23  24
ENDBRANCH  22  23
ENDBRANCH  21  22
ENDBRANCH  20  21
ENDBRANCH  19  20
ENDBRANCH  18  19
ENDBRANCH  16  18
ENDBRANCH  15  16
ENDBRANCH  14  15
ENDBRANCH   1  14
TORSDOF 19
ENDMDL
