MODEL 1
REMARK VINA RESULT:      -1.3      0.000      0.000
REMARK  4 active torsions:
REMARK  status: ('A' for Active; 'I' for Inactive)
REMARK    1  A    between atoms: C_6  and  S_7 
REMARK    2  A    between atoms: S_7  and  O_9 
REMARK    3  A    between atoms: C_11  and  O_29 
REMARK    4  A    between atoms: C_22  and  S_25 
ROOT
HETATM    1 NA   UNL     3     -32.324  -8.576   4.529  1.00  0.00     0.000 Na
ENDROOT
TORSDOF 4
ENDMDL
MODEL 2
REMARK VINA RESULT:      -1.3     23.494     23.494
REMARK  4 active torsions:
REMARK  status: ('A' for Active; 'I' for Inactive)
REMARK    1  A    between atoms: C_6  and  S_7 
REMARK    2  A    between atoms: S_7  and  O_9 
REMARK    3  A    between atoms: C_11  and  O_29 
REMARK    4  A    between atoms: C_22  and  S_25 
ROOT
HETATM    1 NA   UNL     3     -11.257   1.620   2.468  1.00  0.00     0.000 Na
ENDROOT
TORSDOF 4
ENDMDL
MODEL 3
REMARK VINA RESULT:      -1.2     19.033     19.033
REMARK  4 active torsions:
REMARK  status: ('A' for Active; 'I' for Inactive)
REMARK    1  A    between atoms: C_6  and  S_7 
REMARK    2  A    between atoms: S_7  and  O_9 
REMARK    3  A    between atoms: C_11  and  O_29 
REMARK    4  A    between atoms: C_22  and  S_25 
ROOT
HETATM    1 NA   UNL     3     -27.015 -13.665 -13.026  1.00  0.00     0.000 Na
ENDROOT
TORSDOF 4
ENDMDL
MODEL 4
REMARK VINA RESULT:      -1.2     22.209     22.209
REMARK  4 active torsions:
REMARK  status: ('A' for Active; 'I' for Inactive)
REMARK    1  A    between atoms: C_6  and  S_7 
REMARK    2  A    between atoms: S_7  and  O_9 
REMARK    3  A    between atoms: C_11  and  O_29 
REMARK    4  A    between atoms: C_22  and  S_25 
ROOT
HETATM    1 NA   UNL     3     -25.113   0.407 -14.459  1.00  0.00     0.000 Na
ENDROOT
TORSDOF 4
ENDMDL
MODEL 5
REMARK VINA RESULT:      -1.2     14.869     14.869
REMARK  4 active torsions:
REMARK  status: ('A' for Active; 'I' for Inactive)
REMARK    1  A    between atoms: C_6  and  S_7 
REMARK    2  A    between atoms: S_7  and  O_9 
REMARK    3  A    between atoms: C_11  and  O_29 
REMARK    4  A    between atoms: C_22  and  S_25 
ROOT
HETATM    1 NA   UNL     3     -27.300  -5.621  -9.150  1.00  0.00     0.000 Na
ENDROOT
TORSDOF 4
ENDMDL
MODEL 6
REMARK VINA RESULT:      -1.2     34.909     34.909
REMARK  4 active torsions:
REMARK  status: ('A' for Active; 'I' for Inactive)
REMARK    1  A    between atoms: C_6  and  S_7 
REMARK    2  A    between atoms: S_7  and  O_9 
REMARK    3  A    between atoms: C_11  and  O_29 
REMARK    4  A    between atoms: C_22  and  S_25 
ROOT
HETATM    1 NA   UNL     3      -9.118   5.886 -17.175  1.00  0.00     0.000 Na
ENDROOT
TORSDOF 4
ENDMDL
MODEL 7
REMARK VINA RESULT:      -1.1     27.173     27.173
REMARK  4 active torsions:
REMARK  status: ('A' for Active; 'I' for Inactive)
REMARK    1  A    between atoms: C_6  and  S_7 
REMARK    2  A    between atoms: S_7  and  O_9 
REMARK    3  A    between atoms: C_11  and  O_29 
REMARK    4  A    between atoms: C_22  and  S_25 
ROOT
HETATM    1 NA   UNL     3     -11.561   1.297  -9.956  1.00  0.00     0.000 Na
ENDROOT
TORSDOF 4
ENDMDL
MODEL 8
REMARK VINA RESULT:      -1.0     25.518     25.518
REMARK  4 active torsions:
REMARK  status: ('A' for Active; 'I' for Inactive)
REMARK    1  A    between atoms: C_6  and  S_7 
REMARK    2  A    between atoms: S_7  and  O_9 
REMARK    3  A    between atoms: C_11  and  O_29 
REMARK    4  A    between atoms: C_22  and  S_25 
ROOT
HETATM    1 NA   UNL     3     -23.196   0.210 -17.622  1.00  0.00     0.000 Na
ENDROOT
TORSDOF 4
ENDMDL
MODEL 9
REMARK VINA RESULT:      -1.0     15.718     15.718
REMARK  4 active torsions:
REMARK  status: ('A' for Active; 'I' for Inactive)
REMARK    1  A    between atoms: C_6  and  S_7 
REMARK    2  A    between atoms: S_7  and  O_9 
REMARK    3  A    between atoms: C_11  and  O_29 
REMARK    4  A    between atoms: C_22  and  S_25 
ROOT
HETATM    1 NA   UNL     3     -26.953  -3.578  -9.372  1.00  0.00     0.000 Na
ENDROOT
TORSDOF 4
ENDMDL
