MODEL 1
REMARK VINA RESULT:      -6.2      0.000      0.000
REMARK  7 active torsions:
REMARK  status: ('A' for Active; 'I' for Inactive)
REMARK    1  A    between atoms: C_2  and  C_3 
REMARK    2  A    between atoms: C_2  and  C_9 
REMARK    3  A    between atoms: C_3  and  C_4 
REMARK    4  A    between atoms: C_4  and  C_5 
REMARK    5  A    between atoms: C_9  and  C_10 
REMARK    6  A    between atoms: C_10  and  O_11 
REMARK    7  A    between atoms: O_11  and  C_12 
ROOT
HETATM    1  C   UNL     1     -36.075  -2.245 -10.573  1.00  0.00     0.010 C 
HETATM    2  C   UNL     1     -34.894  -1.518 -11.227  1.00  0.00    -0.016 C 
ENDROOT
BRANCH   2   3
HETATM    3  C   UNL     1     -33.575  -2.098 -10.661  1.00  0.00     0.008 C 
BRANCH   3   4
HETATM    4  C   UNL     1     -33.091  -3.337 -11.423  1.00  0.00     0.027 C 
BRANCH   4   5
HETATM    5  C   UNL     1     -33.403  -4.632 -10.729  1.00  0.00    -0.025 C 
HETATM    6  C   UNL     1     -34.235  -5.573 -11.221  1.00  0.00    -0.091 C 
HETATM    7  C   UNL     1     -34.945  -5.461 -12.544  1.00  0.00     0.042 C 
HETATM    8  C   UNL     1     -34.529  -6.837 -10.459  1.00  0.00     0.042 C 
ENDBRANCH   4   5
ENDBRANCH   3   4
ENDBRANCH   2   3
BRANCH   2   9
HETATM    9  C   UNL     1     -34.945  -1.619 -12.763  1.00  0.00     0.031 C 
BRANCH   9  10
HETATM   10  C   UNL     1     -35.954  -0.685 -13.429  1.00  0.00     0.179 C 
BRANCH  10  11
HETATM   11  O   UNL     1     -36.134  -1.068 -14.802  1.00  0.00    -0.322 OA
BRANCH  11  12
HETATM   12  C   UNL     1     -36.401  -0.043 -15.659  1.00  0.00     0.254 C 
HETATM   13  O   UNL     1     -37.194  -0.082 -16.590  1.00  0.00    -0.266 OA
HETATM   14  C   UNL     1     -35.575   1.159 -15.322  1.00  0.00     0.126 C 
ENDBRANCH  11  12
ENDBRANCH  10  11
ENDBRANCH   9  10
ENDBRANCH   2   9
TORSDOF 7
ENDMDL
MODEL 2
REMARK VINA RESULT:      -6.1     12.443     14.091
REMARK  7 active torsions:
REMARK  status: ('A' for Active; 'I' for Inactive)
REMARK    1  A    between atoms: C_2  and  C_3 
REMARK    2  A    between atoms: C_2  and  C_9 
REMARK    3  A    between atoms: C_3  and  C_4 
REMARK    4  A    between atoms: C_4  and  C_5 
REMARK    5  A    between atoms: C_9  and  C_10 
REMARK    6  A    between atoms: C_10  and  O_11 
REMARK    7  A    between atoms: O_11  and  C_12 
ROOT
HETATM    1  C   UNL     1     -20.410  -4.524 -10.123  1.00  0.00     0.010 C 
HETATM    2  C   UNL     1     -21.201  -4.628  -8.815  1.00  0.00    -0.016 C 
ENDROOT
BRANCH   2   3
HETATM    3  C   UNL     1     -20.412  -3.907  -7.695  1.00  0.00     0.008 C 
BRANCH   3   4
HETATM    4  C   UNL     1     -19.707  -4.877  -6.740  1.00  0.00     0.027 C 
BRANCH   4   5
HETATM    5  C   UNL     1     -20.356  -4.971  -5.389  1.00  0.00    -0.025 C 
HETATM    6  C   UNL     1     -20.852  -6.111  -4.866  1.00  0.00    -0.091 C 
HETATM    7  C   UNL     1     -20.801  -7.448  -5.556  1.00  0.00     0.042 C 
HETATM    8  C   UNL     1     -21.519  -6.130  -3.516  1.00  0.00     0.042 C 
ENDBRANCH   4   5
ENDBRANCH   3   4
ENDBRANCH   2   3
BRANCH   2   9
HETATM    9  C   UNL     1     -22.623  -4.057  -8.964  1.00  0.00     0.031 C 
BRANCH   9  10
HETATM   10  C   UNL     1     -23.348  -4.478 -10.242  1.00  0.00     0.179 C 
BRANCH  10  11
HETATM   11  O   UNL     1     -24.238  -3.431 -10.660  1.00  0.00    -0.322 OA
BRANCH  11  12
HETATM   12  C   UNL     1     -24.200  -3.135 -11.989  1.00  0.00     0.254 C 
HETATM   13  O   UNL     1     -25.159  -3.151 -12.749  1.00  0.00    -0.266 OA
HETATM   14  C   UNL     1     -22.808  -2.792 -12.417  1.00  0.00     0.126 C 
ENDBRANCH  11  12
ENDBRANCH  10  11
ENDBRANCH   9  10
ENDBRANCH   2   9
TORSDOF 7
ENDMDL
MODEL 3
REMARK VINA RESULT:      -6.0     13.982     16.422
REMARK  7 active torsions:
REMARK  status: ('A' for Active; 'I' for Inactive)
REMARK    1  A    between atoms: C_2  and  C_3 
REMARK    2  A    between atoms: C_2  and  C_9 
REMARK    3  A    between atoms: C_3  and  C_4 
REMARK    4  A    between atoms: C_4  and  C_5 
REMARK    5  A    between atoms: C_9  and  C_10 
REMARK    6  A    between atoms: C_10  and  O_11 
REMARK    7  A    between atoms: O_11  and  C_12 
ROOT
HETATM    1  C   UNL     1     -19.782  -5.769  -7.565  1.00  0.00     0.010 C 
HETATM    2  C   UNL     1     -19.998  -4.505  -6.725  1.00  0.00    -0.016 C 
ENDROOT
BRANCH   2   3
HETATM    3  C   UNL     1     -21.106  -3.650  -7.384  1.00  0.00     0.008 C 
BRANCH   3   4
HETATM    4  C   UNL     1     -22.031  -4.466  -8.294  1.00  0.00     0.027 C 
BRANCH   4   5
HETATM    5  C   UNL     1     -22.510  -3.711  -9.501  1.00  0.00    -0.025 C 
HETATM    6  C   UNL     1     -21.831  -3.633 -10.664  1.00  0.00    -0.091 C 
HETATM    7  C   UNL     1     -20.512  -4.313 -10.916  1.00  0.00     0.042 C 
HETATM    8  C   UNL     1     -22.354  -2.832 -11.826  1.00  0.00     0.042 C 
ENDBRANCH   4   5
ENDBRANCH   3   4
ENDBRANCH   2   3
BRANCH   2   9
HETATM    9  C   UNL     1     -20.340  -4.846  -5.263  1.00  0.00     0.031 C 
BRANCH   9  10
HETATM   10  C   UNL     1     -20.937  -6.238  -5.057  1.00  0.00     0.179 C 
BRANCH  10  11
HETATM   11  O   UNL     1     -22.081  -6.149  -4.191  1.00  0.00    -0.322 OA
BRANCH  11  12
HETATM   12  C   UNL     1     -21.838  -6.431  -2.881  1.00  0.00     0.254 C 
HETATM   13  O   UNL     1     -22.275  -5.805  -1.925  1.00  0.00    -0.266 OA
HETATM   14  C   UNL     1     -20.939  -7.621  -2.752  1.00  0.00     0.126 C 
ENDBRANCH  11  12
ENDBRANCH  10  11
ENDBRANCH   9  10
ENDBRANCH   2   9
TORSDOF 7
ENDMDL
MODEL 4
REMARK VINA RESULT:      -5.9      1.288      2.063
REMARK  7 active torsions:
REMARK  status: ('A' for Active; 'I' for Inactive)
REMARK    1  A    between atoms: C_2  and  C_3 
REMARK    2  A    between atoms: C_2  and  C_9 
REMARK    3  A    between atoms: C_3  and  C_4 
REMARK    4  A    between atoms: C_4  and  C_5 
REMARK    5  A    between atoms: C_9  and  C_10 
REMARK    6  A    between atoms: C_10  and  O_11 
REMARK    7  A    between atoms: O_11  and  C_12 
ROOT
HETATM    1  C   UNL     1     -37.204  -0.571  -9.522  1.00  0.00     0.010 C 
HETATM    2  C   UNL     1     -36.378  -0.577 -10.814  1.00  0.00    -0.016 C 
ENDROOT
BRANCH   2   3
HETATM    3  C   UNL     1     -35.732  -1.973 -10.988  1.00  0.00     0.008 C 
BRANCH   3   4
HETATM    4  C   UNL     1     -34.346  -2.075 -10.342  1.00  0.00     0.027 C 
BRANCH   4   5
HETATM    5  C   UNL     1     -33.329  -2.769 -11.203  1.00  0.00    -0.025 C 
HETATM    6  C   UNL     1     -33.197  -4.109 -11.288  1.00  0.00    -0.091 C 
HETATM    7  C   UNL     1     -34.067  -5.090 -10.549  1.00  0.00     0.042 C 
HETATM    8  C   UNL     1     -32.135  -4.740 -12.148  1.00  0.00     0.042 C 
ENDBRANCH   4   5
ENDBRANCH   3   4
ENDBRANCH   2   3
BRANCH   2   9
HETATM    9  C   UNL     1     -37.232  -0.192 -12.036  1.00  0.00     0.031 C 
BRANCH   9  10
HETATM   10  C   UNL     1     -36.432   0.098 -13.306  1.00  0.00     0.179 C 
BRANCH  10  11
HETATM   11  O   UNL     1     -36.909  -0.731 -14.378  1.00  0.00    -0.322 OA
BRANCH  11  12
HETATM   12  C   UNL     1     -36.853  -0.165 -15.616  1.00  0.00     0.254 C 
HETATM   13  O   UNL     1     -37.441   0.850 -15.961  1.00  0.00    -0.266 OA
HETATM   14  C   UNL     1     -35.974  -0.965 -16.525  1.00  0.00     0.126 C 
ENDBRANCH  11  12
ENDBRANCH  10  11
ENDBRANCH   9  10
ENDBRANCH   2   9
TORSDOF 7
ENDMDL
MODEL 5
REMARK VINA RESULT:      -5.9     14.197     16.121
REMARK  7 active torsions:
REMARK  status: ('A' for Active; 'I' for Inactive)
REMARK    1  A    between atoms: C_2  and  C_3 
REMARK    2  A    between atoms: C_2  and  C_9 
REMARK    3  A    between atoms: C_3  and  C_4 
REMARK    4  A    between atoms: C_4  and  C_5 
REMARK    5  A    between atoms: C_9  and  C_10 
REMARK    6  A    between atoms: C_10  and  O_11 
REMARK    7  A    between atoms: O_11  and  C_12 
ROOT
HETATM    1  C   UNL     1     -20.131  -7.615  -5.206  1.00  0.00     0.010 C 
HETATM    2  C   UNL     1     -21.171  -6.499  -5.353  1.00  0.00    -0.016 C 
ENDROOT
BRANCH   2   3
HETATM    3  C   UNL     1     -22.132  -6.549  -4.140  1.00  0.00     0.008 C 
BRANCH   3   4
HETATM    4  C   UNL     1     -21.457  -6.142  -2.826  1.00  0.00     0.027 C 
BRANCH   4   5
HETATM    5  C   UNL     1     -22.261  -6.487  -1.604  1.00  0.00    -0.025 C 
HETATM    6  C   UNL     1     -22.048  -7.579  -0.841  1.00  0.00    -0.091 C 
HETATM    7  C   UNL     1     -20.960  -8.587  -1.099  1.00  0.00     0.042 C 
HETATM    8  C   UNL     1     -22.911  -7.881   0.354  1.00  0.00     0.042 C 
ENDBRANCH   4   5
ENDBRANCH   3   4
ENDBRANCH   2   3
BRANCH   2   9
HETATM    9  C   UNL     1     -20.507  -5.117  -5.494  1.00  0.00     0.031 C 
BRANCH   9  10
HETATM   10  C   UNL     1     -20.845  -4.377  -6.787  1.00  0.00     0.179 C 
BRANCH  10  11
HETATM   11  O   UNL     1     -22.259  -4.453  -7.032  1.00  0.00    -0.322 OA
BRANCH  11  12
HETATM   12  C   UNL     1     -22.638  -4.210  -8.318  1.00  0.00     0.254 C 
HETATM   13  O   UNL     1     -23.778  -3.971  -8.691  1.00  0.00    -0.266 OA
HETATM   14  C   UNL     1     -21.462  -4.285  -9.241  1.00  0.00     0.126 C 
ENDBRANCH  11  12
ENDBRANCH  10  11
ENDBRANCH   9  10
ENDBRANCH   2   9
TORSDOF 7
ENDMDL
MODEL 6
REMARK VINA RESULT:      -5.9     13.165     14.937
REMARK  7 active torsions:
REMARK  status: ('A' for Active; 'I' for Inactive)
REMARK    1  A    between atoms: C_2  and  C_3 
REMARK    2  A    between atoms: C_2  and  C_9 
REMARK    3  A    between atoms: C_3  and  C_4 
REMARK    4  A    between atoms: C_4  and  C_5 
REMARK    5  A    between atoms: C_9  and  C_10 
REMARK    6  A    between atoms: C_10  and  O_11 
REMARK    7  A    between atoms: O_11  and  C_12 
ROOT
HETATM    1  C   UNL     1     -19.383  -4.537  -7.584  1.00  0.00     0.010 C 
HETATM    2  C   UNL     1     -20.705  -5.114  -7.068  1.00  0.00    -0.016 C 
ENDROOT
BRANCH   2   3
HETATM    3  C   UNL     1     -20.646  -5.196  -5.523  1.00  0.00     0.008 C 
BRANCH   3   4
HETATM    4  C   UNL     1     -21.632  -6.213  -4.939  1.00  0.00     0.027 C 
BRANCH   4   5
HETATM    5  C   UNL     1     -21.007  -7.165  -3.959  1.00  0.00    -0.025 C 
HETATM    6  C   UNL     1     -21.210  -7.119  -2.626  1.00  0.00    -0.091 C 
HETATM    7  C   UNL     1     -22.110  -6.124  -1.944  1.00  0.00     0.042 C 
HETATM    8  C   UNL     1     -20.528  -8.085  -1.695  1.00  0.00     0.042 C 
ENDBRANCH   4   5
ENDBRANCH   3   4
ENDBRANCH   2   3
BRANCH   2   9
HETATM    9  C   UNL     1     -21.912  -4.286  -7.545  1.00  0.00     0.031 C 
BRANCH   9  10
HETATM   10  C   UNL     1     -22.377  -4.599  -8.967  1.00  0.00     0.179 C 
BRANCH  10  11
HETATM   11  O   UNL     1     -23.001  -3.438  -9.539  1.00  0.00    -0.322 OA
BRANCH  11  12
HETATM   12  C   UNL     1     -24.016  -3.696 -10.410  1.00  0.00     0.254 C 
HETATM   13  O   UNL     1     -25.141  -3.219 -10.353  1.00  0.00    -0.266 OA
HETATM   14  C   UNL     1     -23.579  -4.667 -11.462  1.00  0.00     0.126 C 
ENDBRANCH  11  12
ENDBRANCH  10  11
ENDBRANCH   9  10
ENDBRANCH   2   9
TORSDOF 7
ENDMDL
MODEL 7
REMARK VINA RESULT:      -5.8     12.112     13.647
REMARK  7 active torsions:
REMARK  status: ('A' for Active; 'I' for Inactive)
REMARK    1  A    between atoms: C_2  and  C_3 
REMARK    2  A    between atoms: C_2  and  C_9 
REMARK    3  A    between atoms: C_3  and  C_4 
REMARK    4  A    between atoms: C_4  and  C_5 
REMARK    5  A    between atoms: C_9  and  C_10 
REMARK    6  A    between atoms: C_10  and  O_11 
REMARK    7  A    between atoms: O_11  and  C_12 
ROOT
HETATM    1  C   UNL     1     -23.936  -4.680  -9.720  1.00  0.00     0.010 C 
HETATM    2  C   UNL     1     -22.872  -3.597  -9.509  1.00  0.00    -0.016 C 
ENDROOT
BRANCH   2   3
HETATM    3  C   UNL     1     -22.204  -3.814  -8.129  1.00  0.00     0.008 C 
BRANCH   3   4
HETATM    4  C   UNL     1     -20.809  -4.440  -8.232  1.00  0.00     0.027 C 
BRANCH   4   5
HETATM    5  C   UNL     1     -20.681  -5.750  -7.507  1.00  0.00    -0.025 C 
HETATM    6  C   UNL     1     -20.355  -5.864  -6.203  1.00  0.00    -0.091 C 
HETATM    7  C   UNL     1     -20.099  -4.693  -5.293  1.00  0.00     0.042 C 
HETATM    8  C   UNL     1     -20.213  -7.210  -5.545  1.00  0.00     0.042 C 
ENDBRANCH   4   5
ENDBRANCH   3   4
ENDBRANCH   2   3
BRANCH   2   9
HETATM    9  C   UNL     1     -21.834  -3.590 -10.646  1.00  0.00     0.031 C 
BRANCH   9  10
HETATM   10  C   UNL     1     -22.346  -4.137 -11.978  1.00  0.00     0.179 C 
BRANCH  10  11
HETATM   11  O   UNL     1     -22.230  -3.126 -12.992  1.00  0.00    -0.322 OA
BRANCH  11  12
HETATM   12  C   UNL     1     -23.353  -2.922 -13.737  1.00  0.00     0.254 C 
HETATM   13  O   UNL     1     -23.387  -2.796 -14.953  1.00  0.00    -0.266 OA
HETATM   14  C   UNL     1     -24.565  -2.858 -12.862  1.00  0.00     0.126 C 
ENDBRANCH  11  12
ENDBRANCH  10  11
ENDBRANCH   9  10
ENDBRANCH   2   9
TORSDOF 7
ENDMDL
MODEL 8
REMARK VINA RESULT:      -5.8     11.772     13.336
REMARK  7 active torsions:
REMARK  status: ('A' for Active; 'I' for Inactive)
REMARK    1  A    between atoms: C_2  and  C_3 
REMARK    2  A    between atoms: C_2  and  C_9 
REMARK    3  A    between atoms: C_3  and  C_4 
REMARK    4  A    between atoms: C_4  and  C_5 
REMARK    5  A    between atoms: C_9  and  C_10 
REMARK    6  A    between atoms: C_10  and  O_11 
REMARK    7  A    between atoms: O_11  and  C_12 
ROOT
HETATM    1  C   UNL     1     -20.609  -4.139 -10.388  1.00  0.00     0.010 C 
HETATM    2  C   UNL     1     -22.093  -4.518 -10.336  1.00  0.00    -0.016 C 
ENDROOT
BRANCH   2   3
HETATM    3  C   UNL     1     -22.809  -3.596  -9.320  1.00  0.00     0.008 C 
BRANCH   3   4
HETATM    4  C   UNL     1     -23.009  -4.255  -7.951  1.00  0.00     0.027 C 
BRANCH   4   5
HETATM    5  C   UNL     1     -21.889  -3.989  -6.985  1.00  0.00    -0.025 C 
HETATM    6  C   UNL     1     -21.077  -4.944  -6.487  1.00  0.00    -0.091 C 
HETATM    7  C   UNL     1     -21.169  -6.402  -6.850  1.00  0.00     0.042 C 
HETATM    8  C   UNL     1     -19.993  -4.614  -5.497  1.00  0.00     0.042 C 
ENDBRANCH   4   5
ENDBRANCH   3   4
ENDBRANCH   2   3
BRANCH   2   9
HETATM    9  C   UNL     1     -22.747  -4.445 -11.728  1.00  0.00     0.031 C 
BRANCH   9  10
HETATM   10  C   UNL     1     -22.287  -3.267 -12.586  1.00  0.00     0.179 C 
BRANCH  10  11
HETATM   11  O   UNL     1     -23.369  -2.336 -12.750  1.00  0.00    -0.322 OA
BRANCH  11  12
HETATM   12  C   UNL     1     -23.704  -2.060 -14.042  1.00  0.00     0.254 C 
HETATM   13  O   UNL     1     -24.653  -1.376 -14.400  1.00  0.00    -0.266 OA
HETATM   14  C   UNL     1     -22.755  -2.724 -14.990  1.00  0.00     0.126 C 
ENDBRANCH  11  12
ENDBRANCH  10  11
ENDBRANCH   9  10
ENDBRANCH   2   9
TORSDOF 7
ENDMDL
MODEL 9
REMARK VINA RESULT:      -5.4     14.631     17.129
REMARK  7 active torsions:
REMARK  status: ('A' for Active; 'I' for Inactive)
REMARK    1  A    between atoms: C_2  and  C_3 
REMARK    2  A    between atoms: C_2  and  C_9 
REMARK    3  A    between atoms: C_3  and  C_4 
REMARK    4  A    between atoms: C_4  and  C_5 
REMARK    5  A    between atoms: C_9  and  C_10 
REMARK    6  A    between atoms: C_10  and  O_11 
REMARK    7  A    between atoms: O_11  and  C_12 
ROOT
HETATM    1  C   UNL     1     -20.028  -7.543  -5.661  1.00  0.00     0.010 C 
HETATM    2  C   UNL     1     -20.306  -6.036  -5.652  1.00  0.00    -0.016 C 
ENDROOT
BRANCH   2   3
HETATM    3  C   UNL     1     -21.116  -5.669  -6.919  1.00  0.00     0.008 C 
BRANCH   3   4
HETATM    4  C   UNL     1     -20.822  -4.254  -7.429  1.00  0.00     0.027 C 
BRANCH   4   5
HETATM    5  C   UNL     1     -20.302  -4.216  -8.838  1.00  0.00    -0.025 C 
HETATM    6  C   UNL     1     -21.079  -4.039  -9.926  1.00  0.00    -0.091 C 
HETATM    7  C   UNL     1     -22.569  -3.831  -9.873  1.00  0.00     0.042 C 
HETATM    8  C   UNL     1     -20.497  -4.041 -11.314  1.00  0.00     0.042 C 
ENDBRANCH   4   5
ENDBRANCH   3   4
ENDBRANCH   2   3
BRANCH   2   9
HETATM    9  C   UNL     1     -21.037  -5.601  -4.368  1.00  0.00     0.031 C 
BRANCH   9  10
HETATM   10  C   UNL     1     -21.586  -6.752  -3.526  1.00  0.00     0.179 C 
BRANCH  10  11
HETATM   11  O   UNL     1     -22.223  -6.230  -2.349  1.00  0.00    -0.322 OA
BRANCH  11  12
HETATM   12  C   UNL     1     -22.162  -7.036  -1.252  1.00  0.00     0.254 C 
HETATM   13  O   UNL     1     -22.958  -7.033  -0.323  1.00  0.00    -0.266 OA
HETATM   14  C   UNL     1     -20.969  -7.936  -1.320  1.00  0.00     0.126 C 
ENDBRANCH  11  12
ENDBRANCH  10  11
ENDBRANCH   9  10
ENDBRANCH   2   9
TORSDOF 7
ENDMDL
