MODEL 1
REMARK VINA RESULT:      -6.6      0.000      0.000
REMARK  22 active torsions:
REMARK  status: ('A' for Active; 'I' for Inactive)
REMARK    1  A    between atoms: C_2  and  C_3 
REMARK    2  A    between atoms: C_3  and  C_4 
REMARK    3  A    between atoms: C_4  and  C_5 
REMARK    4  A    between atoms: C_5  and  C_6 
REMARK    5  A    between atoms: C_6  and  C_7 
REMARK    6  A    between atoms: C_7  and  C_8 
REMARK    7  A    between atoms: C_8  and  C_9 
REMARK    8  A    between atoms: C_10  and  C_11 
REMARK    9  A    between atoms: C_11  and  C_12 
REMARK   10  A    between atoms: C_12  and  C_13 
REMARK   11  A    between atoms: C_13  and  C_14 
REMARK   12  A    between atoms: C_14  and  C_15 
REMARK   13  A    between atoms: C_15  and  C_16 
REMARK   14  A    between atoms: C_16  and  C_17 
REMARK   15  A    between atoms: C_17  and  C_18 
REMARK   16  A    between atoms: C_18  and  O_19 
REMARK   17  A    between atoms: O_19  and  C_20 
REMARK   18  A    between atoms: C_20  and  C_21 
REMARK   19  A    between atoms: C_21  and  O_22 
REMARK   20  A    between atoms: O_22  and  C_23 
REMARK   21  A    between atoms: C_23  and  C_24 
REMARK   22  A    between atoms: C_24  and  O_25 
ROOT
HETATM    1  C   UNL     1     -22.124  -6.772  -4.508  1.00  0.00     0.000 C 
ENDROOT
BRANCH   1   2
HETATM    2  C   UNL     1     -21.229  -6.575  -3.291  1.00  0.00     0.004 C 
BRANCH   2   3
HETATM    3  C   UNL     1     -21.984  -5.887  -2.157  1.00  0.00     0.027 C 
BRANCH   3   4
HETATM    4  C   UNL     1     -22.398  -6.870  -1.119  1.00  0.00    -0.031 C 
HETATM    5  C   UNL     1     -21.548  -7.766  -0.603  1.00  0.00    -0.031 C 
BRANCH   5   6
HETATM    6  C   UNL     1     -21.958  -8.745   0.443  1.00  0.00     0.027 C 
BRANCH   6   7
HETATM    7  C   UNL     1     -23.233  -9.458   0.020  1.00  0.00     0.004 C 
BRANCH   7   8
HETATM    8  C   UNL     1     -22.888 -10.708  -0.778  1.00  0.00     0.000 C 
BRANCH   8   9
HETATM    9  C   UNL     1     -24.125 -11.568  -0.979  1.00  0.00     0.000 C 
BRANCH   9  10
HETATM   10  C   UNL     1     -23.816 -13.023  -0.654  1.00  0.00     0.000 C 
BRANCH  10  11
HETATM   11  C   UNL     1     -22.739 -13.110   0.419  1.00  0.00    -0.000 C 
BRANCH  11  12
HETATM   12  C   UNL     1     -23.352 -13.438   1.776  1.00  0.00    -0.005 C 
HETATM   13  C   UNL     1     -22.657 -14.632   2.402  1.00  0.00     0.005 C 
ENDBRANCH  11  12
ENDBRANCH  10  11
ENDBRANCH   9  10
ENDBRANCH   8   9
ENDBRANCH   7   8
ENDBRANCH   6   7
ENDBRANCH   5   6
ENDBRANCH   3   4
ENDBRANCH   2   3
ENDBRANCH   1   2
BRANCH   1  14
HETATM   14  C   UNL     1     -21.345  -6.592  -5.805  1.00  0.00     0.000 C 
BRANCH  14  15
HETATM   15  C   UNL     1     -20.324  -5.478  -5.679  1.00  0.00     0.000 C 
BRANCH  15  16
HETATM   16  C   UNL     1     -20.676  -4.348  -6.640  1.00  0.00     0.002 C 
BRANCH  16  17
HETATM   17  C   UNL     1     -20.387  -4.740  -8.071  1.00  0.00     0.026 C 
BRANCH  17  18
HETATM   18  C   UNL     1     -21.524  -4.269  -8.974  1.00  0.00     0.167 C 
BRANCH  18  19
HETATM   19  O   UNL     1     -22.681  -4.112  -8.164  1.00  0.00    -0.389 OA
BRANCH  19  20
HETATM   20  C   UNL     1     -23.845  -4.072  -8.981  1.00  0.00     0.193 C 
BRANCH  20  21
HETATM   21  C   UNL     1     -23.436  -3.884 -10.427  1.00  0.00     0.193 C 
BRANCH  21  22
HETATM   22  O   UNL     1     -24.288  -2.910 -11.026  1.00  0.00    -0.387 OA
BRANCH  22  23
HETATM   23  C   UNL     1     -24.506  -3.222 -12.403  1.00  0.00     0.193 C 
BRANCH  23  24
HETATM   24  C   UNL     1     -23.582  -2.361 -13.253  1.00  0.00     0.190 C 
BRANCH  24  25
HETATM   25  O   UNL     1     -24.332  -1.520 -14.128  1.00  0.00    -0.399 OA
HETATM   26  H   UNL     1     -24.545  -0.728 -13.596  1.00  0.00     0.209 HD
ENDBRANCH  24  25
ENDBRANCH  23  24
ENDBRANCH  22  23
ENDBRANCH  21  22
ENDBRANCH  20  21
ENDBRANCH  19  20
ENDBRANCH  18  19
ENDBRANCH  17  18
ENDBRANCH  16  17
ENDBRANCH  15  16
ENDBRANCH  14  15
ENDBRANCH   1  14
TORSDOF 22
ENDMDL
MODEL 2
REMARK VINA RESULT:      -6.4      1.627      3.683
REMARK  22 active torsions:
REMARK  status: ('A' for Active; 'I' for Inactive)
REMARK    1  A    between atoms: C_2  and  C_3 
REMARK    2  A    between atoms: C_3  and  C_4 
REMARK    3  A    between atoms: C_4  and  C_5 
REMARK    4  A    between atoms: C_5  and  C_6 
REMARK    5  A    between atoms: C_6  and  C_7 
REMARK    6  A    between atoms: C_7  and  C_8 
REMARK    7  A    between atoms: C_8  and  C_9 
REMARK    8  A    between atoms: C_10  and  C_11 
REMARK    9  A    between atoms: C_11  and  C_12 
REMARK   10  A    between atoms: C_12  and  C_13 
REMARK   11  A    between atoms: C_13  and  C_14 
REMARK   12  A    between atoms: C_14  and  C_15 
REMARK   13  A    between atoms: C_15  and  C_16 
REMARK   14  A    between atoms: C_16  and  C_17 
REMARK   15  A    between atoms: C_17  and  C_18 
REMARK   16  A    between atoms: C_18  and  O_19 
REMARK   17  A    between atoms: O_19  and  C_20 
REMARK   18  A    between atoms: C_20  and  C_21 
REMARK   19  A    between atoms: C_21  and  O_22 
REMARK   20  A    between atoms: O_22  and  C_23 
REMARK   21  A    between atoms: C_23  and  C_24 
REMARK   22  A    between atoms: C_24  and  O_25 
ROOT
HETATM    1  C   UNL     1     -20.169  -7.695  -5.047  1.00  0.00     0.000 C 
ENDROOT
BRANCH   1   2
HETATM    2  C   UNL     1     -21.383  -8.572  -4.767  1.00  0.00     0.004 C 
BRANCH   2   3
HETATM    3  C   UNL     1     -21.158  -9.999  -5.260  1.00  0.00     0.027 C 
BRANCH   3   4
HETATM    4  C   UNL     1     -21.498 -10.988  -4.202  1.00  0.00    -0.031 C 
HETATM    5  C   UNL     1     -22.500 -10.792  -3.336  1.00  0.00    -0.031 C 
BRANCH   5   6
HETATM    6  C   UNL     1     -22.848 -11.785  -2.281  1.00  0.00     0.027 C 
BRANCH   6   7
HETATM    7  C   UNL     1     -23.886 -11.200  -1.335  1.00  0.00     0.004 C 
BRANCH   7   8
HETATM    8  C   UNL     1     -23.222 -10.783  -0.031  1.00  0.00     0.000 C 
BRANCH   8   9
HETATM    9  C   UNL     1     -23.235  -9.270   0.111  1.00  0.00     0.000 C 
BRANCH   9  10
HETATM   10  C   UNL     1     -21.828  -8.751   0.373  1.00  0.00     0.000 C 
BRANCH  10  11
HETATM   11  C   UNL     1     -21.296  -8.019  -0.853  1.00  0.00    -0.000 C 
BRANCH  11  12
HETATM   12  C   UNL     1     -22.335  -7.044  -1.395  1.00  0.00    -0.005 C 
HETATM   13  C   UNL     1     -21.667  -5.939  -2.191  1.00  0.00     0.005 C 
ENDBRANCH  11  12
ENDBRANCH  10  11
ENDBRANCH   9  10
ENDBRANCH   8   9
ENDBRANCH   7   8
ENDBRANCH   6   7
ENDBRANCH   5   6
ENDBRANCH   3   4
ENDBRANCH   2   3
ENDBRANCH   1   2
BRANCH   1  14
HETATM   14  C   UNL     1     -20.458  -6.681  -6.147  1.00  0.00     0.000 C 
BRANCH  14  15
HETATM   15  C   UNL     1     -20.124  -5.273  -5.696  1.00  0.00     0.000 C 
BRANCH  15  16
HETATM   16  C   UNL     1     -20.954  -4.269  -6.488  1.00  0.00     0.002 C 
BRANCH  16  17
HETATM   17  C   UNL     1     -21.445  -4.872  -7.784  1.00  0.00     0.026 C 
BRANCH  17  18
HETATM   18  C   UNL     1     -22.659  -4.095  -8.289  1.00  0.00     0.167 C 
BRANCH  18  19
HETATM   19  O   UNL     1     -22.274  -3.421  -9.480  1.00  0.00    -0.389 OA
BRANCH  19  20
HETATM   20  C   UNL     1     -21.904  -4.366 -10.476  1.00  0.00     0.193 C 
BRANCH  20  21
HETATM   21  C   UNL     1     -22.384  -3.881 -11.828  1.00  0.00     0.193 C 
BRANCH  21  22
HETATM   22  O   UNL     1     -23.495  -3.006 -11.638  1.00  0.00    -0.387 OA
BRANCH  22  23
HETATM   23  C   UNL     1     -24.287  -2.947 -12.825  1.00  0.00     0.193 C 
BRANCH  23  24
HETATM   24  C   UNL     1     -23.416  -2.451 -13.971  1.00  0.00     0.190 C 
BRANCH  24  25
HETATM   25  O   UNL     1     -23.411  -3.388 -15.047  1.00  0.00    -0.399 OA
HETATM   26  H   UNL     1     -23.714  -2.881 -15.825  1.00  0.00     0.209 HD
ENDBRANCH  24  25
ENDBRANCH  23  24
ENDBRANCH  22  23
ENDBRANCH  21  22
ENDBRANCH  20  21
ENDBRANCH  19  20
ENDBRANCH  18  19
ENDBRANCH  17  18
ENDBRANCH  16  17
ENDBRANCH  15  16
ENDBRANCH  14  15
ENDBRANCH   1  14
TORSDOF 22
ENDMDL
MODEL 3
REMARK VINA RESULT:      -6.4      1.610      2.333
REMARK  22 active torsions:
REMARK  status: ('A' for Active; 'I' for Inactive)
REMARK    1  A    between atoms: C_2  and  C_3 
REMARK    2  A    between atoms: C_3  and  C_4 
REMARK    3  A    between atoms: C_4  and  C_5 
REMARK    4  A    between atoms: C_5  and  C_6 
REMARK    5  A    between atoms: C_6  and  C_7 
REMARK    6  A    between atoms: C_7  and  C_8 
REMARK    7  A    between atoms: C_8  and  C_9 
REMARK    8  A    between atoms: C_10  and  C_11 
REMARK    9  A    between atoms: C_11  and  C_12 
REMARK   10  A    between atoms: C_12  and  C_13 
REMARK   11  A    between atoms: C_13  and  C_14 
REMARK   12  A    between atoms: C_14  and  C_15 
REMARK   13  A    between atoms: C_15  and  C_16 
REMARK   14  A    between atoms: C_16  and  C_17 
REMARK   15  A    between atoms: C_17  and  C_18 
REMARK   16  A    between atoms: C_18  and  O_19 
REMARK   17  A    between atoms: O_19  and  C_20 
REMARK   18  A    between atoms: C_20  and  C_21 
REMARK   19  A    between atoms: C_21  and  O_22 
REMARK   20  A    between atoms: O_22  and  C_23 
REMARK   21  A    between atoms: C_23  and  C_24 
REMARK   22  A    between atoms: C_24  and  O_25 
ROOT
HETATM    1  C   UNL     1     -21.225  -7.687  -4.172  1.00  0.00     0.000 C 
ENDROOT
BRANCH   1   2
HETATM    2  C   UNL     1     -21.966  -6.405  -3.811  1.00  0.00     0.004 C 
BRANCH   2   3
HETATM    3  C   UNL     1     -21.701  -6.004  -2.363  1.00  0.00     0.027 C 
BRANCH   3   4
HETATM    4  C   UNL     1     -21.781  -7.184  -1.460  1.00  0.00    -0.031 C 
HETATM    5  C   UNL     1     -22.660  -7.256  -0.453  1.00  0.00    -0.031 C 
BRANCH   5   6
HETATM    6  C   UNL     1     -22.748  -8.439   0.447  1.00  0.00     0.027 C 
BRANCH   6   7
HETATM    7  C   UNL     1     -21.472  -9.262   0.355  1.00  0.00     0.004 C 
BRANCH   7   8
HETATM    8  C   UNL     1     -21.810 -10.706   0.008  1.00  0.00     0.000 C 
BRANCH   8   9
HETATM    9  C   UNL     1     -23.308 -10.866  -0.192  1.00  0.00     0.000 C 
BRANCH   9  10
HETATM   10  C   UNL     1     -23.599 -11.456  -1.565  1.00  0.00     0.000 C 
BRANCH  10  11
HETATM   11  C   UNL     1     -22.874 -10.665  -2.646  1.00  0.00    -0.000 C 
BRANCH  11  12
HETATM   12  C   UNL     1     -22.094 -11.594  -3.567  1.00  0.00    -0.005 C 
HETATM   13  C   UNL     1     -20.601 -11.366  -3.418  1.00  0.00     0.005 C 
ENDBRANCH  11  12
ENDBRANCH  10  11
ENDBRANCH   9  10
ENDBRANCH   8   9
ENDBRANCH   7   8
ENDBRANCH   6   7
ENDBRANCH   5   6
ENDBRANCH   3   4
ENDBRANCH   2   3
ENDBRANCH   1   2
BRANCH   1  14
HETATM   14  C   UNL     1     -20.188  -7.441  -5.262  1.00  0.00     0.000 C 
BRANCH  14  15
HETATM   15  C   UNL     1     -20.749  -6.561  -6.362  1.00  0.00     0.000 C 
BRANCH  15  16
HETATM   16  C   UNL     1     -20.006  -5.229  -6.383  1.00  0.00     0.002 C 
BRANCH  16  17
HETATM   17  C   UNL     1     -20.935  -4.094  -6.744  1.00  0.00     0.026 C 
BRANCH  17  18
HETATM   18  C   UNL     1     -21.976  -4.578  -7.751  1.00  0.00     0.167 C 
BRANCH  18  19
HETATM   19  O   UNL     1     -21.412  -4.448  -9.049  1.00  0.00    -0.389 OA
BRANCH  19  20
HETATM   20  C   UNL     1     -22.308  -3.744  -9.900  1.00  0.00     0.193 C 
BRANCH  20  21
HETATM   21  C   UNL     1     -22.102  -4.200 -11.330  1.00  0.00     0.193 C 
BRANCH  21  22
HETATM   22  O   UNL     1     -23.376  -4.420 -11.933  1.00  0.00    -0.387 OA
BRANCH  22  23
HETATM   23  C   UNL     1     -24.060  -3.179 -12.112  1.00  0.00     0.193 C 
BRANCH  23  24
HETATM   24  C   UNL     1     -23.577  -2.535 -13.404  1.00  0.00     0.190 C 
BRANCH  24  25
HETATM   25  O   UNL     1     -24.540  -1.607 -13.901  1.00  0.00    -0.399 OA
HETATM   26  H   UNL     1     -24.370  -1.557 -14.862  1.00  0.00     0.209 HD
ENDBRANCH  24  25
ENDBRANCH  23  24
ENDBRANCH  22  23
ENDBRANCH  21  22
ENDBRANCH  20  21
ENDBRANCH  19  20
ENDBRANCH  18  19
ENDBRANCH  17  18
ENDBRANCH  16  17
ENDBRANCH  15  16
ENDBRANCH  14  15
ENDBRANCH   1  14
TORSDOF 22
ENDMDL
MODEL 4
REMARK VINA RESULT:      -6.4      1.303      2.091
REMARK  22 active torsions:
REMARK  status: ('A' for Active; 'I' for Inactive)
REMARK    1  A    between atoms: C_2  and  C_3 
REMARK    2  A    between atoms: C_3  and  C_4 
REMARK    3  A    between atoms: C_4  and  C_5 
REMARK    4  A    between atoms: C_5  and  C_6 
REMARK    5  A    between atoms: C_6  and  C_7 
REMARK    6  A    between atoms: C_7  and  C_8 
REMARK    7  A    between atoms: C_8  and  C_9 
REMARK    8  A    between atoms: C_10  and  C_11 
REMARK    9  A    between atoms: C_11  and  C_12 
REMARK   10  A    between atoms: C_12  and  C_13 
REMARK   11  A    between atoms: C_13  and  C_14 
REMARK   12  A    between atoms: C_14  and  C_15 
REMARK   13  A    between atoms: C_15  and  C_16 
REMARK   14  A    between atoms: C_16  and  C_17 
REMARK   15  A    between atoms: C_17  and  C_18 
REMARK   16  A    between atoms: C_18  and  O_19 
REMARK   17  A    between atoms: O_19  and  C_20 
REMARK   18  A    between atoms: C_20  and  C_21 
REMARK   19  A    between atoms: C_21  and  O_22 
REMARK   20  A    between atoms: O_22  and  C_23 
REMARK   21  A    between atoms: C_23  and  C_24 
REMARK   22  A    between atoms: C_24  and  O_25 
ROOT
HETATM    1  C   UNL     1     -21.236  -7.699  -5.655  1.00  0.00     0.000 C 
ENDROOT
BRANCH   1   2
HETATM    2  C   UNL     1     -21.747  -7.689  -4.220  1.00  0.00     0.004 C 
BRANCH   2   3
HETATM    3  C   UNL     1     -21.709  -6.281  -3.631  1.00  0.00     0.027 C 
BRANCH   3   4
HETATM    4  C   UNL     1     -21.734  -6.324  -2.144  1.00  0.00    -0.031 C 
HETATM    5  C   UNL     1     -22.399  -7.268  -1.468  1.00  0.00    -0.031 C 
BRANCH   5   6
HETATM    6  C   UNL     1     -22.419  -7.318   0.021  1.00  0.00     0.027 C 
BRANCH   6   7
HETATM    7  C   UNL     1     -22.738  -8.729   0.493  1.00  0.00     0.004 C 
BRANCH   7   8
HETATM    8  C   UNL     1     -22.286  -9.739  -0.552  1.00  0.00     0.000 C 
BRANCH   8   9
HETATM    9  C   UNL     1     -23.435 -10.660  -0.931  1.00  0.00     0.000 C 
BRANCH   9  10
HETATM   10  C   UNL     1     -23.886 -11.469   0.276  1.00  0.00     0.000 C 
BRANCH  10  11
HETATM   11  C   UNL     1     -22.763 -12.382   0.752  1.00  0.00    -0.000 C 
BRANCH  11  12
HETATM   12  C   UNL     1     -23.267 -13.807   0.944  1.00  0.00    -0.005 C 
HETATM   13  C   UNL     1     -23.507 -14.097   2.413  1.00  0.00     0.005 C 
ENDBRANCH  11  12
ENDBRANCH  10  11
ENDBRANCH   9  10
ENDBRANCH   8   9
ENDBRANCH   7   8
ENDBRANCH   6   7
ENDBRANCH   5   6
ENDBRANCH   3   4
ENDBRANCH   2   3
ENDBRANCH   1   2
BRANCH   1  14
HETATM   14  C   UNL     1     -20.102  -6.699  -5.847  1.00  0.00     0.000 C 
BRANCH  14  15
HETATM   15  C   UNL     1     -20.307  -5.874  -7.102  1.00  0.00     0.000 C 
BRANCH  15  16
HETATM   16  C   UNL     1     -19.325  -4.707  -7.116  1.00  0.00     0.002 C 
BRANCH  16  17
HETATM   17  C   UNL     1     -19.435  -3.919  -8.401  1.00  0.00     0.026 C 
BRANCH  17  18
HETATM   18  C   UNL     1     -20.631  -4.415  -9.210  1.00  0.00     0.167 C 
BRANCH  18  19
HETATM   19  O   UNL     1     -20.675  -3.666 -10.417  1.00  0.00    -0.389 OA
BRANCH  19  20
HETATM   20  C   UNL     1     -21.692  -4.177 -11.271  1.00  0.00     0.193 C 
BRANCH  20  21
HETATM   21  C   UNL     1     -22.245  -3.051 -12.120  1.00  0.00     0.193 C 
BRANCH  21  22
HETATM   22  O   UNL     1     -23.533  -2.689 -11.626  1.00  0.00    -0.387 OA
BRANCH  22  23
HETATM   23  C   UNL     1     -24.151  -3.807 -10.987  1.00  0.00     0.193 C 
BRANCH  23  24
HETATM   24  C   UNL     1     -24.883  -3.319  -9.745  1.00  0.00     0.190 C 
BRANCH  24  25
HETATM   25  O   UNL     1     -24.122  -3.585  -8.569  1.00  0.00    -0.399 OA
HETATM   26  H   UNL     1     -23.256  -3.161  -8.727  1.00  0.00     0.209 HD
ENDBRANCH  24  25
ENDBRANCH  23  24
ENDBRANCH  22  23
ENDBRANCH  21  22
ENDBRANCH  20  21
ENDBRANCH  19  20
ENDBRANCH  18  19
ENDBRANCH  17  18
ENDBRANCH  16  17
ENDBRANCH  15  16
ENDBRANCH  14  15
ENDBRANCH   1  14
TORSDOF 22
ENDMDL
MODEL 5
REMARK VINA RESULT:      -6.2      1.804      3.702
REMARK  22 active torsions:
REMARK  status: ('A' for Active; 'I' for Inactive)
REMARK    1  A    between atoms: C_2  and  C_3 
REMARK    2  A    between atoms: C_3  and  C_4 
REMARK    3  A    between atoms: C_4  and  C_5 
REMARK    4  A    between atoms: C_5  and  C_6 
REMARK    5  A    between atoms: C_6  and  C_7 
REMARK    6  A    between atoms: C_7  and  C_8 
REMARK    7  A    between atoms: C_8  and  C_9 
REMARK    8  A    between atoms: C_10  and  C_11 
REMARK    9  A    between atoms: C_11  and  C_12 
REMARK   10  A    between atoms: C_12  and  C_13 
REMARK   11  A    between atoms: C_13  and  C_14 
REMARK   12  A    between atoms: C_14  and  C_15 
REMARK   13  A    between atoms: C_15  and  C_16 
REMARK   14  A    between atoms: C_16  and  C_17 
REMARK   15  A    between atoms: C_17  and  C_18 
REMARK   16  A    between atoms: C_18  and  O_19 
REMARK   17  A    between atoms: O_19  and  C_20 
REMARK   18  A    between atoms: C_20  and  C_21 
REMARK   19  A    between atoms: C_21  and  O_22 
REMARK   20  A    between atoms: O_22  and  C_23 
REMARK   21  A    between atoms: C_23  and  C_24 
REMARK   22  A    between atoms: C_24  and  O_25 
ROOT
HETATM    1  C   UNL     1     -22.337  -6.665  -1.734  1.00  0.00     0.000 C 
ENDROOT
BRANCH   1   2
HETATM    2  C   UNL     1     -21.777  -7.583  -0.656  1.00  0.00     0.004 C 
BRANCH   2   3
HETATM    3  C   UNL     1     -22.806  -7.837   0.442  1.00  0.00     0.027 C 
BRANCH   3   4
HETATM    4  C   UNL     1     -23.456  -9.164   0.267  1.00  0.00    -0.031 C 
HETATM    5  C   UNL     1     -22.785 -10.236  -0.170  1.00  0.00    -0.031 C 
BRANCH   5   6
HETATM    6  C   UNL     1     -23.431 -11.568  -0.338  1.00  0.00     0.027 C 
BRANCH   6   7
HETATM    7  C   UNL     1     -23.029 -12.180  -1.671  1.00  0.00     0.004 C 
BRANCH   7   8
HETATM    8  C   UNL     1     -23.275 -11.183  -2.795  1.00  0.00     0.000 C 
BRANCH   8   9
HETATM    9  C   UNL     1     -22.098 -11.165  -3.757  1.00  0.00     0.000 C 
BRANCH   9  10
HETATM   10  C   UNL     1     -21.416  -9.805  -3.734  1.00  0.00     0.000 C 
BRANCH  10  11
HETATM   11  C   UNL     1     -20.305  -9.751  -4.774  1.00  0.00    -0.000 C 
BRANCH  11  12
HETATM   12  C   UNL     1     -19.078  -9.036  -4.221  1.00  0.00    -0.005 C 
HETATM   13  C   UNL     1     -18.980  -9.225  -2.719  1.00  0.00     0.005 C 
ENDBRANCH  11  12
ENDBRANCH  10  11
ENDBRANCH   9  10
ENDBRANCH   8   9
ENDBRANCH   7   8
ENDBRANCH   6   7
ENDBRANCH   5   6
ENDBRANCH   3   4
ENDBRANCH   2   3
ENDBRANCH   1   2
BRANCH   1  14
HETATM   14  C   UNL     1     -21.269  -6.292  -2.756  1.00  0.00     0.000 C 
BRANCH  14  15
HETATM   15  C   UNL     1     -21.837  -6.282  -4.162  1.00  0.00     0.000 C 
BRANCH  15  16
HETATM   16  C   UNL     1     -20.783  -5.769  -5.137  1.00  0.00     0.002 C 
BRANCH  16  17
HETATM   17  C   UNL     1     -21.251  -5.911  -6.568  1.00  0.00     0.026 C 
BRANCH  17  18
HETATM   18  C   UNL     1     -22.031  -4.665  -6.982  1.00  0.00     0.167 C 
BRANCH  18  19
HETATM   19  O   UNL     1     -22.344  -4.792  -8.362  1.00  0.00    -0.389 OA
BRANCH  19  20
HETATM   20  C   UNL     1     -21.189  -4.528  -9.149  1.00  0.00     0.193 C 
BRANCH  20  21
HETATM   21  C   UNL     1     -21.604  -3.834 -10.430  1.00  0.00     0.193 C 
BRANCH  21  22
HETATM   22  O   UNL     1     -23.028  -3.761 -10.476  1.00  0.00    -0.387 OA
BRANCH  22  23
HETATM   23  C   UNL     1     -23.515  -4.324 -11.695  1.00  0.00     0.193 C 
BRANCH  23  24
HETATM   24  C   UNL     1     -24.271  -3.249 -12.464  1.00  0.00     0.190 C 
BRANCH  24  25
HETATM   25  O   UNL     1     -23.442  -2.111 -12.694  1.00  0.00    -0.399 OA
HETATM   26  H   UNL     1     -24.063  -1.381 -12.886  1.00  0.00     0.209 HD
ENDBRANCH  24  25
ENDBRANCH  23  24
ENDBRANCH  22  23
ENDBRANCH  21  22
ENDBRANCH  20  21
ENDBRANCH  19  20
ENDBRANCH  18  19
ENDBRANCH  17  18
ENDBRANCH  16  17
ENDBRANCH  15  16
ENDBRANCH  14  15
ENDBRANCH   1  14
TORSDOF 22
ENDMDL
MODEL 6
REMARK VINA RESULT:      -6.1      2.110      3.657
REMARK  22 active torsions:
REMARK  status: ('A' for Active; 'I' for Inactive)
REMARK    1  A    between atoms: C_2  and  C_3 
REMARK    2  A    between atoms: C_3  and  C_4 
REMARK    3  A    between atoms: C_4  and  C_5 
REMARK    4  A    between atoms: C_5  and  C_6 
REMARK    5  A    between atoms: C_6  and  C_7 
REMARK    6  A    between atoms: C_7  and  C_8 
REMARK    7  A    between atoms: C_8  and  C_9 
REMARK    8  A    between atoms: C_10  and  C_11 
REMARK    9  A    between atoms: C_11  and  C_12 
REMARK   10  A    between atoms: C_12  and  C_13 
REMARK   11  A    between atoms: C_13  and  C_14 
REMARK   12  A    between atoms: C_14  and  C_15 
REMARK   13  A    between atoms: C_15  and  C_16 
REMARK   14  A    between atoms: C_16  and  C_17 
REMARK   15  A    between atoms: C_17  and  C_18 
REMARK   16  A    between atoms: C_18  and  O_19 
REMARK   17  A    between atoms: O_19  and  C_20 
REMARK   18  A    between atoms: C_20  and  C_21 
REMARK   19  A    between atoms: C_21  and  O_22 
REMARK   20  A    between atoms: O_22  and  C_23 
REMARK   21  A    between atoms: C_23  and  C_24 
REMARK   22  A    between atoms: C_24  and  O_25 
ROOT
HETATM    1  C   UNL     1     -21.723  -7.502  -1.198  1.00  0.00     0.000 C 
ENDROOT
BRANCH   1   2
HETATM    2  C   UNL     1     -22.685  -7.894  -0.083  1.00  0.00     0.004 C 
BRANCH   2   3
HETATM    3  C   UNL     1     -21.964  -7.986   1.260  1.00  0.00     0.027 C 
BRANCH   3   4
HETATM    4  C   UNL     1     -20.859  -8.980   1.205  1.00  0.00    -0.031 C 
HETATM    5  C   UNL     1     -21.053 -10.243   0.805  1.00  0.00    -0.031 C 
BRANCH   5   6
HETATM    6  C   UNL     1     -19.946 -11.239   0.741  1.00  0.00     0.027 C 
BRANCH   6   7
HETATM    7  C   UNL     1     -19.985 -11.980  -0.586  1.00  0.00     0.004 C 
BRANCH   7   8
HETATM    8  C   UNL     1     -19.451 -11.084  -1.695  1.00  0.00     0.000 C 
BRANCH   8   9
HETATM    9  C   UNL     1     -20.588 -10.594  -2.576  1.00  0.00     0.000 C 
BRANCH   9  10
HETATM   10  C   UNL     1     -21.631 -11.688  -2.752  1.00  0.00     0.000 C 
BRANCH  10  11
HETATM   11  C   UNL     1     -23.018 -11.158  -2.413  1.00  0.00    -0.000 C 
BRANCH  11  12
HETATM   12  C   UNL     1     -23.671 -12.004  -1.326  1.00  0.00    -0.005 C 
HETATM   13  C   UNL     1     -24.170 -11.127  -0.193  1.00  0.00     0.005 C 
ENDBRANCH  11  12
ENDBRANCH  10  11
ENDBRANCH   9  10
ENDBRANCH   8   9
ENDBRANCH   7   8
ENDBRANCH   6   7
ENDBRANCH   5   6
ENDBRANCH   3   4
ENDBRANCH   2   3
ENDBRANCH   1   2
BRANCH   1  14
HETATM   14  C   UNL     1     -22.206  -6.258  -1.934  1.00  0.00     0.000 C 
BRANCH  14  15
HETATM   15  C   UNL     1     -21.375  -6.001  -3.176  1.00  0.00     0.000 C 
BRANCH  15  16
HETATM   16  C   UNL     1     -21.022  -7.327  -3.841  1.00  0.00     0.002 C 
BRANCH  16  17
HETATM   17  C   UNL     1     -21.633  -7.424  -5.220  1.00  0.00     0.026 C 
BRANCH  17  18
HETATM   18  C   UNL     1     -21.459  -6.098  -5.957  1.00  0.00     0.167 C 
BRANCH  18  19
HETATM   19  O   UNL     1     -20.941  -6.388  -7.248  1.00  0.00    -0.389 OA
BRANCH  19  20
HETATM   20  C   UNL     1     -20.067  -5.347  -7.667  1.00  0.00     0.193 C 
BRANCH  20  21
HETATM   21  C   UNL     1     -20.487  -4.863  -9.040  1.00  0.00     0.193 C 
BRANCH  21  22
HETATM   22  O   UNL     1     -21.904  -4.698  -9.058  1.00  0.00    -0.387 OA
BRANCH  22  23
HETATM   23  C   UNL     1     -22.345  -4.340 -10.369  1.00  0.00     0.193 C 
BRANCH  23  24
HETATM   24  C   UNL     1     -21.127  -4.194 -11.271  1.00  0.00     0.190 C 
BRANCH  24  25
HETATM   25  O   UNL     1     -21.513  -3.795 -12.585  1.00  0.00    -0.399 OA
HETATM   26  H   UNL     1     -21.782  -4.622 -13.032  1.00  0.00     0.209 HD
ENDBRANCH  24  25
ENDBRANCH  23  24
ENDBRANCH  22  23
ENDBRANCH  21  22
ENDBRANCH  20  21
ENDBRANCH  19  20
ENDBRANCH  18  19
ENDBRANCH  17  18
ENDBRANCH  16  17
ENDBRANCH  15  16
ENDBRANCH  14  15
ENDBRANCH   1  14
TORSDOF 22
ENDMDL
MODEL 7
REMARK VINA RESULT:      -6.0      3.055      5.100
REMARK  22 active torsions:
REMARK  status: ('A' for Active; 'I' for Inactive)
REMARK    1  A    between atoms: C_2  and  C_3 
REMARK    2  A    between atoms: C_3  and  C_4 
REMARK    3  A    between atoms: C_4  and  C_5 
REMARK    4  A    between atoms: C_5  and  C_6 
REMARK    5  A    between atoms: C_6  and  C_7 
REMARK    6  A    between atoms: C_7  and  C_8 
REMARK    7  A    between atoms: C_8  and  C_9 
REMARK    8  A    between atoms: C_10  and  C_11 
REMARK    9  A    between atoms: C_11  and  C_12 
REMARK   10  A    between atoms: C_12  and  C_13 
REMARK   11  A    between atoms: C_13  and  C_14 
REMARK   12  A    between atoms: C_14  and  C_15 
REMARK   13  A    between atoms: C_15  and  C_16 
REMARK   14  A    between atoms: C_16  and  C_17 
REMARK   15  A    between atoms: C_17  and  C_18 
REMARK   16  A    between atoms: C_18  and  O_19 
REMARK   17  A    between atoms: O_19  and  C_20 
REMARK   18  A    between atoms: C_20  and  C_21 
REMARK   19  A    between atoms: C_21  and  O_22 
REMARK   20  A    between atoms: O_22  and  C_23 
REMARK   21  A    between atoms: C_23  and  C_24 
REMARK   22  A    between atoms: C_24  and  O_25 
ROOT
HETATM    1  C   UNL     1     -21.892  -7.573  -0.634  1.00  0.00     0.000 C 
ENDROOT
BRANCH   1   2
HETATM    2  C   UNL     1     -23.087  -7.830   0.275  1.00  0.00     0.004 C 
BRANCH   2   3
HETATM    3  C   UNL     1     -23.496  -9.301   0.244  1.00  0.00     0.027 C 
BRANCH   3   4
HETATM    4  C   UNL     1     -22.566 -10.096  -0.602  1.00  0.00    -0.031 C 
HETATM    5  C   UNL     1     -21.761 -11.035  -0.090  1.00  0.00    -0.031 C 
BRANCH   5   6
HETATM    6  C   UNL     1     -20.834 -11.838  -0.936  1.00  0.00     0.027 C 
BRANCH   6   7
HETATM    7  C   UNL     1     -19.539 -11.074  -1.165  1.00  0.00     0.004 C 
BRANCH   7   8
HETATM    8  C   UNL     1     -19.627 -10.283  -2.463  1.00  0.00     0.000 C 
BRANCH   8   9
HETATM    9  C   UNL     1     -18.401  -9.400  -2.630  1.00  0.00     0.000 C 
BRANCH   9  10
HETATM   10  C   UNL     1     -17.856  -9.513  -4.047  1.00  0.00     0.000 C 
BRANCH  10  11
HETATM   11  C   UNL     1     -16.360  -9.797  -4.019  1.00  0.00    -0.000 C 
BRANCH  11  12
HETATM   12  C   UNL     1     -15.925 -10.274  -2.638  1.00  0.00    -0.005 C 
HETATM   13  C   UNL     1     -15.213 -11.610  -2.733  1.00  0.00     0.005 C 
ENDBRANCH  11  12
ENDBRANCH  10  11
ENDBRANCH   9  10
ENDBRANCH   8   9
ENDBRANCH   7   8
ENDBRANCH   6   7
ENDBRANCH   5   6
ENDBRANCH   3   4
ENDBRANCH   2   3
ENDBRANCH   1   2
BRANCH   1  14
HETATM   14  C   UNL     1     -22.207  -6.507  -1.677  1.00  0.00     0.000 C 
BRANCH  14  15
HETATM   15  C   UNL     1     -21.298  -6.636  -2.883  1.00  0.00     0.000 C 
BRANCH  15  16
HETATM   16  C   UNL     1     -21.699  -7.859  -3.700  1.00  0.00     0.002 C 
BRANCH  16  17
HETATM   17  C   UNL     1     -21.155  -7.775  -5.108  1.00  0.00     0.026 C 
BRANCH  17  18
HETATM   18  C   UNL     1     -21.264  -6.340  -5.618  1.00  0.00     0.167 C 
BRANCH  18  19
HETATM   19  O   UNL     1     -20.539  -6.261  -6.838  1.00  0.00    -0.389 OA
BRANCH  19  20
HETATM   20  C   UNL     1     -21.300  -5.559  -7.813  1.00  0.00     0.193 C 
BRANCH  20  21
HETATM   21  C   UNL     1     -22.044  -4.422  -7.142  1.00  0.00     0.193 C 
BRANCH  21  22
HETATM   22  O   UNL     1     -23.342  -4.312  -7.724  1.00  0.00    -0.387 OA
BRANCH  22  23
HETATM   23  C   UNL     1     -23.244  -3.840  -9.069  1.00  0.00     0.193 C 
BRANCH  23  24
HETATM   24  C   UNL     1     -24.501  -4.250  -9.824  1.00  0.00     0.190 C 
BRANCH  24  25
HETATM   25  O   UNL     1     -25.503  -3.239  -9.731  1.00  0.00    -0.399 OA
HETATM   26  H   UNL     1     -26.315  -3.655 -10.081  1.00  0.00     0.209 HD
ENDBRANCH  24  25
ENDBRANCH  23  24
ENDBRANCH  22  23
ENDBRANCH  21  22
ENDBRANCH  20  21
ENDBRANCH  19  20
ENDBRANCH  18  19
ENDBRANCH  17  18
ENDBRANCH  16  17
ENDBRANCH  15  16
ENDBRANCH  14  15
ENDBRANCH   1  14
TORSDOF 22
ENDMDL
MODEL 8
REMARK VINA RESULT:      -5.9      4.663     11.363
REMARK  22 active torsions:
REMARK  status: ('A' for Active; 'I' for Inactive)
REMARK    1  A    between atoms: C_2  and  C_3 
REMARK    2  A    between atoms: C_3  and  C_4 
REMARK    3  A    between atoms: C_4  and  C_5 
REMARK    4  A    between atoms: C_5  and  C_6 
REMARK    5  A    between atoms: C_6  and  C_7 
REMARK    6  A    between atoms: C_7  and  C_8 
REMARK    7  A    between atoms: C_8  and  C_9 
REMARK    8  A    between atoms: C_10  and  C_11 
REMARK    9  A    between atoms: C_11  and  C_12 
REMARK   10  A    between atoms: C_12  and  C_13 
REMARK   11  A    between atoms: C_13  and  C_14 
REMARK   12  A    between atoms: C_14  and  C_15 
REMARK   13  A    between atoms: C_15  and  C_16 
REMARK   14  A    between atoms: C_16  and  C_17 
REMARK   15  A    between atoms: C_17  and  C_18 
REMARK   16  A    between atoms: C_18  and  O_19 
REMARK   17  A    between atoms: O_19  and  C_20 
REMARK   18  A    between atoms: C_20  and  C_21 
REMARK   19  A    between atoms: C_21  and  O_22 
REMARK   20  A    between atoms: O_22  and  C_23 
REMARK   21  A    between atoms: C_23  and  C_24 
REMARK   22  A    between atoms: C_24  and  O_25 
ROOT
HETATM    1  C   UNL     1     -20.900  -5.495  -5.285  1.00  0.00     0.000 C 
ENDROOT
BRANCH   1   2
HETATM    2  C   UNL     1     -21.656  -5.170  -6.567  1.00  0.00     0.004 C 
BRANCH   2   3
HETATM    3  C   UNL     1     -21.405  -3.730  -7.004  1.00  0.00     0.027 C 
BRANCH   3   4
HETATM    4  C   UNL     1     -20.762  -3.684  -8.345  1.00  0.00    -0.031 C 
HETATM    5  C   UNL     1     -20.695  -4.756  -9.143  1.00  0.00    -0.031 C 
BRANCH   5   6
HETATM    6  C   UNL     1     -20.059  -4.711 -10.490  1.00  0.00     0.027 C 
BRANCH   6   7
HETATM    7  C   UNL     1     -20.455  -3.432 -11.212  1.00  0.00     0.004 C 
BRANCH   7   8
HETATM    8  C   UNL     1     -21.555  -3.727 -12.222  1.00  0.00     0.000 C 
BRANCH   8   9
HETATM    9  C   UNL     1     -22.597  -2.620 -12.210  1.00  0.00     0.000 C 
BRANCH   9  10
HETATM   10  C   UNL     1     -23.966  -3.185 -11.859  1.00  0.00     0.000 C 
BRANCH  10  11
HETATM   11  C   UNL     1     -23.833  -4.610 -11.335  1.00  0.00    -0.000 C 
BRANCH  11  12
HETATM   12  C   UNL     1     -24.254  -4.691  -9.873  1.00  0.00    -0.005 C 
HETATM   13  C   UNL     1     -24.557  -3.309  -9.325  1.00  0.00     0.005 C 
ENDBRANCH  11  12
ENDBRANCH  10  11
ENDBRANCH   9  10
ENDBRANCH   8   9
ENDBRANCH   7   8
ENDBRANCH   6   7
ENDBRANCH   5   6
ENDBRANCH   3   4
ENDBRANCH   2   3
ENDBRANCH   1   2
BRANCH   1  14
HETATM   14  C   UNL     1     -21.537  -6.667  -4.547  1.00  0.00     0.000 C 
BRANCH  14  15
HETATM   15  C   UNL     1     -21.519  -6.444  -3.047  1.00  0.00     0.000 C 
BRANCH  15  16
HETATM   16  C   UNL     1     -21.033  -7.708  -2.346  1.00  0.00     0.002 C 
BRANCH  16  17
HETATM   17  C   UNL     1     -20.223  -8.573  -3.285  1.00  0.00     0.026 C 
BRANCH  17  18
HETATM   18  C   UNL     1     -20.760 -10.002  -3.262  1.00  0.00     0.167 C 
BRANCH  18  19
HETATM   19  O   UNL     1     -19.760 -10.828  -2.681  1.00  0.00    -0.389 OA
BRANCH  19  20
HETATM   20  C   UNL     1     -20.324 -11.614  -1.638  1.00  0.00     0.193 C 
BRANCH  20  21
HETATM   21  C   UNL     1     -19.969 -10.999  -0.300  1.00  0.00     0.193 C 
BRANCH  21  22
HETATM   22  O   UNL     1     -21.115 -10.325   0.218  1.00  0.00    -0.387 OA
BRANCH  22  23
HETATM   23  C   UNL     1     -22.295 -11.091  -0.030  1.00  0.00     0.193 C 
BRANCH  23  24
HETATM   24  C   UNL     1     -23.444 -10.137  -0.326  1.00  0.00     0.190 C 
BRANCH  24  25
HETATM   25  O   UNL     1     -23.236  -8.877   0.308  1.00  0.00    -0.399 OA
HETATM   26  H   UNL     1     -22.406  -8.534  -0.078  1.00  0.00     0.209 HD
ENDBRANCH  24  25
ENDBRANCH  23  24
ENDBRANCH  22  23
ENDBRANCH  21  22
ENDBRANCH  20  21
ENDBRANCH  19  20
ENDBRANCH  18  19
ENDBRANCH  17  18
ENDBRANCH  16  17
ENDBRANCH  15  16
ENDBRANCH  14  15
ENDBRANCH   1  14
TORSDOF 22
ENDMDL
MODEL 9
REMARK VINA RESULT:      -5.9      1.321      2.671
REMARK  22 active torsions:
REMARK  status: ('A' for Active; 'I' for Inactive)
REMARK    1  A    between atoms: C_2  and  C_3 
REMARK    2  A    between atoms: C_3  and  C_4 
REMARK    3  A    between atoms: C_4  and  C_5 
REMARK    4  A    between atoms: C_5  and  C_6 
REMARK    5  A    between atoms: C_6  and  C_7 
REMARK    6  A    between atoms: C_7  and  C_8 
REMARK    7  A    between atoms: C_8  and  C_9 
REMARK    8  A    between atoms: C_10  and  C_11 
REMARK    9  A    between atoms: C_11  and  C_12 
REMARK   10  A    between atoms: C_12  and  C_13 
REMARK   11  A    between atoms: C_13  and  C_14 
REMARK   12  A    between atoms: C_14  and  C_15 
REMARK   13  A    between atoms: C_15  and  C_16 
REMARK   14  A    between atoms: C_16  and  C_17 
REMARK   15  A    between atoms: C_17  and  C_18 
REMARK   16  A    between atoms: C_18  and  O_19 
REMARK   17  A    between atoms: O_19  and  C_20 
REMARK   18  A    between atoms: C_20  and  C_21 
REMARK   19  A    between atoms: C_21  and  O_22 
REMARK   20  A    between atoms: O_22  and  C_23 
REMARK   21  A    between atoms: C_23  and  C_24 
REMARK   22  A    between atoms: C_24  and  O_25 
ROOT
HETATM    1  C   UNL     1     -22.030  -6.130  -2.132  1.00  0.00     0.000 C 
ENDROOT
BRANCH   1   2
HETATM    2  C   UNL     1     -21.944  -7.523  -1.520  1.00  0.00     0.004 C 
BRANCH   2   3
HETATM    3  C   UNL     1     -22.350  -7.504  -0.049  1.00  0.00     0.027 C 
BRANCH   3   4
HETATM    4  C   UNL     1     -23.054  -8.761   0.325  1.00  0.00    -0.031 C 
HETATM    5  C   UNL     1     -23.010  -9.859  -0.438  1.00  0.00    -0.031 C 
BRANCH   5   6
HETATM    6  C   UNL     1     -23.707 -11.121  -0.062  1.00  0.00     0.027 C 
BRANCH   6   7
HETATM    7  C   UNL     1     -22.690 -12.186   0.320  1.00  0.00     0.004 C 
BRANCH   7   8
HETATM    8  C   UNL     1     -23.323 -13.188   1.276  1.00  0.00     0.000 C 
BRANCH   8   9
HETATM    9  C   UNL     1     -22.379 -14.353   1.525  1.00  0.00     0.000 C 
BRANCH   9  10
HETATM   10  C   UNL     1     -22.912 -15.237   2.643  1.00  0.00     0.000 C 
BRANCH  10  11
HETATM   11  C   UNL     1     -24.160 -14.617   3.259  1.00  0.00    -0.000 C 
BRANCH  11  12
HETATM   12  C   UNL     1     -25.115 -15.698   3.751  1.00  0.00    -0.005 C 
HETATM   13  C   UNL     1     -25.541 -16.598   2.607  1.00  0.00     0.005 C 
ENDBRANCH  11  12
ENDBRANCH  10  11
ENDBRANCH   9  10
ENDBRANCH   8   9
ENDBRANCH   7   8
ENDBRANCH   6   7
ENDBRANCH   5   6
ENDBRANCH   3   4
ENDBRANCH   2   3
ENDBRANCH   1   2
BRANCH   1  14
HETATM   14  C   UNL     1     -21.275  -6.057  -3.454  1.00  0.00     0.000 C 
BRANCH  14  15
HETATM   15  C   UNL     1     -21.897  -6.972  -4.490  1.00  0.00     0.000 C 
BRANCH  15  16
HETATM   16  C   UNL     1     -21.431  -6.562  -5.883  1.00  0.00     0.002 C 
BRANCH  16  17
HETATM   17  C   UNL     1     -20.652  -5.268  -5.837  1.00  0.00     0.026 C 
BRANCH  17  18
HETATM   18  C   UNL     1     -21.269  -4.258  -6.801  1.00  0.00     0.167 C 
BRANCH  18  19
HETATM   19  O   UNL     1     -21.547  -4.938  -8.018  1.00  0.00    -0.389 OA
BRANCH  19  20
HETATM   20  C   UNL     1     -21.108  -4.158  -9.122  1.00  0.00     0.193 C 
BRANCH  20  21
HETATM   21  C   UNL     1     -21.967  -4.472 -10.330  1.00  0.00     0.193 C 
BRANCH  21  22
HETATM   22  O   UNL     1     -22.242  -3.260 -11.030  1.00  0.00    -0.387 OA
BRANCH  22  23
HETATM   23  C   UNL     1     -23.651  -3.072 -11.161  1.00  0.00     0.193 C 
BRANCH  23  24
HETATM   24  C   UNL     1     -24.067  -3.458 -12.575  1.00  0.00     0.190 C 
BRANCH  24  25
HETATM   25  O   UNL     1     -24.686  -2.358 -13.240  1.00  0.00    -0.399 OA
HETATM   26  H   UNL     1     -24.292  -2.350 -14.134  1.00  0.00     0.209 HD
ENDBRANCH  24  25
ENDBRANCH  23  24
ENDBRANCH  22  23
ENDBRANCH  21  22
ENDBRANCH  20  21
ENDBRANCH  19  20
ENDBRANCH  18  19
ENDBRANCH  17  18
ENDBRANCH  16  17
ENDBRANCH  15  16
ENDBRANCH  14  15
ENDBRANCH   1  14
TORSDOF 22
ENDMDL
