MODEL 1
REMARK VINA RESULT:      -3.4      0.000      0.000
REMARK  0 active torsions:
REMARK  status: ('A' for Active; 'I' for Inactive)
ROOT
HETATM    1  C   UNL     1     -25.347  -6.928 -15.866  1.00  0.00     0.347 C 
HETATM    2  O   UNL     1     -25.130  -5.734 -15.893  1.00  0.00    -0.616 OA
HETATM    3  O   UNL     1     -26.372  -7.424 -15.392  1.00  0.00    -0.616 OA
HETATM    4  O   UNL     1     -24.552  -7.837 -16.049  1.00  0.00    -0.616 OA
ENDROOT
TORSDOF 0
ENDMDL
MODEL 2
REMARK VINA RESULT:      -3.4      1.026      2.143
REMARK  0 active torsions:
REMARK  status: ('A' for Active; 'I' for Inactive)
ROOT
HETATM    1  C   UNL     1     -25.909  -6.407 -16.029  1.00  0.00     0.347 C 
HETATM    2  O   UNL     1     -26.270  -7.420 -15.464  1.00  0.00    -0.616 OA
HETATM    3  O   UNL     1     -25.049  -5.646 -15.581  1.00  0.00    -0.616 OA
HETATM    4  O   UNL     1     -26.459  -5.832 -16.956  1.00  0.00    -0.616 OA
ENDROOT
TORSDOF 0
ENDMDL
MODEL 3
REMARK VINA RESULT:      -3.3      9.493     10.066
REMARK  0 active torsions:
REMARK  status: ('A' for Active; 'I' for Inactive)
ROOT
HETATM    1  C   UNL     1     -30.380 -14.556 -19.824  1.00  0.00     0.347 C 
HETATM    2  O   UNL     1     -29.663 -15.527 -19.697  1.00  0.00    -0.616 OA
HETATM    3  O   UNL     1     -30.943 -14.258 -20.879  1.00  0.00    -0.616 OA
HETATM    4  O   UNL     1     -30.482 -13.599 -19.071  1.00  0.00    -0.616 OA
ENDROOT
TORSDOF 0
ENDMDL
MODEL 4
REMARK VINA RESULT:      -3.1      5.498      5.865
REMARK  0 active torsions:
REMARK  status: ('A' for Active; 'I' for Inactive)
ROOT
HETATM    1  C   UNL     1     -23.800  -1.607 -14.714  1.00  0.00     0.347 C 
HETATM    2  O   UNL     1     -22.871  -2.062 -15.350  1.00  0.00    -0.616 OA
HETATM    3  O   UNL     1     -24.317  -2.184 -13.755  1.00  0.00    -0.616 OA
HETATM    4  O   UNL     1     -24.532  -0.678 -15.021  1.00  0.00    -0.616 OA
ENDROOT
TORSDOF 0
ENDMDL
MODEL 5
REMARK VINA RESULT:      -3.0      5.166      5.293
REMARK  0 active torsions:
REMARK  status: ('A' for Active; 'I' for Inactive)
ROOT
HETATM    1  C   UNL     1     -23.028  -2.559 -14.440  1.00  0.00     0.347 C 
HETATM    2  O   UNL     1     -22.815  -3.043 -13.346  1.00  0.00    -0.616 OA
HETATM    3  O   UNL     1     -24.001  -1.846 -14.691  1.00  0.00    -0.616 OA
HETATM    4  O   UNL     1     -22.510  -2.860 -15.504  1.00  0.00    -0.616 OA
ENDROOT
TORSDOF 0
ENDMDL
MODEL 6
REMARK VINA RESULT:      -2.9      5.160      5.779
REMARK  0 active torsions:
REMARK  status: ('A' for Active; 'I' for Inactive)
ROOT
HETATM    1  C   UNL     1     -24.247  -3.002 -12.037  1.00  0.00     0.347 C 
HETATM    2  O   UNL     1     -23.090  -2.633 -12.022  1.00  0.00    -0.616 OA
HETATM    3  O   UNL     1     -24.950  -3.000 -13.050  1.00  0.00    -0.616 OA
HETATM    4  O   UNL     1     -24.984  -3.192 -11.081  1.00  0.00    -0.616 OA
ENDROOT
TORSDOF 0
ENDMDL
MODEL 7
REMARK VINA RESULT:      -2.9      5.137      5.874
REMARK  0 active torsions:
REMARK  status: ('A' for Active; 'I' for Inactive)
ROOT
HETATM    1  C   UNL     1     -24.406  -3.056 -11.972  1.00  0.00     0.347 C 
HETATM    2  O   UNL     1     -25.003  -3.229 -10.928  1.00  0.00    -0.616 OA
HETATM    3  O   UNL     1     -23.245  -2.648 -12.033  1.00  0.00    -0.616 OA
HETATM    4  O   UNL     1     -24.873  -3.005 -13.099  1.00  0.00    -0.616 OA
ENDROOT
TORSDOF 0
ENDMDL
MODEL 8
REMARK VINA RESULT:      -2.9      6.227      6.570
REMARK  0 active torsions:
REMARK  status: ('A' for Active; 'I' for Inactive)
ROOT
HETATM    1  C   UNL     1     -24.618  -3.555 -10.421  1.00  0.00     0.347 C 
HETATM    2  O   UNL     1     -24.074  -4.594 -10.107  1.00  0.00    -0.616 OA
HETATM    3  O   UNL     1     -25.626  -3.117  -9.864  1.00  0.00    -0.616 OA
HETATM    4  O   UNL     1     -24.451  -2.904 -11.442  1.00  0.00    -0.616 OA
ENDROOT
TORSDOF 0
ENDMDL
MODEL 9
REMARK VINA RESULT:      -2.7     16.062     16.674
REMARK  0 active torsions:
REMARK  status: ('A' for Active; 'I' for Inactive)
ROOT
HETATM    1  C   UNL     1     -26.654   8.594 -21.430  1.00  0.00     0.347 C 
HETATM    2  O   UNL     1     -25.489   8.595 -21.089  1.00  0.00    -0.616 OA
HETATM    3  O   UNL     1     -27.343   9.613 -21.505  1.00  0.00    -0.616 OA
HETATM    4  O   UNL     1     -27.408   7.636 -21.513  1.00  0.00    -0.616 OA
ENDROOT
TORSDOF 0
ENDMDL
