MODEL 1
REMARK VINA RESULT:      -6.0      0.000      0.000
REMARK  2 active torsions:
REMARK  status: ('A' for Active; 'I' for Inactive)
REMARK    1  A    between atoms: C_3  and  C_9 
REMARK    2  A    between atoms: C_9  and  O_10 
ROOT
HETATM    1  C   UNL     1     -24.160  -2.982 -12.177  1.00  0.00     0.024 A 
HETATM    2  C   UNL     1     -24.153  -3.325 -10.821  1.00  0.00     0.012 A 
HETATM    3  C   UNL     1     -22.975  -3.772 -10.193  1.00  0.00    -0.013 A 
HETATM    4  C   UNL     1     -21.815  -3.907 -10.982  1.00  0.00     0.044 A 
HETATM    5  C   UNL     1     -21.825  -3.573 -12.336  1.00  0.00     0.048 A 
HETATM    6  C   UNL     1     -22.991  -3.105 -12.927  1.00  0.00     0.035 A 
HETATM    7 CL   UNL     1     -23.000  -2.686 -14.596  1.00  0.00    -0.084 Cl
HETATM    8 CL   UNL     1     -20.327  -4.487 -10.319  1.00  0.00    -0.084 Cl
ENDROOT
BRANCH   3   9
HETATM    9  C   UNL     1     -22.969  -4.152  -8.732  1.00  0.00     0.204 C 
BRANCH   9  10
HETATM   10  O   UNL     1     -24.250  -3.992  -8.131  1.00  0.00    -0.396 OA
HETATM   11  H   UNL     1     -24.504  -4.861  -7.779  1.00  0.00     0.209 HD
ENDBRANCH   9  10
ENDBRANCH   3   9
TORSDOF 2
ENDMDL
MODEL 2
REMARK VINA RESULT:      -6.0      2.749      4.542
REMARK  2 active torsions:
REMARK  status: ('A' for Active; 'I' for Inactive)
REMARK    1  A    between atoms: C_3  and  C_9 
REMARK    2  A    between atoms: C_9  and  O_10 
ROOT
HETATM    1  C   UNL     1     -20.174  -4.455 -10.151  1.00  0.00     0.024 A 
HETATM    2  C   UNL     1     -20.821  -3.912 -11.267  1.00  0.00     0.012 A 
HETATM    3  C   UNL     1     -22.165  -3.502 -11.197  1.00  0.00    -0.013 A 
HETATM    4  C   UNL     1     -22.854  -3.698  -9.982  1.00  0.00     0.044 A 
HETATM    5  C   UNL     1     -22.211  -4.247  -8.873  1.00  0.00     0.048 A 
HETATM    6  C   UNL     1     -20.875  -4.616  -8.956  1.00  0.00     0.035 A 
HETATM    7 CL   UNL     1     -20.082  -5.286  -7.585  1.00  0.00    -0.084 Cl
HETATM    8 CL   UNL     1     -24.519  -3.267  -9.801  1.00  0.00    -0.084 Cl
ENDROOT
BRANCH   3   9
HETATM    9  C   UNL     1     -22.867  -2.925 -12.402  1.00  0.00     0.204 C 
BRANCH   9  10
HETATM   10  O   UNL     1     -22.216  -3.278 -13.619  1.00  0.00    -0.396 OA
HETATM   11  H   UNL     1     -21.426  -3.787 -13.376  1.00  0.00     0.209 HD
ENDBRANCH   9  10
ENDBRANCH   3   9
TORSDOF 2
ENDMDL
MODEL 3
REMARK VINA RESULT:      -5.9      1.867      3.911
REMARK  2 active torsions:
REMARK  status: ('A' for Active; 'I' for Inactive)
REMARK    1  A    between atoms: C_3  and  C_9 
REMARK    2  A    between atoms: C_9  and  O_10 
ROOT
HETATM    1  C   UNL     1     -22.203  -4.407  -7.725  1.00  0.00     0.024 A 
HETATM    2  C   UNL     1     -23.353  -4.055  -8.439  1.00  0.00     0.012 A 
HETATM    3  C   UNL     1     -23.297  -3.794  -9.821  1.00  0.00    -0.013 A 
HETATM    4  C   UNL     1     -22.038  -3.852 -10.454  1.00  0.00     0.044 A 
HETATM    5  C   UNL     1     -20.891  -4.196  -9.740  1.00  0.00     0.048 A 
HETATM    6  C   UNL     1     -20.976  -4.479  -8.383  1.00  0.00     0.035 A 
HETATM    7 CL   UNL     1     -19.560  -4.909  -7.506  1.00  0.00    -0.084 Cl
HETATM    8 CL   UNL     1     -21.852  -3.509 -12.139  1.00  0.00    -0.084 Cl
ENDROOT
BRANCH   3   9
HETATM    9  C   UNL     1     -24.536  -3.405 -10.590  1.00  0.00     0.204 C 
BRANCH   9  10
HETATM   10  O   UNL     1     -25.677  -3.294  -9.746  1.00  0.00    -0.396 OA
HETATM   11  H   UNL     1     -26.450  -3.220 -10.330  1.00  0.00     0.209 HD
ENDBRANCH   9  10
ENDBRANCH   3   9
TORSDOF 2
ENDMDL
MODEL 4
REMARK VINA RESULT:      -5.7      2.397      3.850
REMARK  2 active torsions:
REMARK  status: ('A' for Active; 'I' for Inactive)
REMARK    1  A    between atoms: C_3  and  C_9 
REMARK    2  A    between atoms: C_9  and  O_10 
ROOT
HETATM    1  C   UNL     1     -24.408  -3.718  -9.471  1.00  0.00     0.024 A 
HETATM    2  C   UNL     1     -24.365  -3.303 -10.807  1.00  0.00     0.012 A 
HETATM    3  C   UNL     1     -23.143  -3.211 -11.499  1.00  0.00    -0.013 A 
HETATM    4  C   UNL     1     -21.959  -3.505 -10.791  1.00  0.00     0.044 A 
HETATM    5  C   UNL     1     -22.002  -3.910  -9.457  1.00  0.00     0.048 A 
HETATM    6  C   UNL     1     -23.222  -4.024  -8.805  1.00  0.00     0.035 A 
HETATM    7 CL   UNL     1     -23.273  -4.531  -7.162  1.00  0.00    -0.084 Cl
HETATM    8 CL   UNL     1     -20.402  -3.383 -11.534  1.00  0.00    -0.084 Cl
ENDROOT
BRANCH   3   9
HETATM    9  C   UNL     1     -23.095  -2.754 -12.936  1.00  0.00     0.204 C 
BRANCH   9  10
HETATM   10  O   UNL     1     -24.323  -2.166 -13.353  1.00  0.00    -0.396 OA
HETATM   11  H   UNL     1     -24.661  -2.712 -14.082  1.00  0.00     0.209 HD
ENDBRANCH   9  10
ENDBRANCH   3   9
TORSDOF 2
ENDMDL
MODEL 5
REMARK VINA RESULT:      -5.7      1.819      2.375
REMARK  2 active torsions:
REMARK  status: ('A' for Active; 'I' for Inactive)
REMARK    1  A    between atoms: C_3  and  C_9 
REMARK    2  A    between atoms: C_9  and  O_10 
ROOT
HETATM    1  C   UNL     1     -21.560  -3.702 -12.115  1.00  0.00     0.024 A 
HETATM    2  C   UNL     1     -21.512  -4.065 -10.765  1.00  0.00     0.012 A 
HETATM    3  C   UNL     1     -22.651  -3.962  -9.945  1.00  0.00    -0.013 A 
HETATM    4  C   UNL     1     -23.830  -3.438 -10.515  1.00  0.00     0.044 A 
HETATM    5  C   UNL     1     -23.875  -3.068 -11.859  1.00  0.00     0.048 A 
HETATM    6  C   UNL     1     -22.747  -3.208 -12.656  1.00  0.00     0.035 A 
HETATM    7 CL   UNL     1     -22.806  -2.758 -14.315  1.00  0.00    -0.084 Cl
HETATM    8 CL   UNL     1     -25.274  -3.231  -9.586  1.00  0.00    -0.084 Cl
ENDROOT
BRANCH   3   9
HETATM    9  C   UNL     1     -22.598  -4.345  -8.486  1.00  0.00     0.204 C 
BRANCH   9  10
HETATM   10  O   UNL     1     -22.162  -3.266  -7.665  1.00  0.00    -0.396 OA
HETATM   11  H   UNL     1     -21.968  -3.641  -6.790  1.00  0.00     0.209 HD
ENDBRANCH   9  10
ENDBRANCH   3   9
TORSDOF 2
ENDMDL
MODEL 6
REMARK VINA RESULT:      -5.5      2.479      3.096
REMARK  2 active torsions:
REMARK  status: ('A' for Active; 'I' for Inactive)
REMARK    1  A    between atoms: C_3  and  C_9 
REMARK    2  A    between atoms: C_9  and  O_10 
ROOT
HETATM    1  C   UNL     1     -21.567  -3.519 -11.513  1.00  0.00     0.024 A 
HETATM    2  C   UNL     1     -20.605  -3.916 -10.578  1.00  0.00     0.012 A 
HETATM    3  C   UNL     1     -20.965  -4.224  -9.253  1.00  0.00    -0.013 A 
HETATM    4  C   UNL     1     -22.318  -4.075  -8.885  1.00  0.00     0.044 A 
HETATM    5  C   UNL     1     -23.275  -3.671  -9.815  1.00  0.00     0.048 A 
HETATM    6  C   UNL     1     -22.901  -3.402 -11.125  1.00  0.00     0.035 A 
HETATM    7 CL   UNL     1     -24.085  -2.911 -12.272  1.00  0.00    -0.084 Cl
HETATM    8 CL   UNL     1     -22.860  -4.388  -7.272  1.00  0.00    -0.084 Cl
ENDROOT
BRANCH   3   9
HETATM    9  C   UNL     1     -19.927  -4.643  -8.242  1.00  0.00     0.204 C 
BRANCH   9  10
HETATM   10  O   UNL     1     -20.058  -6.013  -7.876  1.00  0.00    -0.396 OA
HETATM   11  H   UNL     1     -19.166  -6.331  -7.658  1.00  0.00     0.209 HD
ENDBRANCH   9  10
ENDBRANCH   3   9
TORSDOF 2
ENDMDL
MODEL 7
REMARK VINA RESULT:      -5.2      7.979     10.454
REMARK  2 active torsions:
REMARK  status: ('A' for Active; 'I' for Inactive)
REMARK    1  A    between atoms: C_3  and  C_9 
REMARK    2  A    between atoms: C_9  and  O_10 
ROOT
HETATM    1  C   UNL     1     -22.266  -6.837  -0.773  1.00  0.00     0.024 A 
HETATM    2  C   UNL     1     -22.268  -6.293  -2.062  1.00  0.00     0.012 A 
HETATM    3  C   UNL     1     -21.477  -6.849  -3.085  1.00  0.00    -0.013 A 
HETATM    4  C   UNL     1     -20.647  -7.942  -2.759  1.00  0.00     0.044 A 
HETATM    5  C   UNL     1     -20.640  -8.479  -1.472  1.00  0.00     0.048 A 
HETATM    6  C   UNL     1     -21.452  -7.933  -0.487  1.00  0.00     0.035 A 
HETATM    7 CL   UNL     1     -21.446  -8.600   1.099  1.00  0.00    -0.084 Cl
HETATM    8 CL   UNL     1     -19.606  -8.673  -3.930  1.00  0.00    -0.084 Cl
ENDROOT
BRANCH   3   9
HETATM    9  C   UNL     1     -21.471  -6.257  -4.473  1.00  0.00     0.204 C 
BRANCH   9  10
HETATM   10  O   UNL     1     -22.786  -6.120  -5.002  1.00  0.00    -0.396 OA
HETATM   11  H   UNL     1     -22.912  -6.850  -5.630  1.00  0.00     0.209 HD
ENDBRANCH   9  10
ENDBRANCH   3   9
TORSDOF 2
ENDMDL
MODEL 8
REMARK VINA RESULT:      -5.1      2.925      3.746
REMARK  2 active torsions:
REMARK  status: ('A' for Active; 'I' for Inactive)
REMARK    1  A    between atoms: C_3  and  C_9 
REMARK    2  A    between atoms: C_9  and  O_10 
ROOT
HETATM    1  C   UNL     1     -23.348  -4.158  -7.827  1.00  0.00     0.024 A 
HETATM    2  C   UNL     1     -22.119  -4.580  -7.306  1.00  0.00     0.012 A 
HETATM    3  C   UNL     1     -20.993  -4.730  -8.138  1.00  0.00    -0.013 A 
HETATM    4  C   UNL     1     -21.153  -4.488  -9.517  1.00  0.00     0.044 A 
HETATM    5  C   UNL     1     -22.380  -4.076 -10.037  1.00  0.00     0.048 A 
HETATM    6  C   UNL     1     -23.469  -3.905  -9.193  1.00  0.00     0.035 A 
HETATM    7 CL   UNL     1     -24.979  -3.390  -9.834  1.00  0.00    -0.084 Cl
HETATM    8 CL   UNL     1     -19.845  -4.683 -10.632  1.00  0.00    -0.084 Cl
ENDROOT
BRANCH   3   9
HETATM    9  C   UNL     1     -19.670  -5.194  -7.579  1.00  0.00     0.204 C 
BRANCH   9  10
HETATM   10  O   UNL     1     -19.734  -6.529  -7.088  1.00  0.00    -0.396 OA
HETATM   11  H   UNL     1     -19.193  -6.557  -6.282  1.00  0.00     0.209 HD
ENDBRANCH   9  10
ENDBRANCH   3   9
TORSDOF 2
ENDMDL
MODEL 9
REMARK VINA RESULT:      -5.0      8.895     10.359
REMARK  2 active torsions:
REMARK  status: ('A' for Active; 'I' for Inactive)
REMARK    1  A    between atoms: C_3  and  C_9 
REMARK    2  A    between atoms: C_9  and  O_10 
ROOT
HETATM    1  C   UNL     1     -21.794  -6.282  -2.871  1.00  0.00     0.024 A 
HETATM    2  C   UNL     1     -22.229  -6.481  -1.557  1.00  0.00     0.012 A 
HETATM    3  C   UNL     1     -21.911  -7.661  -0.858  1.00  0.00    -0.013 A 
HETATM    4  C   UNL     1     -21.178  -8.655  -1.540  1.00  0.00     0.044 A 
HETATM    5  C   UNL     1     -20.751  -8.459  -2.853  1.00  0.00     0.048 A 
HETATM    6  C   UNL     1     -21.052  -7.274  -3.511  1.00  0.00     0.035 A 
HETATM    7 CL   UNL     1     -20.518  -7.031  -5.128  1.00  0.00    -0.084 Cl
HETATM    8 CL   UNL     1     -20.769 -10.158  -0.788  1.00  0.00    -0.084 Cl
ENDROOT
BRANCH   3   9
HETATM    9  C   UNL     1     -22.388  -7.881   0.556  1.00  0.00     0.204 C 
BRANCH   9  10
HETATM   10  O   UNL     1     -23.804  -7.779   0.665  1.00  0.00    -0.396 OA
HETATM   11  H   UNL     1     -24.024  -6.837   0.572  1.00  0.00     0.209 HD
ENDBRANCH   9  10
ENDBRANCH   3   9
TORSDOF 2
ENDMDL
