MODEL 1
REMARK VINA RESULT:      -6.6      0.000      0.000
REMARK  17 active torsions:
REMARK  status: ('A' for Active; 'I' for Inactive)
REMARK    1  A    between atoms: C_2  and  C_3 
REMARK    2  A    between atoms: C_3  and  C_4 
REMARK    3  A    between atoms: C_4  and  C_5 
REMARK    4  A    between atoms: C_5  and  C_6 
REMARK    5  A    between atoms: C_6  and  C_7 
REMARK    6  A    between atoms: C_7  and  C_8 
REMARK    7  A    between atoms: C_8  and  C_9 
REMARK    8  A    between atoms: C_9  and  C_10 
REMARK    9  A    between atoms: C_10  and  C_11 
REMARK   10  A    between atoms: C_11  and  C_12 
REMARK   11  A    between atoms: C_12  and  C_13 
REMARK   12  A    between atoms: C_13  and  C_14 
REMARK   13  A    between atoms: C_14  and  C_15 
REMARK   14  A    between atoms: C_15  and  C_16 
REMARK   15  A    between atoms: C_16  and  C_17 
REMARK   16  A    between atoms: C_17  and  C_18 
REMARK   17  A    between atoms: C_18  and  O_20 
ROOT
HETATM    1  C   UNL     1     -20.255  -5.165  -5.661  1.00  0.00     0.000 C 
ENDROOT
BRANCH   1   2
HETATM    2  C   UNL     1     -21.686  -5.614  -5.887  1.00  0.00     0.000 C 
BRANCH   2   3
HETATM    3  C   UNL     1     -22.096  -6.597  -4.806  1.00  0.00     0.000 C 
BRANCH   3   4
HETATM    4  C   UNL     1     -20.863  -7.187  -4.152  1.00  0.00     0.000 C 
BRANCH   4   5
HETATM    5  C   UNL     1     -21.182  -7.602  -2.728  1.00  0.00     0.000 C 
BRANCH   5   6
HETATM    6  C   UNL     1     -22.061  -6.555  -2.071  1.00  0.00     0.000 C 
BRANCH   6   7
HETATM    7  C   UNL     1     -22.396  -6.979  -0.653  1.00  0.00     0.000 C 
BRANCH   7   8
HETATM    8  C   UNL     1     -22.330  -8.492  -0.538  1.00  0.00     0.000 C 
BRANCH   8   9
HETATM    9  C   UNL     1     -23.505  -9.000   0.279  1.00  0.00    -0.000 C 
BRANCH   9  10
HETATM   10  C   UNL     1     -23.806 -10.446  -0.078  1.00  0.00    -0.005 C 
HETATM   11  C   UNL     1     -22.550 -11.133  -0.571  1.00  0.00     0.005 C 
ENDBRANCH   9  10
ENDBRANCH   8   9
ENDBRANCH   7   8
ENDBRANCH   6   7
ENDBRANCH   5   6
ENDBRANCH   4   5
ENDBRANCH   3   4
ENDBRANCH   2   3
ENDBRANCH   1   2
BRANCH   1  12
HETATM   12  C   UNL     1     -19.580  -4.902  -6.993  1.00  0.00     0.000 C 
BRANCH  12  13
HETATM   13  C   UNL     1     -20.539  -4.185  -7.927  1.00  0.00     0.000 C 
BRANCH  13  14
HETATM   14  C   UNL     1     -20.133  -4.417  -9.372  1.00  0.00     0.000 C 
BRANCH  14  15
HETATM   15  C   UNL     1     -21.329  -4.204 -10.292  1.00  0.00     0.001 C 
BRANCH  15  16
HETATM   16  C   UNL     1     -22.622  -4.252  -9.494  1.00  0.00     0.010 C 
BRANCH  16  17
HETATM   17  C   UNL     1     -23.803  -4.716 -10.340  1.00  0.00     0.110 C 
BRANCH  17  18
HETATM   18  C   UNL     1     -24.718  -3.552 -10.646  1.00  0.00     0.139 C 
HETATM   19  O   UNL     1     -24.718  -2.956 -11.720  1.00  0.00    -0.650 OA
BRANCH  18  20
HETATM   20  O   UNL     1     -25.554  -3.189  -9.667  1.00  0.00    -0.776 OA
HETATM   21  H   UNL     1     -25.780  -2.243  -9.595  1.00  0.00     0.167 HD
ENDBRANCH  18  20
ENDBRANCH  17  18
ENDBRANCH  16  17
ENDBRANCH  15  16
ENDBRANCH  14  15
ENDBRANCH  13  14
ENDBRANCH  12  13
ENDBRANCH   1  12
TORSDOF 17
ENDMDL
MODEL 2
REMARK VINA RESULT:      -6.6      1.718      2.370
REMARK  17 active torsions:
REMARK  status: ('A' for Active; 'I' for Inactive)
REMARK    1  A    between atoms: C_2  and  C_3 
REMARK    2  A    between atoms: C_3  and  C_4 
REMARK    3  A    between atoms: C_4  and  C_5 
REMARK    4  A    between atoms: C_5  and  C_6 
REMARK    5  A    between atoms: C_6  and  C_7 
REMARK    6  A    between atoms: C_7  and  C_8 
REMARK    7  A    between atoms: C_8  and  C_9 
REMARK    8  A    between atoms: C_9  and  C_10 
REMARK    9  A    between atoms: C_10  and  C_11 
REMARK   10  A    between atoms: C_11  and  C_12 
REMARK   11  A    between atoms: C_12  and  C_13 
REMARK   12  A    between atoms: C_13  and  C_14 
REMARK   13  A    between atoms: C_14  and  C_15 
REMARK   14  A    between atoms: C_15  and  C_16 
REMARK   15  A    between atoms: C_16  and  C_17 
REMARK   16  A    between atoms: C_17  and  C_18 
REMARK   17  A    between atoms: C_18  and  O_20 
ROOT
HETATM    1  C   UNL     1     -20.849  -3.892  -7.219  1.00  0.00     0.000 C 
ENDROOT
BRANCH   1   2
HETATM    2  C   UNL     1     -20.120  -4.786  -6.233  1.00  0.00     0.000 C 
BRANCH   2   3
HETATM    3  C   UNL     1     -20.712  -6.182  -6.266  1.00  0.00     0.000 C 
BRANCH   3   4
HETATM    4  C   UNL     1     -21.774  -6.317  -5.194  1.00  0.00     0.000 C 
BRANCH   4   5
HETATM    5  C   UNL     1     -21.182  -5.985  -3.837  1.00  0.00     0.000 C 
BRANCH   5   6
HETATM    6  C   UNL     1     -21.649  -6.998  -2.809  1.00  0.00     0.000 C 
BRANCH   6   7
HETATM    7  C   UNL     1     -22.265  -6.281  -1.622  1.00  0.00     0.000 C 
BRANCH   7   8
HETATM    8  C   UNL     1     -22.381  -7.235  -0.447  1.00  0.00     0.000 C 
BRANCH   8   9
HETATM    9  C   UNL     1     -22.152  -8.661  -0.913  1.00  0.00    -0.000 C 
BRANCH   9  10
HETATM   10  C   UNL     1     -21.191  -9.373   0.025  1.00  0.00    -0.005 C 
HETATM   11  C   UNL     1     -21.103  -8.628   1.342  1.00  0.00     0.005 C 
ENDBRANCH   9  10
ENDBRANCH   8   9
ENDBRANCH   7   8
ENDBRANCH   6   7
ENDBRANCH   5   6
ENDBRANCH   4   5
ENDBRANCH   3   4
ENDBRANCH   2   3
ENDBRANCH   1   2
BRANCH   1  12
HETATM   12  C   UNL     1     -21.254  -4.694  -8.441  1.00  0.00     0.000 C 
BRANCH  12  13
HETATM   13  C   UNL     1     -20.258  -4.465  -9.564  1.00  0.00     0.000 C 
BRANCH  13  14
HETATM   14  C   UNL     1     -20.937  -3.769 -10.731  1.00  0.00     0.000 C 
BRANCH  14  15
HETATM   15  C   UNL     1     -22.441  -3.704 -10.498  1.00  0.00     0.001 C 
BRANCH  15  16
HETATM   16  C   UNL     1     -23.186  -4.198 -11.727  1.00  0.00     0.010 C 
BRANCH  16  17
HETATM   17  C   UNL     1     -24.192  -3.173 -12.241  1.00  0.00     0.110 C 
BRANCH  17  18
HETATM   18  C   UNL     1     -23.678  -2.523 -13.505  1.00  0.00     0.139 C 
HETATM   19  O   UNL     1     -22.664  -2.891 -14.091  1.00  0.00    -0.650 OA
BRANCH  18  20
HETATM   20  O   UNL     1     -24.400  -1.497 -13.973  1.00  0.00    -0.776 OA
HETATM   21  H   UNL     1     -24.230  -1.208 -14.889  1.00  0.00     0.167 HD
ENDBRANCH  18  20
ENDBRANCH  17  18
ENDBRANCH  16  17
ENDBRANCH  15  16
ENDBRANCH  14  15
ENDBRANCH  13  14
ENDBRANCH  12  13
ENDBRANCH   1  12
TORSDOF 17
ENDMDL
MODEL 3
REMARK VINA RESULT:      -6.5      1.454      2.507
REMARK  17 active torsions:
REMARK  status: ('A' for Active; 'I' for Inactive)
REMARK    1  A    between atoms: C_2  and  C_3 
REMARK    2  A    between atoms: C_3  and  C_4 
REMARK    3  A    between atoms: C_4  and  C_5 
REMARK    4  A    between atoms: C_5  and  C_6 
REMARK    5  A    between atoms: C_6  and  C_7 
REMARK    6  A    between atoms: C_7  and  C_8 
REMARK    7  A    between atoms: C_8  and  C_9 
REMARK    8  A    between atoms: C_9  and  C_10 
REMARK    9  A    between atoms: C_10  and  C_11 
REMARK   10  A    between atoms: C_11  and  C_12 
REMARK   11  A    between atoms: C_12  and  C_13 
REMARK   12  A    between atoms: C_13  and  C_14 
REMARK   13  A    between atoms: C_14  and  C_15 
REMARK   14  A    between atoms: C_15  and  C_16 
REMARK   15  A    between atoms: C_16  and  C_17 
REMARK   16  A    between atoms: C_17  and  C_18 
REMARK   17  A    between atoms: C_18  and  O_20 
ROOT
HETATM    1  C   UNL     1     -22.454  -4.632  -7.015  1.00  0.00     0.000 C 
ENDROOT
BRANCH   1   2
HETATM    2  C   UNL     1     -21.045  -4.180  -6.683  1.00  0.00     0.000 C 
BRANCH   2   3
HETATM    3  C   UNL     1     -20.469  -5.051  -5.583  1.00  0.00     0.000 C 
BRANCH   3   4
HETATM    4  C   UNL     1     -20.742  -6.510  -5.885  1.00  0.00     0.000 C 
BRANCH   4   5
HETATM    5  C   UNL     1     -21.814  -7.039  -4.950  1.00  0.00     0.000 C 
BRANCH   5   6
HETATM    6  C   UNL     1     -21.277  -8.221  -4.167  1.00  0.00     0.000 C 
BRANCH   6   7
HETATM    7  C   UNL     1     -20.859  -7.773  -2.779  1.00  0.00     0.000 C 
BRANCH   7   8
HETATM    8  C   UNL     1     -21.684  -6.570  -2.355  1.00  0.00     0.000 C 
BRANCH   8   9
HETATM    9  C   UNL     1     -22.325  -6.833  -1.004  1.00  0.00    -0.000 C 
BRANCH   9  10
HETATM   10  C   UNL     1     -22.029  -8.252  -0.549  1.00  0.00    -0.005 C 
HETATM   11  C   UNL     1     -21.729  -8.270   0.936  1.00  0.00     0.005 C 
ENDBRANCH   9  10
ENDBRANCH   8   9
ENDBRANCH   7   8
ENDBRANCH   6   7
ENDBRANCH   5   6
ENDBRANCH   4   5
ENDBRANCH   3   4
ENDBRANCH   2   3
ENDBRANCH   1   2
BRANCH   1  12
HETATM   12  C   UNL     1     -22.736  -4.404  -8.488  1.00  0.00     0.000 C 
BRANCH  12  13
HETATM   13  C   UNL     1     -21.563  -3.689  -9.135  1.00  0.00     0.000 C 
BRANCH  13  14
HETATM   14  C   UNL     1     -20.993  -4.532 -10.262  1.00  0.00     0.000 C 
BRANCH  14  15
HETATM   15  C   UNL     1     -20.696  -3.656 -11.472  1.00  0.00     0.001 C 
BRANCH  15  16
HETATM   16  C   UNL     1     -21.887  -2.763 -11.782  1.00  0.00     0.010 C 
BRANCH  16  17
HETATM   17  C   UNL     1     -22.951  -3.487 -12.601  1.00  0.00     0.110 C 
BRANCH  17  18
HETATM   18  C   UNL     1     -24.327  -2.979 -12.238  1.00  0.00     0.139 C 
HETATM   19  O   UNL     1     -24.852  -3.170 -11.144  1.00  0.00    -0.650 OA
BRANCH  18  20
HETATM   20  O   UNL     1     -24.970  -2.290 -13.188  1.00  0.00    -0.776 OA
HETATM   21  H   UNL     1     -25.483  -1.510 -12.911  1.00  0.00     0.167 HD
ENDBRANCH  18  20
ENDBRANCH  17  18
ENDBRANCH  16  17
ENDBRANCH  15  16
ENDBRANCH  14  15
ENDBRANCH  13  14
ENDBRANCH  12  13
ENDBRANCH   1  12
TORSDOF 17
ENDMDL
MODEL 4
REMARK VINA RESULT:      -6.2      1.364      2.843
REMARK  17 active torsions:
REMARK  status: ('A' for Active; 'I' for Inactive)
REMARK    1  A    between atoms: C_2  and  C_3 
REMARK    2  A    between atoms: C_3  and  C_4 
REMARK    3  A    between atoms: C_4  and  C_5 
REMARK    4  A    between atoms: C_5  and  C_6 
REMARK    5  A    between atoms: C_6  and  C_7 
REMARK    6  A    between atoms: C_7  and  C_8 
REMARK    7  A    between atoms: C_8  and  C_9 
REMARK    8  A    between atoms: C_9  and  C_10 
REMARK    9  A    between atoms: C_10  and  C_11 
REMARK   10  A    between atoms: C_11  and  C_12 
REMARK   11  A    between atoms: C_12  and  C_13 
REMARK   12  A    between atoms: C_13  and  C_14 
REMARK   13  A    between atoms: C_14  and  C_15 
REMARK   14  A    between atoms: C_15  and  C_16 
REMARK   15  A    between atoms: C_16  and  C_17 
REMARK   16  A    between atoms: C_17  and  C_18 
REMARK   17  A    between atoms: C_18  and  O_20 
ROOT
HETATM    1  C   UNL     1     -21.229  -7.413  -4.544  1.00  0.00     0.000 C 
ENDROOT
BRANCH   1   2
HETATM    2  C   UNL     1     -21.197  -7.507  -3.030  1.00  0.00     0.000 C 
BRANCH   2   3
HETATM    3  C   UNL     1     -21.888  -6.300  -2.423  1.00  0.00     0.000 C 
BRANCH   3   4
HETATM    4  C   UNL     1     -22.384  -6.636  -1.032  1.00  0.00     0.000 C 
BRANCH   4   5
HETATM    5  C   UNL     1     -21.892  -8.013  -0.627  1.00  0.00     0.000 C 
BRANCH   5   6
HETATM    6  C   UNL     1     -22.936  -8.701   0.232  1.00  0.00     0.000 C 
BRANCH   6   7
HETATM    7  C   UNL     1     -23.223 -10.086  -0.316  1.00  0.00     0.000 C 
BRANCH   7   8
HETATM    8  C   UNL     1     -21.930 -10.873  -0.433  1.00  0.00     0.000 C 
BRANCH   8   9
HETATM    9  C   UNL     1     -21.929 -12.019   0.562  1.00  0.00    -0.000 C 
BRANCH   9  10
HETATM   10  C   UNL     1     -23.331 -12.587   0.712  1.00  0.00    -0.005 C 
HETATM   11  C   UNL     1     -23.356 -13.627   1.813  1.00  0.00     0.005 C 
ENDBRANCH   9  10
ENDBRANCH   8   9
ENDBRANCH   7   8
ENDBRANCH   6   7
ENDBRANCH   5   6
ENDBRANCH   4   5
ENDBRANCH   3   4
ENDBRANCH   2   3
ENDBRANCH   1   2
BRANCH   1  12
HETATM   12  C   UNL     1     -22.386  -6.536  -4.983  1.00  0.00     0.000 C 
BRANCH  12  13
HETATM   13  C   UNL     1     -21.927  -5.577  -6.067  1.00  0.00     0.000 C 
BRANCH  13  14
HETATM   14  C   UNL     1     -20.678  -6.114  -6.745  1.00  0.00     0.000 C 
BRANCH  14  15
HETATM   15  C   UNL     1     -20.274  -5.202  -7.896  1.00  0.00     0.001 C 
BRANCH  15  16
HETATM   16  C   UNL     1     -21.320  -4.118  -8.100  1.00  0.00     0.010 C 
BRANCH  16  17
HETATM   17  C   UNL     1     -21.930  -4.163  -9.498  1.00  0.00     0.110 C 
BRANCH  17  18
HETATM   18  C   UNL     1     -23.430  -4.324  -9.410  1.00  0.00     0.139 C 
HETATM   19  O   UNL     1     -24.101  -4.891 -10.268  1.00  0.00    -0.650 OA
BRANCH  18  20
HETATM   20  O   UNL     1     -24.014  -3.807  -8.322  1.00  0.00    -0.776 OA
HETATM   21  H   UNL     1     -24.907  -4.125  -8.095  1.00  0.00     0.167 HD
ENDBRANCH  18  20
ENDBRANCH  17  18
ENDBRANCH  16  17
ENDBRANCH  15  16
ENDBRANCH  14  15
ENDBRANCH  13  14
ENDBRANCH  12  13
ENDBRANCH   1  12
TORSDOF 17
ENDMDL
MODEL 5
REMARK VINA RESULT:      -5.9      4.646      9.879
REMARK  17 active torsions:
REMARK  status: ('A' for Active; 'I' for Inactive)
REMARK    1  A    between atoms: C_2  and  C_3 
REMARK    2  A    between atoms: C_3  and  C_4 
REMARK    3  A    between atoms: C_4  and  C_5 
REMARK    4  A    between atoms: C_5  and  C_6 
REMARK    5  A    between atoms: C_6  and  C_7 
REMARK    6  A    between atoms: C_7  and  C_8 
REMARK    7  A    between atoms: C_8  and  C_9 
REMARK    8  A    between atoms: C_9  and  C_10 
REMARK    9  A    between atoms: C_10  and  C_11 
REMARK   10  A    between atoms: C_11  and  C_12 
REMARK   11  A    between atoms: C_12  and  C_13 
REMARK   12  A    between atoms: C_13  and  C_14 
REMARK   13  A    between atoms: C_14  and  C_15 
REMARK   14  A    between atoms: C_15  and  C_16 
REMARK   15  A    between atoms: C_16  and  C_17 
REMARK   16  A    between atoms: C_17  and  C_18 
REMARK   17  A    between atoms: C_18  and  O_20 
ROOT
HETATM    1  C   UNL     1     -22.102  -6.231  -1.570  1.00  0.00     0.000 C 
ENDROOT
BRANCH   1   2
HETATM    2  C   UNL     1     -21.327  -6.949  -2.658  1.00  0.00     0.000 C 
BRANCH   2   3
HETATM    3  C   UNL     1     -21.661  -6.350  -4.011  1.00  0.00     0.000 C 
BRANCH   3   4
HETATM    4  C   UNL     1     -21.181  -7.271  -5.115  1.00  0.00     0.000 C 
BRANCH   4   5
HETATM    5  C   UNL     1     -20.844  -6.461  -6.352  1.00  0.00     0.000 C 
BRANCH   5   6
HETATM    6  C   UNL     1     -20.128  -5.184  -5.953  1.00  0.00     0.000 C 
BRANCH   6   7
HETATM    7  C   UNL     1     -20.069  -4.235  -7.135  1.00  0.00     0.000 C 
BRANCH   7   8
HETATM    8  C   UNL     1     -21.468  -3.761  -7.486  1.00  0.00     0.000 C 
BRANCH   8   9
HETATM    9  C   UNL     1     -21.764  -4.057  -8.946  1.00  0.00    -0.000 C 
BRANCH   9  10
HETATM   10  C   UNL     1     -20.469  -4.293  -9.707  1.00  0.00    -0.005 C 
HETATM   11  C   UNL     1     -20.629  -3.863 -11.151  1.00  0.00     0.005 C 
ENDBRANCH   9  10
ENDBRANCH   8   9
ENDBRANCH   7   8
ENDBRANCH   6   7
ENDBRANCH   5   6
ENDBRANCH   4   5
ENDBRANCH   3   4
ENDBRANCH   2   3
ENDBRANCH   1   2
BRANCH   1  12
HETATM   12  C   UNL     1     -22.557  -7.226  -0.518  1.00  0.00     0.000 C 
BRANCH  12  13
HETATM   13  C   UNL     1     -21.384  -8.081  -0.074  1.00  0.00     0.000 C 
BRANCH  13  14
HETATM   14  C   UNL     1     -21.858  -9.484   0.264  1.00  0.00     0.000 C 
BRANCH  14  15
HETATM   15  C   UNL     1     -23.362  -9.593   0.048  1.00  0.00     0.001 C 
BRANCH  15  16
HETATM   16  C   UNL     1     -23.696 -10.877  -0.693  1.00  0.00     0.010 C 
BRANCH  16  17
HETATM   17  C   UNL     1     -23.635 -12.101   0.216  1.00  0.00     0.110 C 
BRANCH  17  18
HETATM   18  C   UNL     1     -22.662 -13.116  -0.338  1.00  0.00     0.139 C 
HETATM   19  O   UNL     1     -21.721 -12.823  -1.070  1.00  0.00    -0.650 OA
BRANCH  18  20
HETATM   20  O   UNL     1     -22.876 -14.389   0.017  1.00  0.00    -0.776 OA
HETATM   21  H   UNL     1     -23.497 -14.555   0.750  1.00  0.00     0.167 HD
ENDBRANCH  18  20
ENDBRANCH  17  18
ENDBRANCH  16  17
ENDBRANCH  15  16
ENDBRANCH  14  15
ENDBRANCH  13  14
ENDBRANCH  12  13
ENDBRANCH   1  12
TORSDOF 17
ENDMDL
MODEL 6
REMARK VINA RESULT:      -5.9      4.191      9.567
REMARK  17 active torsions:
REMARK  status: ('A' for Active; 'I' for Inactive)
REMARK    1  A    between atoms: C_2  and  C_3 
REMARK    2  A    between atoms: C_3  and  C_4 
REMARK    3  A    between atoms: C_4  and  C_5 
REMARK    4  A    between atoms: C_5  and  C_6 
REMARK    5  A    between atoms: C_6  and  C_7 
REMARK    6  A    between atoms: C_7  and  C_8 
REMARK    7  A    between atoms: C_8  and  C_9 
REMARK    8  A    between atoms: C_9  and  C_10 
REMARK    9  A    between atoms: C_10  and  C_11 
REMARK   10  A    between atoms: C_11  and  C_12 
REMARK   11  A    between atoms: C_12  and  C_13 
REMARK   12  A    between atoms: C_13  and  C_14 
REMARK   13  A    between atoms: C_14  and  C_15 
REMARK   14  A    between atoms: C_15  and  C_16 
REMARK   15  A    between atoms: C_16  and  C_17 
REMARK   16  A    between atoms: C_17  and  C_18 
REMARK   17  A    between atoms: C_18  and  O_20 
ROOT
HETATM    1  C   UNL     1     -22.091  -6.615  -4.271  1.00  0.00     0.000 C 
ENDROOT
BRANCH   1   2
HETATM    2  C   UNL     1     -21.564  -5.908  -5.505  1.00  0.00     0.000 C 
BRANCH   2   3
HETATM    3  C   UNL     1     -20.305  -6.597  -5.997  1.00  0.00     0.000 C 
BRANCH   3   4
HETATM    4  C   UNL     1     -19.726  -5.836  -7.172  1.00  0.00     0.000 C 
BRANCH   4   5
HETATM    5  C   UNL     1     -20.552  -4.590  -7.437  1.00  0.00     0.000 C 
BRANCH   5   6
HETATM    6  C   UNL     1     -19.930  -3.790  -8.566  1.00  0.00     0.000 C 
BRANCH   6   7
HETATM    7  C   UNL     1     -20.213  -4.467  -9.894  1.00  0.00     0.000 C 
BRANCH   7   8
HETATM    8  C   UNL     1     -21.179  -3.624 -10.707  1.00  0.00     0.000 C 
BRANCH   8   9
HETATM    9  C   UNL     1     -22.304  -4.494 -11.238  1.00  0.00    -0.000 C 
BRANCH   9  10
HETATM   10  C   UNL     1     -23.276  -4.837 -10.121  1.00  0.00    -0.005 C 
HETATM   11  C   UNL     1     -23.797  -3.568  -9.478  1.00  0.00     0.005 C 
ENDBRANCH   9  10
ENDBRANCH   8   9
ENDBRANCH   7   8
ENDBRANCH   6   7
ENDBRANCH   5   6
ENDBRANCH   4   5
ENDBRANCH   3   4
ENDBRANCH   2   3
ENDBRANCH   1   2
BRANCH   1  12
HETATM   12  C   UNL     1     -21.427  -6.050  -3.029  1.00  0.00     0.000 C 
BRANCH  12  13
HETATM   13  C   UNL     1     -21.282  -7.138  -1.980  1.00  0.00     0.000 C 
BRANCH  13  14
HETATM   14  C   UNL     1     -22.328  -6.959  -0.893  1.00  0.00     0.000 C 
BRANCH  14  15
HETATM   15  C   UNL     1     -22.155  -8.026   0.180  1.00  0.00     0.001 C 
BRANCH  15  16
HETATM   16  C   UNL     1     -23.411  -8.875   0.286  1.00  0.00     0.010 C 
BRANCH  16  17
HETATM   17  C   UNL     1     -23.253 -10.225  -0.406  1.00  0.00     0.110 C 
BRANCH  17  18
HETATM   18  C   UNL     1     -21.841 -10.738  -0.239  1.00  0.00     0.139 C 
HETATM   19  O   UNL     1     -21.436 -11.283   0.784  1.00  0.00    -0.650 OA
BRANCH  18  20
HETATM   20  O   UNL     1     -21.026 -10.568  -1.287  1.00  0.00    -0.776 OA
HETATM   21  H   UNL     1     -20.778 -11.359  -1.798  1.00  0.00     0.167 HD
ENDBRANCH  18  20
ENDBRANCH  17  18
ENDBRANCH  16  17
ENDBRANCH  15  16
ENDBRANCH  14  15
ENDBRANCH  13  14
ENDBRANCH  12  13
ENDBRANCH   1  12
TORSDOF 17
ENDMDL
MODEL 7
REMARK VINA RESULT:      -5.8      1.209      2.351
REMARK  17 active torsions:
REMARK  status: ('A' for Active; 'I' for Inactive)
REMARK    1  A    between atoms: C_2  and  C_3 
REMARK    2  A    between atoms: C_3  and  C_4 
REMARK    3  A    between atoms: C_4  and  C_5 
REMARK    4  A    between atoms: C_5  and  C_6 
REMARK    5  A    between atoms: C_6  and  C_7 
REMARK    6  A    between atoms: C_7  and  C_8 
REMARK    7  A    between atoms: C_8  and  C_9 
REMARK    8  A    between atoms: C_9  and  C_10 
REMARK    9  A    between atoms: C_10  and  C_11 
REMARK   10  A    between atoms: C_11  and  C_12 
REMARK   11  A    between atoms: C_12  and  C_13 
REMARK   12  A    between atoms: C_13  and  C_14 
REMARK   13  A    between atoms: C_14  and  C_15 
REMARK   14  A    between atoms: C_15  and  C_16 
REMARK   15  A    between atoms: C_16  and  C_17 
REMARK   16  A    between atoms: C_17  and  C_18 
REMARK   17  A    between atoms: C_18  and  O_20 
ROOT
HETATM    1  C   UNL     1     -21.982  -6.434  -5.588  1.00  0.00     0.000 C 
ENDROOT
BRANCH   1   2
HETATM    2  C   UNL     1     -21.691  -6.927  -4.183  1.00  0.00     0.000 C 
BRANCH   2   3
HETATM    3  C   UNL     1     -20.458  -7.810  -4.190  1.00  0.00     0.000 C 
BRANCH   3   4
HETATM    4  C   UNL     1     -20.532  -8.807  -3.051  1.00  0.00     0.000 C 
BRANCH   4   5
HETATM    5  C   UNL     1     -21.727  -9.722  -3.243  1.00  0.00     0.000 C 
BRANCH   5   6
HETATM    6  C   UNL     1     -21.750 -10.775  -2.152  1.00  0.00     0.000 C 
BRANCH   6   7
HETATM    7  C   UNL     1     -23.144 -10.874  -1.561  1.00  0.00     0.000 C 
BRANCH   7   8
HETATM    8  C   UNL     1     -23.245  -9.996  -0.326  1.00  0.00     0.000 C 
BRANCH   8   9
HETATM    9  C   UNL     1     -21.878  -9.849   0.317  1.00  0.00    -0.000 C 
BRANCH   9  10
HETATM   10  C   UNL     1     -21.606  -8.391   0.647  1.00  0.00    -0.005 C 
HETATM   11  C   UNL     1     -22.486  -7.494  -0.200  1.00  0.00     0.005 C 
ENDBRANCH   9  10
ENDBRANCH   8   9
ENDBRANCH   7   8
ENDBRANCH   6   7
ENDBRANCH   5   6
ENDBRANCH   4   5
ENDBRANCH   3   4
ENDBRANCH   2   3
ENDBRANCH   1   2
BRANCH   1  12
HETATM   12  C   UNL     1     -20.751  -5.757  -6.162  1.00  0.00     0.000 C 
BRANCH  12  13
HETATM   13  C   UNL     1     -21.148  -4.468  -6.860  1.00  0.00     0.000 C 
BRANCH  13  14
HETATM   14  C   UNL     1     -20.877  -4.575  -8.350  1.00  0.00     0.000 C 
BRANCH  14  15
HETATM   15  C   UNL     1     -21.911  -3.772  -9.129  1.00  0.00     0.001 C 
BRANCH  15  16
HETATM   16  C   UNL     1     -22.922  -4.704  -9.778  1.00  0.00     0.010 C 
BRANCH  16  17
HETATM   17  C   UNL     1     -23.070  -4.442 -11.273  1.00  0.00     0.110 C 
BRANCH  17  18
HETATM   18  C   UNL     1     -23.989  -3.265 -11.510  1.00  0.00     0.139 C 
HETATM   19  O   UNL     1     -25.085  -3.143 -10.970  1.00  0.00    -0.650 OA
BRANCH  18  20
HETATM   20  O   UNL     1     -23.542  -2.332 -12.359  1.00  0.00    -0.776 OA
HETATM   21  H   UNL     1     -22.749  -1.829 -12.099  1.00  0.00     0.167 HD
ENDBRANCH  18  20
ENDBRANCH  17  18
ENDBRANCH  16  17
ENDBRANCH  15  16
ENDBRANCH  14  15
ENDBRANCH  13  14
ENDBRANCH  12  13
ENDBRANCH   1  12
TORSDOF 17
ENDMDL
MODEL 8
REMARK VINA RESULT:      -5.8     13.304     15.634
REMARK  17 active torsions:
REMARK  status: ('A' for Active; 'I' for Inactive)
REMARK    1  A    between atoms: C_2  and  C_3 
REMARK    2  A    between atoms: C_3  and  C_4 
REMARK    3  A    between atoms: C_4  and  C_5 
REMARK    4  A    between atoms: C_5  and  C_6 
REMARK    5  A    between atoms: C_6  and  C_7 
REMARK    6  A    between atoms: C_7  and  C_8 
REMARK    7  A    between atoms: C_8  and  C_9 
REMARK    8  A    between atoms: C_9  and  C_10 
REMARK    9  A    between atoms: C_10  and  C_11 
REMARK   10  A    between atoms: C_11  and  C_12 
REMARK   11  A    between atoms: C_12  and  C_13 
REMARK   12  A    between atoms: C_13  and  C_14 
REMARK   13  A    between atoms: C_14  and  C_15 
REMARK   14  A    between atoms: C_15  and  C_16 
REMARK   15  A    between atoms: C_16  and  C_17 
REMARK   16  A    between atoms: C_17  and  C_18 
REMARK   17  A    between atoms: C_18  and  O_20 
ROOT
HETATM    1  C   UNL     1     -35.137   0.547 -12.860  1.00  0.00     0.000 C 
ENDROOT
BRANCH   1   2
HETATM    2  C   UNL     1     -36.286  -0.312 -12.367  1.00  0.00     0.000 C 
BRANCH   2   3
HETATM    3  C   UNL     1     -36.652   0.080 -10.947  1.00  0.00     0.000 C 
BRANCH   3   4
HETATM    4  C   UNL     1     -36.279  -1.036  -9.993  1.00  0.00     0.000 C 
BRANCH   4   5
HETATM    5  C   UNL     1     -35.768  -2.233 -10.772  1.00  0.00     0.000 C 
BRANCH   5   6
HETATM    6  C   UNL     1     -34.350  -2.560 -10.343  1.00  0.00     0.000 C 
BRANCH   6   7
HETATM    7  C   UNL     1     -33.496  -2.849 -11.563  1.00  0.00     0.000 C 
BRANCH   7   8
HETATM    8  C   UNL     1     -33.074  -4.307 -11.564  1.00  0.00     0.000 C 
BRANCH   8   9
HETATM    9  C   UNL     1     -33.844  -5.069 -10.500  1.00  0.00    -0.000 C 
BRANCH   9  10
HETATM   10  C   UNL     1     -34.578  -6.245 -11.123  1.00  0.00    -0.005 C 
HETATM   11  C   UNL     1     -34.687  -7.379 -10.125  1.00  0.00     0.005 C 
ENDBRANCH   9  10
ENDBRANCH   8   9
ENDBRANCH   7   8
ENDBRANCH   6   7
ENDBRANCH   5   6
ENDBRANCH   4   5
ENDBRANCH   3   4
ENDBRANCH   2   3
ENDBRANCH   1   2
BRANCH   1  12
HETATM   12  C   UNL     1     -35.166   0.627 -14.375  1.00  0.00     0.000 C 
BRANCH  12  13
HETATM   13  C   UNL     1     -36.574   0.368 -14.880  1.00  0.00     0.000 C 
BRANCH  13  14
HETATM   14  C   UNL     1     -36.527  -0.426 -16.174  1.00  0.00     0.000 C 
BRANCH  14  15
HETATM   15  C   UNL     1     -35.112  -0.930 -16.427  1.00  0.00     0.001 C 
BRANCH  15  16
HETATM   16  C   UNL     1     -35.142  -2.384 -16.871  1.00  0.00     0.010 C 
BRANCH  16  17
HETATM   17  C   UNL     1     -34.205  -3.258 -16.043  1.00  0.00     0.110 C 
BRANCH  17  18
HETATM   18  C   UNL     1     -33.092  -3.801 -16.910  1.00  0.00     0.139 C 
HETATM   19  O   UNL     1     -32.428  -3.105 -17.674  1.00  0.00    -0.650 OA
BRANCH  18  20
HETATM   20  O   UNL     1     -32.853  -5.114 -16.807  1.00  0.00    -0.776 OA
HETATM   21  H   UNL     1     -33.042  -5.540 -15.951  1.00  0.00     0.167 HD
ENDBRANCH  18  20
ENDBRANCH  17  18
ENDBRANCH  16  17
ENDBRANCH  15  16
ENDBRANCH  14  15
ENDBRANCH  13  14
ENDBRANCH  12  13
ENDBRANCH   1  12
TORSDOF 17
ENDMDL
MODEL 9
REMARK VINA RESULT:      -5.8     13.267     15.589
REMARK  17 active torsions:
REMARK  status: ('A' for Active; 'I' for Inactive)
REMARK    1  A    between atoms: C_2  and  C_3 
REMARK    2  A    between atoms: C_3  and  C_4 
REMARK    3  A    between atoms: C_4  and  C_5 
REMARK    4  A    between atoms: C_5  and  C_6 
REMARK    5  A    between atoms: C_6  and  C_7 
REMARK    6  A    between atoms: C_7  and  C_8 
REMARK    7  A    between atoms: C_8  and  C_9 
REMARK    8  A    between atoms: C_9  and  C_10 
REMARK    9  A    between atoms: C_10  and  C_11 
REMARK   10  A    between atoms: C_11  and  C_12 
REMARK   11  A    between atoms: C_12  and  C_13 
REMARK   12  A    between atoms: C_13  and  C_14 
REMARK   13  A    between atoms: C_14  and  C_15 
REMARK   14  A    between atoms: C_15  and  C_16 
REMARK   15  A    between atoms: C_16  and  C_17 
REMARK   16  A    between atoms: C_17  and  C_18 
REMARK   17  A    between atoms: C_18  and  O_20 
ROOT
HETATM    1  C   UNL     1     -35.470  -1.108 -16.721  1.00  0.00     0.000 C 
ENDROOT
BRANCH   1   2
HETATM    2  C   UNL     1     -36.122  -0.349 -15.581  1.00  0.00     0.000 C 
BRANCH   2   3
HETATM    3  C   UNL     1     -35.127   0.620 -14.970  1.00  0.00     0.000 C 
BRANCH   3   4
HETATM    4  C   UNL     1     -35.199   0.549 -13.458  1.00  0.00     0.000 C 
BRANCH   4   5
HETATM    5  C   UNL     1     -35.101  -0.895 -13.005  1.00  0.00     0.000 C 
BRANCH   5   6
HETATM    6  C   UNL     1     -35.520  -1.009 -11.552  1.00  0.00     0.000 C 
BRANCH   6   7
HETATM    7  C   UNL     1     -35.000  -2.307 -10.965  1.00  0.00     0.000 C 
BRANCH   7   8
HETATM    8  C   UNL     1     -33.515  -2.445 -11.252  1.00  0.00     0.000 C 
BRANCH   8   9
HETATM    9  C   UNL     1     -33.107  -3.906 -11.179  1.00  0.00    -0.000 C 
BRANCH   9  10
HETATM   10  C   UNL     1     -34.206  -4.726 -10.524  1.00  0.00    -0.005 C 
HETATM   11  C   UNL     1     -34.019  -6.195 -10.844  1.00  0.00     0.005 C 
ENDBRANCH   9  10
ENDBRANCH   8   9
ENDBRANCH   7   8
ENDBRANCH   6   7
ENDBRANCH   5   6
ENDBRANCH   4   5
ENDBRANCH   3   4
ENDBRANCH   2   3
ENDBRANCH   1   2
BRANCH   1  12
HETATM   12  C   UNL     1     -35.041  -2.483 -16.246  1.00  0.00     0.000 C 
BRANCH  12  13
HETATM   13  C   UNL     1     -33.814  -2.937 -17.018  1.00  0.00     0.000 C 
BRANCH  13  14
HETATM   14  C   UNL     1     -33.309  -4.260 -16.466  1.00  0.00     0.000 C 
BRANCH  14  15
HETATM   15  C   UNL     1     -31.843  -4.454 -16.833  1.00  0.00     0.001 C 
BRANCH  15  16
HETATM   16  C   UNL     1     -31.627  -5.837 -17.426  1.00  0.00     0.010 C 
BRANCH  16  17
HETATM   17  C   UNL     1     -30.154  -6.232 -17.443  1.00  0.00     0.110 C 
BRANCH  17  18
HETATM   18  C   UNL     1     -30.005  -7.680 -17.850  1.00  0.00     0.139 C 
HETATM   19  O   UNL     1     -30.539  -8.161 -18.845  1.00  0.00    -0.650 OA
BRANCH  18  20
HETATM   20  O   UNL     1     -29.241  -8.439 -17.054  1.00  0.00    -0.776 OA
HETATM   21  H   UNL     1     -28.279  -8.281 -17.069  1.00  0.00     0.167 HD
ENDBRANCH  18  20
ENDBRANCH  17  18
ENDBRANCH  16  17
ENDBRANCH  15  16
ENDBRANCH  14  15
ENDBRANCH  13  14
ENDBRANCH  12  13
ENDBRANCH   1  12
TORSDOF 17
ENDMDL
