MODEL 1
REMARK VINA RESULT:      -6.4      0.000      0.000
REMARK  6 active torsions:
REMARK  status: ('A' for Active; 'I' for Inactive)
REMARK    1  A    between atoms: C_2  and  C_7 
REMARK    2  A    between atoms: C_7  and  C_8 
REMARK    3  A    between atoms: C_8  and  N_9 
REMARK       I    between atoms: N_9  and  C_10 
REMARK    4  A    between atoms: C_10  and  C_12 
REMARK    5  A    between atoms: C_12  and  C_13 
REMARK    6  A    between atoms: C_13  and  N_14 
ROOT
HETATM    1  C   UNL     1     -22.057  -4.257 -11.889  1.00  0.00     0.128 C 
ENDROOT
BRANCH   1   2
HETATM    2  C   UNL     1     -21.443  -3.548 -10.677  1.00  0.00     0.078 C 
BRANCH   2   3
HETATM    3  C   UNL     1     -22.192  -3.853  -9.398  1.00  0.00     0.027 A 
HETATM    4  C   UNL     1     -23.555  -3.770  -9.170  1.00  0.00     0.114 A 
HETATM    5  N   UNL     1     -23.811  -4.128  -7.898  1.00  0.00    -0.360 N 
HETATM    6  C   UNL     1     -22.606  -4.425  -7.373  1.00  0.00     0.180 A 
ATOM      7  HN  UNL     1     -24.718  -4.166  -7.433  1.00  0.00     0.166 HD
HETATM    8  N   UNL     1     -21.608  -4.268  -8.261  1.00  0.00    -0.355 N 
HETATM    9  H   UNL     1     -20.595  -4.443  -8.091  1.00  0.00     0.166 HD
ENDBRANCH   2   3
ENDBRANCH   1   2
BRANCH   1  10
HETATM   10  N   UNL     1     -21.975  -3.454 -13.095  1.00  0.00    -0.361 N 
HETATM   11  C   UNL     1     -23.108  -3.002 -13.706  1.00  0.00     0.219 C 
HETATM   12  O   UNL     1     -24.205  -3.257 -13.237  1.00  0.00    -0.274 OA
HETATM   13  H   UNL     1     -21.053  -3.224 -13.497  1.00  0.00     0.162 HD
BRANCH  11  14
HETATM   14  C   UNL     1     -23.035  -2.172 -14.965  1.00  0.00     0.132 C 
BRANCH  14  15
HETATM   15  C   UNL     1     -24.022  -0.999 -14.955  1.00  0.00     0.276 C 
BRANCH  15  16
HETATM   16  N   UNL     1     -23.594   0.063 -15.863  1.00  0.00     0.078 N 
HETATM   17  H   UNL     1     -23.822   0.993 -15.443  1.00  0.00     0.312 HD
HETATM   18  H   UNL     1     -24.146  -0.020 -16.747  1.00  0.00     0.312 HD
ENDBRANCH  15  16
ENDBRANCH  14  15
ENDBRANCH  11  14
ENDBRANCH   1  10
TORSDOF 6
ENDMDL
MODEL 2
REMARK VINA RESULT:      -6.0      2.160      6.389
REMARK  6 active torsions:
REMARK  status: ('A' for Active; 'I' for Inactive)
REMARK    1  A    between atoms: C_2  and  C_7 
REMARK    2  A    between atoms: C_7  and  C_8 
REMARK    3  A    between atoms: C_8  and  N_9 
REMARK       I    between atoms: N_9  and  C_10 
REMARK    4  A    between atoms: C_10  and  C_12 
REMARK    5  A    between atoms: C_12  and  C_13 
REMARK    6  A    between atoms: C_13  and  N_14 
ROOT
HETATM    1  C   UNL     1     -23.985  -4.372  -9.639  1.00  0.00     0.128 C 
ENDROOT
BRANCH   1   2
HETATM    2  C   UNL     1     -24.540  -3.254 -10.530  1.00  0.00     0.078 C 
BRANCH   2   3
HETATM    3  C   UNL     1     -23.783  -3.134 -11.834  1.00  0.00     0.027 A 
HETATM    4  C   UNL     1     -22.529  -3.634 -12.138  1.00  0.00     0.114 A 
HETATM    5  N   UNL     1     -22.221  -3.308 -13.408  1.00  0.00    -0.360 N 
HETATM    6  C   UNL     1     -23.290  -2.621 -13.857  1.00  0.00     0.180 A 
ATOM      7  HN  UNL     1     -21.367  -3.532 -13.918  1.00  0.00     0.166 HD
HETATM    8  N   UNL     1     -24.252  -2.502 -12.925  1.00  0.00    -0.355 N 
HETATM    9  H   UNL     1     -25.169  -2.022 -13.039  1.00  0.00     0.166 HD
ENDBRANCH   2   3
ENDBRANCH   1   2
BRANCH   1  10
HETATM   10  N   UNL     1     -23.301  -3.853  -8.469  1.00  0.00    -0.361 N 
HETATM   11  C   UNL     1     -21.973  -4.096  -8.277  1.00  0.00     0.219 C 
HETATM   12  O   UNL     1     -21.340  -4.743  -9.095  1.00  0.00    -0.274 OA
HETATM   13  H   UNL     1     -23.823  -3.297  -7.773  1.00  0.00     0.162 HD
BRANCH  11  14
HETATM   14  C   UNL     1     -21.252  -3.568  -7.060  1.00  0.00     0.132 C 
BRANCH  14  15
HETATM   15  C   UNL     1     -20.625  -4.685  -6.217  1.00  0.00     0.276 C 
BRANCH  15  16
HETATM   16  N   UNL     1     -21.289  -5.965  -6.453  1.00  0.00     0.078 N 
HETATM   17  H   UNL     1     -21.745  -5.952  -7.393  1.00  0.00     0.312 HD
HETATM   18  H   UNL     1     -22.048  -6.075  -5.743  1.00  0.00     0.312 HD
ENDBRANCH  15  16
ENDBRANCH  14  15
ENDBRANCH  11  14
ENDBRANCH   1  10
TORSDOF 6
ENDMDL
MODEL 3
REMARK VINA RESULT:      -6.0      1.429      1.892
REMARK  6 active torsions:
REMARK  status: ('A' for Active; 'I' for Inactive)
REMARK    1  A    between atoms: C_2  and  C_7 
REMARK    2  A    between atoms: C_7  and  C_8 
REMARK    3  A    between atoms: C_8  and  N_9 
REMARK       I    between atoms: N_9  and  C_10 
REMARK    4  A    between atoms: C_10  and  C_12 
REMARK    5  A    between atoms: C_12  and  C_13 
REMARK    6  A    between atoms: C_13  and  N_14 
ROOT
HETATM    1  C   UNL     1     -24.100  -3.264 -10.594  1.00  0.00     0.128 C 
ENDROOT
BRANCH   1   2
HETATM    2  C   UNL     1     -23.636  -4.517  -9.842  1.00  0.00     0.078 C 
BRANCH   2   3
HETATM    3  C   UNL     1     -22.469  -4.232  -8.923  1.00  0.00     0.027 A 
HETATM    4  C   UNL     1     -21.118  -4.306  -9.215  1.00  0.00     0.114 A 
HETATM    5  N   UNL     1     -20.411  -3.972  -8.119  1.00  0.00    -0.360 N 
HETATM    6  C   UNL     1     -21.339  -3.698  -7.180  1.00  0.00     0.180 A 
ATOM      7  HN  UNL     1     -19.397  -3.935  -8.021  1.00  0.00     0.166 HD
HETATM    8  N   UNL     1     -22.594  -3.846  -7.641  1.00  0.00    -0.355 N 
HETATM    9  H   UNL     1     -23.473  -3.684  -7.106  1.00  0.00     0.166 HD
ENDBRANCH   2   3
ENDBRANCH   1   2
BRANCH   1  10
HETATM   10  N   UNL     1     -23.389  -3.081 -11.846  1.00  0.00    -0.361 N 
HETATM   11  C   UNL     1     -24.070  -3.005 -13.025  1.00  0.00     0.219 C 
HETATM   12  O   UNL     1     -25.288  -3.080 -13.040  1.00  0.00    -0.274 OA
HETATM   13  H   UNL     1     -22.360  -3.008 -11.846  1.00  0.00     0.162 HD
BRANCH  11  14
HETATM   14  C   UNL     1     -23.342  -2.822 -14.335  1.00  0.00     0.132 C 
BRANCH  14  15
HETATM   15  C   UNL     1     -23.318  -1.360 -14.796  1.00  0.00     0.276 C 
BRANCH  15  16
HETATM   16  N   UNL     1     -24.602  -0.706 -14.552  1.00  0.00     0.078 N 
HETATM   17  H   UNL     1     -24.774  -0.649 -13.523  1.00  0.00     0.312 HD
HETATM   18  H   UNL     1     -25.357  -1.304 -14.958  1.00  0.00     0.312 HD
ENDBRANCH  15  16
ENDBRANCH  14  15
ENDBRANCH  11  14
ENDBRANCH   1  10
TORSDOF 6
ENDMDL
MODEL 4
REMARK VINA RESULT:      -5.8      2.621      6.300
REMARK  6 active torsions:
REMARK  status: ('A' for Active; 'I' for Inactive)
REMARK    1  A    between atoms: C_2  and  C_7 
REMARK    2  A    between atoms: C_7  and  C_8 
REMARK    3  A    between atoms: C_8  and  N_9 
REMARK       I    between atoms: N_9  and  C_10 
REMARK    4  A    between atoms: C_10  and  C_12 
REMARK    5  A    between atoms: C_12  and  C_13 
REMARK    6  A    between atoms: C_13  and  N_14 
ROOT
HETATM    1  C   UNL     1     -20.473  -4.436 -10.586  1.00  0.00     0.128 C 
ENDROOT
BRANCH   1   2
HETATM    2  C   UNL     1     -20.754  -3.114 -11.309  1.00  0.00     0.078 C 
BRANCH   2   3
HETATM    3  C   UNL     1     -22.097  -3.118 -12.005  1.00  0.00     0.027 A 
HETATM    4  C   UNL     1     -23.351  -2.982 -11.436  1.00  0.00     0.114 A 
HETATM    5  N   UNL     1     -24.283  -3.041 -12.406  1.00  0.00    -0.360 N 
HETATM    6  C   UNL     1     -23.585  -3.207 -13.547  1.00  0.00     0.180 A 
ATOM      7  HN  UNL     1     -25.296  -2.974 -12.300  1.00  0.00     0.166 HD
HETATM    8  N   UNL     1     -22.258  -3.256 -13.333  1.00  0.00    -0.355 N 
HETATM    9  H   UNL     1     -21.518  -3.371 -14.058  1.00  0.00     0.166 HD
ENDBRANCH   2   3
ENDBRANCH   1   2
BRANCH   1  10
HETATM   10  N   UNL     1     -20.186  -4.241  -9.177  1.00  0.00    -0.361 N 
HETATM   11  C   UNL     1     -21.157  -4.432  -8.238  1.00  0.00     0.219 C 
HETATM   12  O   UNL     1     -22.277  -4.780  -8.572  1.00  0.00    -0.274 OA
HETATM   13  H   UNL     1     -19.240  -3.955  -8.880  1.00  0.00     0.162 HD
BRANCH  11  14
HETATM   14  C   UNL     1     -20.872  -4.225  -6.770  1.00  0.00     0.132 C 
BRANCH  14  15
HETATM   15  C   UNL     1     -20.297  -5.478  -6.099  1.00  0.00     0.276 C 
BRANCH  15  16
HETATM   16  N   UNL     1     -20.811  -6.696  -6.721  1.00  0.00     0.078 N 
HETATM   17  H   UNL     1     -20.096  -7.078  -7.381  1.00  0.00     0.312 HD
HETATM   18  H   UNL     1     -21.652  -6.445  -7.288  1.00  0.00     0.312 HD
ENDBRANCH  15  16
ENDBRANCH  14  15
ENDBRANCH  11  14
ENDBRANCH   1  10
TORSDOF 6
ENDMDL
MODEL 5
REMARK VINA RESULT:      -5.7      2.211      3.167
REMARK  6 active torsions:
REMARK  status: ('A' for Active; 'I' for Inactive)
REMARK    1  A    between atoms: C_2  and  C_7 
REMARK    2  A    between atoms: C_7  and  C_8 
REMARK    3  A    between atoms: C_8  and  N_9 
REMARK       I    between atoms: N_9  and  C_10 
REMARK    4  A    between atoms: C_10  and  C_12 
REMARK    5  A    between atoms: C_12  and  C_13 
REMARK    6  A    between atoms: C_13  and  N_14 
ROOT
HETATM    1  C   UNL     1     -23.228  -4.284  -8.995  1.00  0.00     0.128 C 
ENDROOT
BRANCH   1   2
HETATM    2  C   UNL     1     -22.085  -3.749  -8.124  1.00  0.00     0.078 C 
BRANCH   2   3
HETATM    3  C   UNL     1     -21.345  -4.858  -7.410  1.00  0.00     0.027 A 
HETATM    4  C   UNL     1     -20.211  -5.531  -7.829  1.00  0.00     0.114 A 
HETATM    5  N   UNL     1     -19.873  -6.446  -6.900  1.00  0.00    -0.360 N 
HETATM    6  C   UNL     1     -20.801  -6.314  -5.932  1.00  0.00     0.180 A 
ATOM      7  HN  UNL     1     -19.087  -7.096  -6.924  1.00  0.00     0.166 HD
HETATM    8  N   UNL     1     -21.704  -5.359  -6.214  1.00  0.00    -0.355 N 
HETATM    9  H   UNL     1     -22.508  -5.070  -5.617  1.00  0.00     0.166 HD
ENDBRANCH   2   3
ENDBRANCH   1   2
BRANCH   1  10
HETATM   10  N   UNL     1     -23.111  -3.859 -10.377  1.00  0.00    -0.361 N 
HETATM   11  C   UNL     1     -24.188  -3.348 -11.040  1.00  0.00     0.219 C 
HETATM   12  O   UNL     1     -25.261  -3.230 -10.473  1.00  0.00    -0.274 OA
HETATM   13  H   UNL     1     -22.206  -3.946 -10.866  1.00  0.00     0.162 HD
BRANCH  11  14
HETATM   14  C   UNL     1     -24.080  -2.910 -12.480  1.00  0.00     0.132 C 
BRANCH  14  15
HETATM   15  C   UNL     1     -22.646  -2.995 -13.017  1.00  0.00     0.276 C 
BRANCH  15  16
HETATM   16  N   UNL     1     -22.626  -3.014 -14.477  1.00  0.00     0.078 N 
HETATM   17  H   UNL     1     -21.850  -3.631 -14.807  1.00  0.00     0.312 HD
HETATM   18  H   UNL     1     -22.415  -2.047 -14.814  1.00  0.00     0.312 HD
ENDBRANCH  15  16
ENDBRANCH  14  15
ENDBRANCH  11  14
ENDBRANCH   1  10
TORSDOF 6
ENDMDL
MODEL 6
REMARK VINA RESULT:      -5.6      3.954      7.826
REMARK  6 active torsions:
REMARK  status: ('A' for Active; 'I' for Inactive)
REMARK    1  A    between atoms: C_2  and  C_7 
REMARK    2  A    between atoms: C_7  and  C_8 
REMARK    3  A    between atoms: C_8  and  N_9 
REMARK       I    between atoms: N_9  and  C_10 
REMARK    4  A    between atoms: C_10  and  C_12 
REMARK    5  A    between atoms: C_12  and  C_13 
REMARK    6  A    between atoms: C_13  and  N_14 
ROOT
HETATM    1  C   UNL     1     -21.614  -4.063  -7.374  1.00  0.00     0.128 C 
ENDROOT
BRANCH   1   2
HETATM    2  C   UNL     1     -21.700  -4.401  -8.867  1.00  0.00     0.078 C 
BRANCH   2   3
HETATM    3  C   UNL     1     -23.016  -3.969  -9.475  1.00  0.00     0.027 A 
HETATM    4  C   UNL     1     -23.357  -3.919 -10.815  1.00  0.00     0.114 A 
HETATM    5  N   UNL     1     -24.624  -3.479 -10.931  1.00  0.00    -0.360 N 
HETATM    6  C   UNL     1     -25.035  -3.272  -9.664  1.00  0.00     0.180 A 
ATOM      7  HN  UNL     1     -25.156  -3.334 -11.789  1.00  0.00     0.166 HD
HETATM    8  N   UNL     1     -24.081  -3.563  -8.762  1.00  0.00    -0.355 N 
HETATM    9  H   UNL     1     -24.165  -3.490  -7.726  1.00  0.00     0.166 HD
ENDBRANCH   2   3
ENDBRANCH   1   2
BRANCH   1  10
HETATM   10  N   UNL     1     -22.046  -5.166  -6.535  1.00  0.00    -0.361 N 
HETATM   11  C   UNL     1     -21.345  -5.501  -5.414  1.00  0.00     0.219 C 
HETATM   12  O   UNL     1     -20.351  -4.868  -5.097  1.00  0.00    -0.274 OA
HETATM   13  H   UNL     1     -22.889  -5.705  -6.788  1.00  0.00     0.162 HD
BRANCH  11  14
HETATM   14  C   UNL     1     -21.779  -6.651  -4.538  1.00  0.00     0.132 C 
BRANCH  14  15
HETATM   15  C   UNL     1     -21.336  -6.481  -3.080  1.00  0.00     0.276 C 
BRANCH  15  16
HETATM   16  N   UNL     1     -22.403  -5.904  -2.265  1.00  0.00     0.078 N 
HETATM   17  H   UNL     1     -22.210  -6.092  -1.256  1.00  0.00     0.312 HD
HETATM   18  H   UNL     1     -23.297  -6.390  -2.504  1.00  0.00     0.312 HD
ENDBRANCH  15  16
ENDBRANCH  14  15
ENDBRANCH  11  14
ENDBRANCH   1  10
TORSDOF 6
ENDMDL
MODEL 7
REMARK VINA RESULT:      -5.5      1.419      1.850
REMARK  6 active torsions:
REMARK  status: ('A' for Active; 'I' for Inactive)
REMARK    1  A    between atoms: C_2  and  C_7 
REMARK    2  A    between atoms: C_7  and  C_8 
REMARK    3  A    between atoms: C_8  and  N_9 
REMARK       I    between atoms: N_9  and  C_10 
REMARK    4  A    between atoms: C_10  and  C_12 
REMARK    5  A    between atoms: C_12  and  C_13 
REMARK    6  A    between atoms: C_13  and  N_14 
ROOT
HETATM    1  C   UNL     1     -20.662  -4.410 -11.091  1.00  0.00     0.128 C 
ENDROOT
BRANCH   1   2
HETATM    2  C   UNL     1     -20.254  -3.809  -9.742  1.00  0.00     0.078 C 
BRANCH   2   3
HETATM    3  C   UNL     1     -21.191  -4.219  -8.627  1.00  0.00     0.027 A 
HETATM    4  C   UNL     1     -20.950  -5.115  -7.600  1.00  0.00     0.114 A 
HETATM    5  N   UNL     1     -22.045  -5.195  -6.820  1.00  0.00    -0.360 N 
HETATM    6  C   UNL     1     -22.931  -4.348  -7.380  1.00  0.00     0.180 A 
ATOM      7  HN  UNL     1     -22.174  -5.771  -5.989  1.00  0.00     0.166 HD
HETATM    8  N   UNL     1     -22.439  -3.742  -8.475  1.00  0.00    -0.355 N 
HETATM    9  H   UNL     1     -22.932  -3.043  -9.070  1.00  0.00     0.166 HD
ENDBRANCH   2   3
ENDBRANCH   1   2
BRANCH   1  10
HETATM   10  N   UNL     1     -21.336  -3.446 -11.941  1.00  0.00    -0.361 N 
HETATM   11  C   UNL     1     -22.683  -3.520 -12.142  1.00  0.00     0.219 C 
HETATM   12  O   UNL     1     -23.340  -4.393 -11.598  1.00  0.00    -0.274 OA
HETATM   13  H   UNL     1     -20.793  -2.698 -12.400  1.00  0.00     0.162 HD
BRANCH  11  14
HETATM   14  C   UNL     1     -23.394  -2.527 -13.029  1.00  0.00     0.132 C 
BRANCH  14  15
HETATM   15  C   UNL     1     -23.004  -2.672 -14.505  1.00  0.00     0.276 C 
BRANCH  15  16
HETATM   16  N   UNL     1     -23.338  -1.468 -15.262  1.00  0.00     0.078 N 
HETATM   17  H   UNL     1     -23.995  -0.877 -14.705  1.00  0.00     0.312 HD
HETATM   18  H   UNL     1     -23.844  -1.757 -16.130  1.00  0.00     0.312 HD
ENDBRANCH  15  16
ENDBRANCH  14  15
ENDBRANCH  11  14
ENDBRANCH   1  10
TORSDOF 6
ENDMDL
MODEL 8
REMARK VINA RESULT:      -5.2      3.325      3.945
REMARK  6 active torsions:
REMARK  status: ('A' for Active; 'I' for Inactive)
REMARK    1  A    between atoms: C_2  and  C_7 
REMARK    2  A    between atoms: C_7  and  C_8 
REMARK    3  A    between atoms: C_8  and  N_9 
REMARK       I    between atoms: N_9  and  C_10 
REMARK    4  A    between atoms: C_10  and  C_12 
REMARK    5  A    between atoms: C_12  and  C_13 
REMARK    6  A    between atoms: C_13  and  N_14 
ROOT
HETATM    1  C   UNL     1     -20.286  -4.501 -10.010  1.00  0.00     0.128 C 
ENDROOT
BRANCH   1   2
HETATM    2  C   UNL     1     -19.732  -4.077  -8.645  1.00  0.00     0.078 C 
BRANCH   2   3
HETATM    3  C   UNL     1     -20.292  -4.915  -7.516  1.00  0.00     0.027 A 
HETATM    4  C   UNL     1     -21.188  -4.530  -6.535  1.00  0.00     0.114 A 
HETATM    5  N   UNL     1     -21.429  -5.577  -5.722  1.00  0.00    -0.360 N 
HETATM    6  C   UNL     1     -20.680  -6.581  -6.222  1.00  0.00     0.180 A 
ATOM      7  HN  UNL     1     -22.042  -5.604  -4.908  1.00  0.00     0.166 HD
HETATM    8  N   UNL     1     -19.983  -6.208  -7.310  1.00  0.00    -0.355 N 
HETATM    9  H   UNL     1     -19.343  -6.809  -7.871  1.00  0.00     0.166 HD
ENDBRANCH   2   3
ENDBRANCH   1   2
BRANCH   1  10
HETATM   10  N   UNL     1     -21.731  -4.386 -10.075  1.00  0.00    -0.361 N 
HETATM   11  C   UNL     1     -22.317  -3.456 -10.883  1.00  0.00     0.219 C 
HETATM   12  O   UNL     1     -21.631  -2.716 -11.569  1.00  0.00    -0.274 OA
HETATM   13  H   UNL     1     -22.323  -5.012  -9.506  1.00  0.00     0.162 HD
BRANCH  11  14
HETATM   14  C   UNL     1     -23.819  -3.321 -10.954  1.00  0.00     0.132 C 
BRANCH  14  15
HETATM   15  C   UNL     1     -24.479  -3.349  -9.571  1.00  0.00     0.276 C 
BRANCH  15  16
HETATM   16  N   UNL     1     -25.933  -3.448  -9.679  1.00  0.00     0.078 N 
HETATM   17  H   UNL     1     -26.272  -4.246  -9.096  1.00  0.00     0.312 HD
HETATM   18  H   UNL     1     -26.173  -3.667 -10.672  1.00  0.00     0.312 HD
ENDBRANCH  15  16
ENDBRANCH  14  15
ENDBRANCH  11  14
ENDBRANCH   1  10
TORSDOF 6
ENDMDL
MODEL 9
REMARK VINA RESULT:      -5.2      2.010      6.319
REMARK  6 active torsions:
REMARK  status: ('A' for Active; 'I' for Inactive)
REMARK    1  A    between atoms: C_2  and  C_7 
REMARK    2  A    between atoms: C_7  and  C_8 
REMARK    3  A    between atoms: C_8  and  N_9 
REMARK       I    between atoms: N_9  and  C_10 
REMARK    4  A    between atoms: C_10  and  C_12 
REMARK    5  A    between atoms: C_12  and  C_13 
REMARK    6  A    between atoms: C_13  and  N_14 
ROOT
HETATM    1  C   UNL     1     -22.276  -4.129 -11.398  1.00  0.00     0.128 C 
ENDROOT
BRANCH   1   2
HETATM    2  C   UNL     1     -23.378  -3.129 -11.766  1.00  0.00     0.078 C 
BRANCH   2   3
HETATM    3  C   UNL     1     -23.279  -2.674 -13.205  1.00  0.00     0.027 A 
HETATM    4  C   UNL     1     -24.008  -1.681 -13.835  1.00  0.00     0.114 A 
HETATM    5  N   UNL     1     -23.612  -1.590 -15.119  1.00  0.00    -0.360 N 
HETATM    6  C   UNL     1     -22.648  -2.523 -15.249  1.00  0.00     0.180 A 
ATOM      7  HN  UNL     1     -23.963  -0.954 -15.834  1.00  0.00     0.166 HD
HETATM    8  N   UNL     1     -22.425  -3.193 -14.105  1.00  0.00    -0.355 N 
HETATM    9  H   UNL     1     -21.726  -3.952 -13.957  1.00  0.00     0.166 HD
ENDBRANCH   2   3
ENDBRANCH   1   2
BRANCH   1  10
HETATM   10  N   UNL     1     -22.374  -4.573 -10.020  1.00  0.00    -0.361 N 
HETATM   11  C   UNL     1     -21.253  -4.719  -9.257  1.00  0.00     0.219 C 
HETATM   12  O   UNL     1     -20.153  -4.466  -9.722  1.00  0.00    -0.274 OA
HETATM   13  H   UNL     1     -23.299  -4.782  -9.612  1.00  0.00     0.162 HD
BRANCH  11  14
HETATM   14  C   UNL     1     -21.341  -5.187  -7.825  1.00  0.00     0.132 C 
BRANCH  14  15
HETATM   15  C   UNL     1     -22.088  -4.195  -6.926  1.00  0.00     0.276 C 
BRANCH  15  16
HETATM   16  N   UNL     1     -23.519  -4.491  -6.883  1.00  0.00     0.078 N 
HETATM   17  H   UNL     1     -24.026  -3.693  -6.438  1.00  0.00     0.312 HD
HETATM   18  H   UNL     1     -23.662  -5.327  -6.273  1.00  0.00     0.312 HD
ENDBRANCH  15  16
ENDBRANCH  14  15
ENDBRANCH  11  14
ENDBRANCH   1  10
TORSDOF 6
ENDMDL
