MODEL 1
REMARK VINA RESULT:      -7.0      0.000      0.000
REMARK  16 active torsions:
REMARK  status: ('A' for Active; 'I' for Inactive)
REMARK    1  A    between atoms: C_2  and  C_3 
REMARK    2  A    between atoms: C_3  and  C_4 
REMARK    3  A    between atoms: C_4  and  C_5 
REMARK    4  A    between atoms: C_5  and  C_6 
REMARK    5  A    between atoms: C_7  and  C_8 
REMARK    6  A    between atoms: C_8  and  C_9 
REMARK    7  A    between atoms: C_10  and  C_11 
REMARK    8  A    between atoms: C_11  and  C_12 
REMARK    9  A    between atoms: C_12  and  C_13 
REMARK   10  A    between atoms: C_13  and  C_14 
REMARK   11  A    between atoms: C_14  and  C_15 
REMARK   12  A    between atoms: C_15  and  C_16 
REMARK   13  A    between atoms: C_16  and  C_17 
REMARK   14  A    between atoms: C_17  and  C_18 
REMARK   15  A    between atoms: C_18  and  O_20 
REMARK   16  A    between atoms: O_20  and  C_21 
ROOT
HETATM    1  C   UNL     1     -21.397  -7.471  -5.419  1.00  0.00     0.027 C 
ENDROOT
BRANCH   1   2
HETATM    2  C   UNL     1     -21.593  -7.440  -3.934  1.00  0.00    -0.030 C 
HETATM    3  C   UNL     1     -21.989  -6.351  -3.259  1.00  0.00    -0.027 C 
BRANCH   3   4
HETATM    4  C   UNL     1     -22.179  -6.314  -1.772  1.00  0.00     0.053 C 
BRANCH   4   5
HETATM    5  C   UNL     1     -21.543  -7.504  -1.121  1.00  0.00    -0.027 C 
HETATM    6  C   UNL     1     -21.976  -8.050   0.027  1.00  0.00    -0.030 C 
BRANCH   6   7
HETATM    7  C   UNL     1     -21.335  -9.237   0.680  1.00  0.00     0.027 C 
BRANCH   7   8
HETATM    8  C   UNL     1     -21.974 -10.543   0.201  1.00  0.00     0.004 C 
BRANCH   8   9
HETATM    9  C   UNL     1     -23.410 -10.305  -0.264  1.00  0.00    -0.000 C 
BRANCH   9  10
HETATM   10  C   UNL     1     -23.821 -11.309  -1.340  1.00  0.00    -0.005 C 
HETATM   11  C   UNL     1     -23.032 -11.095  -2.621  1.00  0.00     0.005 C 
ENDBRANCH   9  10
ENDBRANCH   8   9
ENDBRANCH   7   8
ENDBRANCH   6   7
ENDBRANCH   4   5
ENDBRANCH   3   4
ENDBRANCH   1   2
BRANCH   1  12
HETATM   12  C   UNL     1     -20.138  -6.707  -5.815  1.00  0.00     0.004 C 
BRANCH  12  13
HETATM   13  C   UNL     1     -20.495  -5.339  -6.389  1.00  0.00     0.000 C 
BRANCH  13  14
HETATM   14  C   UNL     1     -20.876  -5.450  -7.859  1.00  0.00     0.000 C 
BRANCH  14  15
HETATM   15  C   UNL     1     -21.429  -4.128  -8.384  1.00  0.00     0.000 C 
BRANCH  15  16
HETATM   16  C   UNL     1     -22.952  -4.160  -8.372  1.00  0.00     0.010 C 
BRANCH  16  17
HETATM   17  C   UNL     1     -23.524  -4.565  -9.725  1.00  0.00     0.111 C 
BRANCH  17  18
HETATM   18  C   UNL     1     -24.372  -3.453 -10.285  1.00  0.00     0.258 C 
HETATM   19  O   UNL     1     -25.500  -3.167  -9.909  1.00  0.00    -0.265 OA
BRANCH  18  20
HETATM   20  O   UNL     1     -23.724  -2.883 -11.339  1.00  0.00    -0.322 OA
BRANCH  20  21
HETATM   21  C   UNL     1     -24.393  -3.025 -12.598  1.00  0.00     0.174 C 
HETATM   22  C   UNL     1     -23.427  -2.585 -13.684  1.00  0.00     0.034 C 
ENDBRANCH  20  21
ENDBRANCH  18  20
ENDBRANCH  17  18
ENDBRANCH  16  17
ENDBRANCH  15  16
ENDBRANCH  14  15
ENDBRANCH  13  14
ENDBRANCH  12  13
ENDBRANCH   1  12
TORSDOF 16
ENDMDL
MODEL 2
REMARK VINA RESULT:      -6.8      4.189     10.102
REMARK  16 active torsions:
REMARK  status: ('A' for Active; 'I' for Inactive)
REMARK    1  A    between atoms: C_2  and  C_3 
REMARK    2  A    between atoms: C_3  and  C_4 
REMARK    3  A    between atoms: C_4  and  C_5 
REMARK    4  A    between atoms: C_5  and  C_6 
REMARK    5  A    between atoms: C_7  and  C_8 
REMARK    6  A    between atoms: C_8  and  C_9 
REMARK    7  A    between atoms: C_10  and  C_11 
REMARK    8  A    between atoms: C_11  and  C_12 
REMARK    9  A    between atoms: C_12  and  C_13 
REMARK   10  A    between atoms: C_13  and  C_14 
REMARK   11  A    between atoms: C_14  and  C_15 
REMARK   12  A    between atoms: C_15  and  C_16 
REMARK   13  A    between atoms: C_16  and  C_17 
REMARK   14  A    between atoms: C_17  and  C_18 
REMARK   15  A    between atoms: C_18  and  O_20 
REMARK   16  A    between atoms: O_20  and  C_21 
ROOT
HETATM    1  C   UNL     1     -21.353  -7.523  -5.321  1.00  0.00     0.027 C 
ENDROOT
BRANCH   1   2
HETATM    2  C   UNL     1     -20.333  -6.703  -6.052  1.00  0.00    -0.030 C 
HETATM    3  C   UNL     1     -20.619  -5.560  -6.693  1.00  0.00    -0.027 C 
BRANCH   3   4
HETATM    4  C   UNL     1     -19.604  -4.742  -7.433  1.00  0.00     0.053 C 
BRANCH   4   5
HETATM    5  C   UNL     1     -20.200  -4.136  -8.667  1.00  0.00    -0.027 C 
HETATM    6  C   UNL     1     -19.965  -4.587  -9.910  1.00  0.00    -0.030 C 
BRANCH   6   7
HETATM    7  C   UNL     1     -20.557  -3.976 -11.144  1.00  0.00     0.027 C 
BRANCH   7   8
HETATM    8  C   UNL     1     -21.990  -3.503 -10.893  1.00  0.00     0.004 C 
BRANCH   8   9
HETATM    9  C   UNL     1     -22.997  -4.572 -11.314  1.00  0.00    -0.000 C 
BRANCH   9  10
HETATM   10  C   UNL     1     -24.043  -4.813 -10.227  1.00  0.00    -0.005 C 
HETATM   11  C   UNL     1     -23.877  -3.832  -9.078  1.00  0.00     0.005 C 
ENDBRANCH   9  10
ENDBRANCH   8   9
ENDBRANCH   7   8
ENDBRANCH   6   7
ENDBRANCH   4   5
ENDBRANCH   3   4
ENDBRANCH   1   2
BRANCH   1  12
HETATM   12  C   UNL     1     -22.158  -6.654  -4.359  1.00  0.00     0.004 C 
BRANCH  12  13
HETATM   13  C   UNL     1     -21.311  -6.259  -3.152  1.00  0.00     0.000 C 
BRANCH  13  14
HETATM   14  C   UNL     1     -21.438  -7.291  -2.040  1.00  0.00     0.000 C 
BRANCH  14  15
HETATM   15  C   UNL     1     -22.354  -6.791  -0.928  1.00  0.00     0.000 C 
BRANCH  15  16
HETATM   16  C   UNL     1     -22.695  -7.934   0.019  1.00  0.00     0.010 C 
BRANCH  16  17
HETATM   17  C   UNL     1     -21.450  -8.530   0.663  1.00  0.00     0.111 C 
BRANCH  17  18
HETATM   18  C   UNL     1     -21.417 -10.022   0.453  1.00  0.00     0.258 C 
HETATM   19  O   UNL     1     -20.431 -10.732   0.585  1.00  0.00    -0.265 OA
BRANCH  18  20
HETATM   20  O   UNL     1     -22.633 -10.437   0.001  1.00  0.00    -0.322 OA
BRANCH  20  21
HETATM   21  C   UNL     1     -22.580 -11.479  -0.981  1.00  0.00     0.174 C 
HETATM   22  C   UNL     1     -22.587 -10.822  -2.350  1.00  0.00     0.034 C 
ENDBRANCH  20  21
ENDBRANCH  18  20
ENDBRANCH  17  18
ENDBRANCH  16  17
ENDBRANCH  15  16
ENDBRANCH  14  15
ENDBRANCH  13  14
ENDBRANCH  12  13
ENDBRANCH   1  12
TORSDOF 16
ENDMDL
MODEL 3
REMARK VINA RESULT:      -6.7      1.368      2.182
REMARK  16 active torsions:
REMARK  status: ('A' for Active; 'I' for Inactive)
REMARK    1  A    between atoms: C_2  and  C_3 
REMARK    2  A    between atoms: C_3  and  C_4 
REMARK    3  A    between atoms: C_4  and  C_5 
REMARK    4  A    between atoms: C_5  and  C_6 
REMARK    5  A    between atoms: C_7  and  C_8 
REMARK    6  A    between atoms: C_8  and  C_9 
REMARK    7  A    between atoms: C_10  and  C_11 
REMARK    8  A    between atoms: C_11  and  C_12 
REMARK    9  A    between atoms: C_12  and  C_13 
REMARK   10  A    between atoms: C_13  and  C_14 
REMARK   11  A    between atoms: C_14  and  C_15 
REMARK   12  A    between atoms: C_15  and  C_16 
REMARK   13  A    between atoms: C_16  and  C_17 
REMARK   14  A    between atoms: C_17  and  C_18 
REMARK   15  A    between atoms: C_18  and  O_20 
REMARK   16  A    between atoms: O_20  and  C_21 
ROOT
HETATM    1  C   UNL     1     -20.864  -6.569  -5.474  1.00  0.00     0.027 C 
ENDROOT
BRANCH   1   2
HETATM    2  C   UNL     1     -21.236  -6.002  -4.138  1.00  0.00    -0.030 C 
HETATM    3  C   UNL     1     -21.816  -6.716  -3.162  1.00  0.00    -0.027 C 
BRANCH   3   4
HETATM    4  C   UNL     1     -22.197  -6.150  -1.827  1.00  0.00     0.053 C 
BRANCH   4   5
HETATM    5  C   UNL     1     -22.323  -7.235  -0.801  1.00  0.00    -0.027 C 
HETATM    6  C   UNL     1     -21.281  -7.923  -0.308  1.00  0.00    -0.030 C 
BRANCH   6   7
HETATM    7  C   UNL     1     -21.410  -9.014   0.713  1.00  0.00     0.027 C 
BRANCH   7   8
HETATM    8  C   UNL     1     -20.874 -10.341   0.174  1.00  0.00     0.004 C 
BRANCH   8   9
HETATM    9  C   UNL     1     -21.677 -10.795  -1.045  1.00  0.00    -0.000 C 
BRANCH   9  10
HETATM   10  C   UNL     1     -22.701 -11.866  -0.670  1.00  0.00    -0.005 C 
HETATM   11  C   UNL     1     -24.091 -11.270  -0.527  1.00  0.00     0.005 C 
ENDBRANCH   9  10
ENDBRANCH   8   9
ENDBRANCH   7   8
ENDBRANCH   6   7
ENDBRANCH   4   5
ENDBRANCH   3   4
ENDBRANCH   1   2
BRANCH   1  12
HETATM   12  C   UNL     1     -21.221  -5.597  -6.594  1.00  0.00     0.004 C 
BRANCH  12  13
HETATM   13  C   UNL     1     -19.977  -4.864  -7.087  1.00  0.00     0.000 C 
BRANCH  13  14
HETATM   14  C   UNL     1     -20.314  -3.954  -8.262  1.00  0.00     0.000 C 
BRANCH  14  15
HETATM   15  C   UNL     1     -20.187  -4.698  -9.587  1.00  0.00     0.000 C 
BRANCH  15  16
HETATM   16  C   UNL     1     -20.444  -3.743 -10.746  1.00  0.00     0.010 C 
BRANCH  16  17
HETATM   17  C   UNL     1     -21.430  -4.323 -11.752  1.00  0.00     0.111 C 
BRANCH  17  18
HETATM   18  C   UNL     1     -22.511  -3.319 -12.061  1.00  0.00     0.258 C 
HETATM   19  O   UNL     1     -22.727  -2.829 -13.160  1.00  0.00    -0.265 OA
BRANCH  18  20
HETATM   20  O   UNL     1     -23.144  -2.973 -10.906  1.00  0.00    -0.322 OA
BRANCH  20  21
HETATM   21  C   UNL     1     -24.059  -3.958 -10.410  1.00  0.00     0.174 C 
HETATM   22  C   UNL     1     -23.885  -4.032  -8.904  1.00  0.00     0.034 C 
ENDBRANCH  20  21
ENDBRANCH  18  20
ENDBRANCH  17  18
ENDBRANCH  16  17
ENDBRANCH  15  16
ENDBRANCH  14  15
ENDBRANCH  13  14
ENDBRANCH  12  13
ENDBRANCH   1  12
TORSDOF 16
ENDMDL
MODEL 4
REMARK VINA RESULT:      -6.7      4.220     10.478
REMARK  16 active torsions:
REMARK  status: ('A' for Active; 'I' for Inactive)
REMARK    1  A    between atoms: C_2  and  C_3 
REMARK    2  A    between atoms: C_3  and  C_4 
REMARK    3  A    between atoms: C_4  and  C_5 
REMARK    4  A    between atoms: C_5  and  C_6 
REMARK    5  A    between atoms: C_7  and  C_8 
REMARK    6  A    between atoms: C_8  and  C_9 
REMARK    7  A    between atoms: C_10  and  C_11 
REMARK    8  A    between atoms: C_11  and  C_12 
REMARK    9  A    between atoms: C_12  and  C_13 
REMARK   10  A    between atoms: C_13  and  C_14 
REMARK   11  A    between atoms: C_14  and  C_15 
REMARK   12  A    between atoms: C_15  and  C_16 
REMARK   13  A    between atoms: C_16  and  C_17 
REMARK   14  A    between atoms: C_17  and  C_18 
REMARK   15  A    between atoms: C_18  and  O_20 
REMARK   16  A    between atoms: O_20  and  C_21 
ROOT
HETATM    1  C   UNL     1     -20.794  -7.333  -4.850  1.00  0.00     0.027 C 
ENDROOT
BRANCH   1   2
HETATM    2  C   UNL     1     -20.353  -6.585  -6.071  1.00  0.00    -0.030 C 
HETATM    3  C   UNL     1     -20.279  -5.247  -6.136  1.00  0.00    -0.027 C 
BRANCH   3   4
HETATM    4  C   UNL     1     -19.845  -4.493  -7.358  1.00  0.00     0.053 C 
BRANCH   4   5
HETATM    5  C   UNL     1     -21.028  -4.093  -8.187  1.00  0.00    -0.027 C 
HETATM    6  C   UNL     1     -22.302  -4.341  -7.842  1.00  0.00    -0.030 C 
BRANCH   6   7
HETATM    7  C   UNL     1     -23.483  -3.945  -8.676  1.00  0.00     0.027 C 
BRANCH   7   8
HETATM    8  C   UNL     1     -23.270  -4.315 -10.145  1.00  0.00     0.004 C 
BRANCH   8   9
HETATM    9  C   UNL     1     -23.886  -3.262 -11.066  1.00  0.00    -0.000 C 
BRANCH   9  10
HETATM   10  C   UNL     1     -22.867  -2.741 -12.077  1.00  0.00    -0.005 C 
HETATM   11  C   UNL     1     -21.446  -3.043 -11.631  1.00  0.00     0.005 C 
ENDBRANCH   9  10
ENDBRANCH   8   9
ENDBRANCH   7   8
ENDBRANCH   6   7
ENDBRANCH   4   5
ENDBRANCH   3   4
ENDBRANCH   1   2
BRANCH   1  12
HETATM   12  C   UNL     1     -21.926  -6.596  -4.142  1.00  0.00     0.004 C 
BRANCH  12  13
HETATM   13  C   UNL     1     -21.488  -6.140  -2.753  1.00  0.00     0.000 C 
BRANCH  13  14
HETATM   14  C   UNL     1     -21.518  -7.300  -1.767  1.00  0.00     0.000 C 
BRANCH  14  15
HETATM   15  C   UNL     1     -22.408  -6.981  -0.570  1.00  0.00     0.000 C 
BRANCH  15  16
HETATM   16  C   UNL     1     -22.717  -8.256   0.203  1.00  0.00     0.010 C 
BRANCH  16  17
HETATM   17  C   UNL     1     -21.519  -8.736   1.012  1.00  0.00     0.111 C 
BRANCH  17  18
HETATM   18  C   UNL     1     -21.145 -10.139   0.609  1.00  0.00     0.258 C 
HETATM   19  O   UNL     1     -20.180 -10.761   1.029  1.00  0.00    -0.265 OA
BRANCH  18  20
HETATM   20  O   UNL     1     -21.996 -10.567  -0.365  1.00  0.00    -0.322 OA
BRANCH  20  21
HETATM   21  C   UNL     1     -22.209 -11.983  -0.390  1.00  0.00     0.174 C 
HETATM   22  C   UNL     1     -23.509 -12.266   0.340  1.00  0.00     0.034 C 
ENDBRANCH  20  21
ENDBRANCH  18  20
ENDBRANCH  17  18
ENDBRANCH  16  17
ENDBRANCH  15  16
ENDBRANCH  14  15
ENDBRANCH  13  14
ENDBRANCH  12  13
ENDBRANCH   1  12
TORSDOF 16
ENDMDL
MODEL 5
REMARK VINA RESULT:      -6.6      1.254      1.967
REMARK  16 active torsions:
REMARK  status: ('A' for Active; 'I' for Inactive)
REMARK    1  A    between atoms: C_2  and  C_3 
REMARK    2  A    between atoms: C_3  and  C_4 
REMARK    3  A    between atoms: C_4  and  C_5 
REMARK    4  A    between atoms: C_5  and  C_6 
REMARK    5  A    between atoms: C_7  and  C_8 
REMARK    6  A    between atoms: C_8  and  C_9 
REMARK    7  A    between atoms: C_10  and  C_11 
REMARK    8  A    between atoms: C_11  and  C_12 
REMARK    9  A    between atoms: C_12  and  C_13 
REMARK   10  A    between atoms: C_13  and  C_14 
REMARK   11  A    between atoms: C_14  and  C_15 
REMARK   12  A    between atoms: C_15  and  C_16 
REMARK   13  A    between atoms: C_16  and  C_17 
REMARK   14  A    between atoms: C_17  and  C_18 
REMARK   15  A    between atoms: C_18  and  O_20 
REMARK   16  A    between atoms: O_20  and  C_21 
ROOT
HETATM    1  C   UNL     1     -21.184  -6.043  -3.922  1.00  0.00     0.027 C 
ENDROOT
BRANCH   1   2
HETATM    2  C   UNL     1     -21.341  -6.723  -2.596  1.00  0.00    -0.030 C 
HETATM    3  C   UNL     1     -22.274  -6.384  -1.693  1.00  0.00    -0.027 C 
BRANCH   3   4
HETATM    4  C   UNL     1     -22.429  -7.057  -0.362  1.00  0.00     0.053 C 
BRANCH   4   5
HETATM    5  C   UNL     1     -22.280  -8.542  -0.492  1.00  0.00    -0.027 C 
HETATM    6  C   UNL     1     -23.190  -9.426  -0.054  1.00  0.00    -0.030 C 
BRANCH   6   7
HETATM    7  C   UNL     1     -23.036 -10.913  -0.179  1.00  0.00     0.027 C 
BRANCH   7   8
HETATM    8  C   UNL     1     -23.838 -11.453  -1.365  1.00  0.00     0.004 C 
BRANCH   8   9
HETATM    9  C   UNL     1     -22.908 -11.895  -2.493  1.00  0.00    -0.000 C 
BRANCH   9  10
HETATM   10  C   UNL     1     -22.584 -10.736  -3.435  1.00  0.00    -0.005 C 
HETATM   11  C   UNL     1     -21.096 -10.431  -3.439  1.00  0.00     0.005 C 
ENDBRANCH   9  10
ENDBRANCH   8   9
ENDBRANCH   7   8
ENDBRANCH   6   7
ENDBRANCH   4   5
ENDBRANCH   3   4
ENDBRANCH   1   2
BRANCH   1  12
HETATM   12  C   UNL     1     -21.019  -7.068  -5.040  1.00  0.00     0.004 C 
BRANCH  12  13
HETATM   13  C   UNL     1     -20.846  -6.373  -6.388  1.00  0.00     0.000 C 
BRANCH  13  14
HETATM   14  C   UNL     1     -20.071  -5.071  -6.231  1.00  0.00     0.000 C 
BRANCH  14  15
HETATM   15  C   UNL     1     -20.627  -3.986  -7.148  1.00  0.00     0.000 C 
BRANCH  15  16
HETATM   16  C   UNL     1     -21.151  -4.611  -8.434  1.00  0.00     0.010 C 
BRANCH  16  17
HETATM   17  C   UNL     1     -22.539  -4.097  -8.794  1.00  0.00     0.111 C 
BRANCH  17  18
HETATM   18  C   UNL     1     -22.913  -4.533 -10.186  1.00  0.00     0.258 C 
HETATM   19  O   UNL     1     -23.902  -5.190 -10.479  1.00  0.00    -0.265 OA
BRANCH  18  20
HETATM   20  O   UNL     1     -21.928  -4.164 -11.051  1.00  0.00    -0.322 OA
BRANCH  20  21
HETATM   21  C   UNL     1     -22.379  -3.871 -12.379  1.00  0.00     0.174 C 
HETATM   22  C   UNL     1     -23.060  -2.514 -12.345  1.00  0.00     0.034 C 
ENDBRANCH  20  21
ENDBRANCH  18  20
ENDBRANCH  17  18
ENDBRANCH  16  17
ENDBRANCH  15  16
ENDBRANCH  14  15
ENDBRANCH  13  14
ENDBRANCH  12  13
ENDBRANCH   1  12
TORSDOF 16
ENDMDL
MODEL 6
REMARK VINA RESULT:      -6.4      1.647      2.098
REMARK  16 active torsions:
REMARK  status: ('A' for Active; 'I' for Inactive)
REMARK    1  A    between atoms: C_2  and  C_3 
REMARK    2  A    between atoms: C_3  and  C_4 
REMARK    3  A    between atoms: C_4  and  C_5 
REMARK    4  A    between atoms: C_5  and  C_6 
REMARK    5  A    between atoms: C_7  and  C_8 
REMARK    6  A    between atoms: C_8  and  C_9 
REMARK    7  A    between atoms: C_10  and  C_11 
REMARK    8  A    between atoms: C_11  and  C_12 
REMARK    9  A    between atoms: C_12  and  C_13 
REMARK   10  A    between atoms: C_13  and  C_14 
REMARK   11  A    between atoms: C_14  and  C_15 
REMARK   12  A    between atoms: C_15  and  C_16 
REMARK   13  A    between atoms: C_16  and  C_17 
REMARK   14  A    between atoms: C_17  and  C_18 
REMARK   15  A    between atoms: C_18  and  O_20 
REMARK   16  A    between atoms: O_20  and  C_21 
ROOT
HETATM    1  C   UNL     1     -21.220  -5.962  -4.113  1.00  0.00     0.027 C 
ENDROOT
BRANCH   1   2
HETATM    2  C   UNL     1     -21.273  -6.550  -2.735  1.00  0.00    -0.030 C 
HETATM    3  C   UNL     1     -22.330  -6.433  -1.917  1.00  0.00    -0.027 C 
BRANCH   3   4
HETATM    4  C   UNL     1     -22.383  -7.013  -0.535  1.00  0.00     0.053 C 
BRANCH   4   5
HETATM    5  C   UNL     1     -21.712  -8.352  -0.491  1.00  0.00    -0.027 C 
HETATM    6  C   UNL     1     -22.247  -9.438   0.092  1.00  0.00    -0.030 C 
BRANCH   6   7
HETATM    7  C   UNL     1     -21.571 -10.776   0.141  1.00  0.00     0.027 C 
BRANCH   7   8
HETATM    8  C   UNL     1     -22.430 -11.852  -0.524  1.00  0.00     0.004 C 
BRANCH   8   9
HETATM    9  C   UNL     1     -23.614 -12.228   0.365  1.00  0.00    -0.000 C 
BRANCH   9  10
HETATM   10  C   UNL     1     -23.213 -13.255   1.424  1.00  0.00    -0.005 C 
HETATM   11  C   UNL     1     -23.526 -14.669   0.964  1.00  0.00     0.005 C 
ENDBRANCH   9  10
ENDBRANCH   8   9
ENDBRANCH   7   8
ENDBRANCH   6   7
ENDBRANCH   4   5
ENDBRANCH   3   4
ENDBRANCH   1   2
BRANCH   1  12
HETATM   12  C   UNL     1     -21.036  -7.054  -5.161  1.00  0.00     0.004 C 
BRANCH  12  13
HETATM   13  C   UNL     1     -20.021  -6.622  -6.216  1.00  0.00     0.000 C 
BRANCH  13  14
HETATM   14  C   UNL     1     -19.902  -5.104  -6.265  1.00  0.00     0.000 C 
BRANCH  14  15
HETATM   15  C   UNL     1     -20.079  -4.585  -7.688  1.00  0.00     0.000 C 
BRANCH  15  16
HETATM   16  C   UNL     1     -21.468  -4.940  -8.202  1.00  0.00     0.010 C 
BRANCH  16  17
HETATM   17  C   UNL     1     -22.392  -3.730  -8.230  1.00  0.00     0.111 C 
BRANCH  17  18
HETATM   18  C   UNL     1     -23.428  -3.888  -9.312  1.00  0.00     0.258 C 
HETATM   19  O   UNL     1     -24.493  -3.291  -9.363  1.00  0.00    -0.265 OA
BRANCH  18  20
HETATM   20  O   UNL     1     -23.033  -4.870 -10.170  1.00  0.00    -0.322 OA
BRANCH  20  21
HETATM   21  C   UNL     1     -23.206  -4.555 -11.557  1.00  0.00     0.174 C 
HETATM   22  C   UNL     1     -22.043  -3.675 -11.978  1.00  0.00     0.034 C 
ENDBRANCH  20  21
ENDBRANCH  18  20
ENDBRANCH  17  18
ENDBRANCH  16  17
ENDBRANCH  15  16
ENDBRANCH  14  15
ENDBRANCH  13  14
ENDBRANCH  12  13
ENDBRANCH   1  12
TORSDOF 16
ENDMDL
MODEL 7
REMARK VINA RESULT:      -6.4      4.456     10.638
REMARK  16 active torsions:
REMARK  status: ('A' for Active; 'I' for Inactive)
REMARK    1  A    between atoms: C_2  and  C_3 
REMARK    2  A    between atoms: C_3  and  C_4 
REMARK    3  A    between atoms: C_4  and  C_5 
REMARK    4  A    between atoms: C_5  and  C_6 
REMARK    5  A    between atoms: C_7  and  C_8 
REMARK    6  A    between atoms: C_8  and  C_9 
REMARK    7  A    between atoms: C_10  and  C_11 
REMARK    8  A    between atoms: C_11  and  C_12 
REMARK    9  A    between atoms: C_12  and  C_13 
REMARK   10  A    between atoms: C_13  and  C_14 
REMARK   11  A    between atoms: C_14  and  C_15 
REMARK   12  A    between atoms: C_15  and  C_16 
REMARK   13  A    between atoms: C_16  and  C_17 
REMARK   14  A    between atoms: C_17  and  C_18 
REMARK   15  A    between atoms: C_18  and  O_20 
REMARK   16  A    between atoms: O_20  and  C_21 
ROOT
HETATM    1  C   UNL     1     -22.044  -6.002  -1.901  1.00  0.00     0.027 C 
ENDROOT
BRANCH   1   2
HETATM    2  C   UNL     1     -21.457  -6.642  -3.121  1.00  0.00    -0.030 C 
HETATM    3  C   UNL     1     -21.658  -6.190  -4.369  1.00  0.00    -0.027 C 
BRANCH   3   4
HETATM    4  C   UNL     1     -21.078  -6.833  -5.593  1.00  0.00     0.053 C 
BRANCH   4   5
HETATM    5  C   UNL     1     -21.132  -5.900  -6.764  1.00  0.00    -0.027 C 
HETATM    6  C   UNL     1     -21.905  -4.803  -6.811  1.00  0.00    -0.030 C 
BRANCH   6   7
HETATM    7  C   UNL     1     -21.963  -3.873  -7.986  1.00  0.00     0.027 C 
BRANCH   7   8
HETATM    8  C   UNL     1     -23.176  -4.175  -8.869  1.00  0.00     0.004 C 
BRANCH   8   9
HETATM    9  C   UNL     1     -22.740  -4.511 -10.294  1.00  0.00    -0.000 C 
BRANCH   9  10
HETATM   10  C   UNL     1     -21.701  -3.515 -10.809  1.00  0.00    -0.005 C 
HETATM   11  C   UNL     1     -20.387  -4.208 -11.128  1.00  0.00     0.005 C 
ENDBRANCH   9  10
ENDBRANCH   8   9
ENDBRANCH   7   8
ENDBRANCH   6   7
ENDBRANCH   4   5
ENDBRANCH   3   4
ENDBRANCH   1   2
BRANCH   1  12
HETATM   12  C   UNL     1     -22.405  -7.054  -0.858  1.00  0.00     0.004 C 
BRANCH  12  13
HETATM   13  C   UNL     1     -21.320  -8.123  -0.773  1.00  0.00     0.000 C 
BRANCH  13  14
HETATM   14  C   UNL     1     -21.932  -9.518  -0.772  1.00  0.00     0.000 C 
BRANCH  14  15
HETATM   15  C   UNL     1     -23.205  -9.558   0.067  1.00  0.00     0.000 C 
BRANCH  15  16
HETATM   16  C   UNL     1     -24.016 -10.801  -0.276  1.00  0.00     0.010 C 
BRANCH  16  17
HETATM   17  C   UNL     1     -23.535 -11.455  -1.565  1.00  0.00     0.111 C 
BRANCH  17  18
HETATM   18  C   UNL     1     -23.180 -12.898  -1.318  1.00  0.00     0.258 C 
HETATM   19  O   UNL     1     -22.356 -13.541  -1.950  1.00  0.00    -0.265 OA
BRANCH  18  20
HETATM   20  O   UNL     1     -23.991 -13.397  -0.343  1.00  0.00    -0.322 OA
BRANCH  20  21
HETATM   21  C   UNL     1     -23.368 -14.364   0.512  1.00  0.00     0.174 C 
HETATM   22  C   UNL     1     -23.262 -13.752   1.898  1.00  0.00     0.034 C 
ENDBRANCH  20  21
ENDBRANCH  18  20
ENDBRANCH  17  18
ENDBRANCH  16  17
ENDBRANCH  15  16
ENDBRANCH  14  15
ENDBRANCH  13  14
ENDBRANCH  12  13
ENDBRANCH   1  12
TORSDOF 16
ENDMDL
MODEL 8
REMARK VINA RESULT:      -6.3     13.035     15.783
REMARK  16 active torsions:
REMARK  status: ('A' for Active; 'I' for Inactive)
REMARK    1  A    between atoms: C_2  and  C_3 
REMARK    2  A    between atoms: C_3  and  C_4 
REMARK    3  A    between atoms: C_4  and  C_5 
REMARK    4  A    between atoms: C_5  and  C_6 
REMARK    5  A    between atoms: C_7  and  C_8 
REMARK    6  A    between atoms: C_8  and  C_9 
REMARK    7  A    between atoms: C_10  and  C_11 
REMARK    8  A    between atoms: C_11  and  C_12 
REMARK    9  A    between atoms: C_12  and  C_13 
REMARK   10  A    between atoms: C_13  and  C_14 
REMARK   11  A    between atoms: C_14  and  C_15 
REMARK   12  A    between atoms: C_15  and  C_16 
REMARK   13  A    between atoms: C_16  and  C_17 
REMARK   14  A    between atoms: C_17  and  C_18 
REMARK   15  A    between atoms: C_18  and  O_20 
REMARK   16  A    between atoms: O_20  and  C_21 
ROOT
HETATM    1  C   UNL     1     -35.510   1.014 -15.104  1.00  0.00     0.027 C 
ENDROOT
BRANCH   1   2
HETATM    2  C   UNL     1     -35.009   0.494 -13.791  1.00  0.00    -0.030 C 
HETATM    3  C   UNL     1     -35.803  -0.040 -12.851  1.00  0.00    -0.027 C 
BRANCH   3   4
HETATM    4  C   UNL     1     -35.306  -0.554 -11.532  1.00  0.00     0.053 C 
BRANCH   4   5
HETATM    5  C   UNL     1     -34.531  -1.824 -11.711  1.00  0.00    -0.027 C 
HETATM    6  C   UNL     1     -34.685  -2.654 -12.756  1.00  0.00    -0.030 C 
BRANCH   6   7
HETATM    7  C   UNL     1     -33.913  -3.927 -12.929  1.00  0.00     0.027 C 
BRANCH   7   8
HETATM    8  C   UNL     1     -32.911  -4.125 -11.790  1.00  0.00     0.004 C 
BRANCH   8   9
HETATM    9  C   UNL     1     -33.073  -5.507 -11.159  1.00  0.00    -0.000 C 
BRANCH   9  10
HETATM   10  C   UNL     1     -34.385  -5.616 -10.384  1.00  0.00    -0.005 C 
HETATM   11  C   UNL     1     -34.772  -7.069 -10.159  1.00  0.00     0.005 C 
ENDBRANCH   9  10
ENDBRANCH   8   9
ENDBRANCH   7   8
ENDBRANCH   6   7
ENDBRANCH   4   5
ENDBRANCH   3   4
ENDBRANCH   1   2
BRANCH   1  12
HETATM   12  C   UNL     1     -36.907   0.477 -15.401  1.00  0.00     0.004 C 
BRANCH  12  13
HETATM   13  C   UNL     1     -36.827  -0.816 -16.207  1.00  0.00     0.000 C 
BRANCH  13  14
HETATM   14  C   UNL     1     -35.393  -1.103 -16.632  1.00  0.00     0.000 C 
BRANCH  14  15
HETATM   15  C   UNL     1     -35.064  -2.585 -16.489  1.00  0.00     0.000 C 
BRANCH  15  16
HETATM   16  C   UNL     1     -33.769  -2.904 -17.226  1.00  0.00     0.010 C 
BRANCH  16  17
HETATM   17  C   UNL     1     -33.038  -4.087 -16.606  1.00  0.00     0.111 C 
BRANCH  17  18
HETATM   18  C   UNL     1     -31.608  -4.124 -17.081  1.00  0.00     0.258 C 
HETATM   19  O   UNL     1     -31.110  -3.347 -17.882  1.00  0.00    -0.265 OA
BRANCH  18  20
HETATM   20  O   UNL     1     -30.988  -5.215 -16.550  1.00  0.00    -0.322 OA
BRANCH  20  21
HETATM   21  C   UNL     1     -31.110  -6.409 -17.332  1.00  0.00     0.174 C 
HETATM   22  C   UNL     1     -29.783  -7.142 -17.264  1.00  0.00     0.034 C 
ENDBRANCH  20  21
ENDBRANCH  18  20
ENDBRANCH  17  18
ENDBRANCH  16  17
ENDBRANCH  15  16
ENDBRANCH  14  15
ENDBRANCH  13  14
ENDBRANCH  12  13
ENDBRANCH   1  12
TORSDOF 16
ENDMDL
MODEL 9
REMARK VINA RESULT:      -6.3      4.155     10.175
REMARK  16 active torsions:
REMARK  status: ('A' for Active; 'I' for Inactive)
REMARK    1  A    between atoms: C_2  and  C_3 
REMARK    2  A    between atoms: C_3  and  C_4 
REMARK    3  A    between atoms: C_4  and  C_5 
REMARK    4  A    between atoms: C_5  and  C_6 
REMARK    5  A    between atoms: C_7  and  C_8 
REMARK    6  A    between atoms: C_8  and  C_9 
REMARK    7  A    between atoms: C_10  and  C_11 
REMARK    8  A    between atoms: C_11  and  C_12 
REMARK    9  A    between atoms: C_12  and  C_13 
REMARK   10  A    between atoms: C_13  and  C_14 
REMARK   11  A    between atoms: C_14  and  C_15 
REMARK   12  A    between atoms: C_15  and  C_16 
REMARK   13  A    between atoms: C_16  and  C_17 
REMARK   14  A    between atoms: C_17  and  C_18 
REMARK   15  A    between atoms: C_18  and  O_20 
REMARK   16  A    between atoms: O_20  and  C_21 
ROOT
HETATM    1  C   UNL     1     -21.575  -6.982  -4.199  1.00  0.00     0.027 C 
ENDROOT
BRANCH   1   2
HETATM    2  C   UNL     1     -21.542  -5.940  -5.276  1.00  0.00    -0.030 C 
HETATM    3  C   UNL     1     -20.410  -5.456  -5.807  1.00  0.00    -0.027 C 
BRANCH   3   4
HETATM    4  C   UNL     1     -20.373  -4.408  -6.879  1.00  0.00     0.053 C 
BRANCH   4   5
HETATM    5  C   UNL     1     -21.431  -4.659  -7.910  1.00  0.00    -0.027 C 
HETATM    6  C   UNL     1     -22.521  -3.890  -8.066  1.00  0.00    -0.030 C 
BRANCH   6   7
HETATM    7  C   UNL     1     -23.581  -4.147  -9.095  1.00  0.00     0.027 C 
BRANCH   7   8
HETATM    8  C   UNL     1     -22.967  -4.605 -10.419  1.00  0.00     0.004 C 
BRANCH   8   9
HETATM    9  C   UNL     1     -22.836  -3.433 -11.391  1.00  0.00    -0.000 C 
BRANCH   9  10
HETATM   10  C   UNL     1     -21.389  -2.955 -11.496  1.00  0.00    -0.005 C 
HETATM   11  C   UNL     1     -20.414  -4.087 -11.221  1.00  0.00     0.005 C 
ENDBRANCH   9  10
ENDBRANCH   8   9
ENDBRANCH   7   8
ENDBRANCH   6   7
ENDBRANCH   4   5
ENDBRANCH   3   4
ENDBRANCH   1   2
BRANCH   1  12
HETATM   12  C   UNL     1     -21.653  -6.334  -2.821  1.00  0.00     0.004 C 
BRANCH  12  13
HETATM   13  C   UNL     1     -21.405  -7.367  -1.725  1.00  0.00     0.000 C 
BRANCH  13  14
HETATM   14  C   UNL     1     -22.455  -7.256  -0.627  1.00  0.00     0.000 C 
BRANCH  14  15
HETATM   15  C   UNL     1     -22.028  -8.022   0.621  1.00  0.00     0.000 C 
BRANCH  15  16
HETATM   16  C   UNL     1     -22.088  -9.521   0.358  1.00  0.00     0.010 C 
BRANCH  16  17
HETATM   17  C   UNL     1     -23.473  -9.963  -0.095  1.00  0.00     0.111 C 
BRANCH  17  18
HETATM   18  C   UNL     1     -23.513 -11.460  -0.265  1.00  0.00     0.258 C 
HETATM   19  O   UNL     1     -23.271 -12.277   0.611  1.00  0.00    -0.265 OA
BRANCH  18  20
HETATM   20  O   UNL     1     -23.766 -11.756  -1.571  1.00  0.00    -0.322 OA
BRANCH  20  21
HETATM   21  C   UNL     1     -22.943 -11.054  -2.511  1.00  0.00     0.174 C 
HETATM   22  C   UNL     1     -21.696 -11.888  -2.742  1.00  0.00     0.034 C 
ENDBRANCH  20  21
ENDBRANCH  18  20
ENDBRANCH  17  18
ENDBRANCH  16  17
ENDBRANCH  15  16
ENDBRANCH  14  15
ENDBRANCH  13  14
ENDBRANCH  12  13
ENDBRANCH   1  12
TORSDOF 16
ENDMDL
