MODEL 1
REMARK VINA RESULT:      -7.7      0.000      0.000
REMARK  22 active torsions:
REMARK  status: ('A' for Active; 'I' for Inactive)
REMARK    1  A    between atoms: C_2  and  C_4 
REMARK    2  A    between atoms: C_4  and  C_5 
REMARK    3  A    between atoms: C_5  and  C_6 
REMARK    4  A    between atoms: C_6  and  C_7 
REMARK    5  A    between atoms: C_7  and  C_8 
REMARK    6  A    between atoms: C_8  and  C_9 
REMARK    7  A    between atoms: C_9  and  C_10 
REMARK    8  A    between atoms: C_10  and  C_11 
REMARK    9  A    between atoms: C_11  and  C_12 
REMARK   10  A    between atoms: C_12  and  C_13 
REMARK   11  A    between atoms: C_13  and  C_14 
REMARK   12  A    between atoms: C_14  and  C_15 
REMARK   13  A    between atoms: C_15  and  C_16 
REMARK   14  A    between atoms: C_16  and  C_17 
REMARK   15  A    between atoms: C_17  and  C_18 
REMARK   16  A    between atoms: C_18  and  O_20 
REMARK   17  A    between atoms: O_20  and  C_21 
REMARK   18  A    between atoms: C_37  and  C_38 
REMARK   19  A    between atoms: C_38  and  C_40 
REMARK   20  A    between atoms: C_40  and  C_41 
REMARK   21  A    between atoms: C_41  and  C_42 
REMARK   22  A    between atoms: C_42  and  C_43 
ROOT
HETATM    1  C   UNL     1     -21.109 -10.463   0.319  1.00  0.00     0.136 C 
HETATM    2  C   UNL     1     -21.074  -9.009   0.774  1.00  0.00     0.034 C 
HETATM    3  C   UNL     1     -20.671  -8.146  -0.391  1.00  0.00     0.016 C 
HETATM    4  C   UNL     1     -21.842  -8.232  -1.419  1.00  0.00    -0.017 C 
HETATM    5  C   UNL     1     -21.205  -7.882  -2.745  1.00  0.00     0.003 C 
HETATM    6  C   UNL     1     -21.212  -6.330  -2.856  1.00  0.00     0.007 C 
HETATM    7  C   UNL     1     -20.654  -6.160  -4.165  1.00  0.00     0.010 C 
HETATM    8  C   UNL     1     -21.624  -6.833  -5.185  1.00  0.00    -0.036 C 
HETATM    9  C   UNL     1     -21.187  -8.285  -5.309  1.00  0.00    -0.001 C 
HETATM   10  C   UNL     1     -21.685  -8.785  -4.007  1.00  0.00    -0.001 C 
HETATM   11  C   UNL     1     -21.715 -10.262  -3.956  1.00  0.00     0.033 C 
HETATM   12  C   UNL     1     -22.475 -10.485  -2.715  1.00  0.00    -0.023 C 
HETATM   13  C   UNL     1     -22.416  -9.708  -1.604  1.00  0.00    -0.072 C 
HETATM   14  C   UNL     1     -22.386 -10.668  -0.443  1.00  0.00     0.067 C 
HETATM   15  C   UNL     1     -19.691  -8.274  -5.580  1.00  0.00     0.006 C 
HETATM   16  C   UNL     1     -19.563  -6.883  -6.367  1.00  0.00     0.006 C 
HETATM   17  C   UNL     1     -21.166  -6.294  -6.503  1.00  0.00    -0.002 C 
HETATM   18  C   UNL     1     -23.186  -6.746  -4.769  1.00  0.00     0.016 C 
HETATM   19  C   UNL     1     -22.763  -7.009  -0.894  1.00  0.00     0.020 C 
ENDROOT
BRANCH   1  20
HETATM   20  O   UNL     1     -20.015 -10.777  -0.621  1.00  0.00    -0.316 OA
BRANCH  20  21
HETATM   21  C   UNL     1     -19.211 -11.789  -0.332  1.00  0.00     0.259 C 
HETATM   22  O   UNL     1     -18.268 -11.745   0.410  1.00  0.00    -0.265 OA
BRANCH  21  23
HETATM   23  C   UNL     1     -19.661 -13.091  -0.979  1.00  0.00     0.111 C 
BRANCH  23  24
HETATM   24  C   UNL     1     -18.913 -13.456  -2.244  1.00  0.00     0.010 C 
BRANCH  24  25
HETATM   25  C   UNL     1     -19.642 -13.144  -3.535  1.00  0.00     0.000 C 
BRANCH  25  26
HETATM   26  C   UNL     1     -20.497 -14.322  -3.991  1.00  0.00     0.000 C 
BRANCH  26  27
HETATM   27  C   UNL     1     -21.937 -13.899  -4.217  1.00  0.00     0.000 C 
BRANCH  27  28
HETATM   28  C   UNL     1     -22.317 -14.124  -5.673  1.00  0.00     0.000 C 
BRANCH  28  29
HETATM   29  C   UNL     1     -22.079 -12.859  -6.477  1.00  0.00     0.000 C 
BRANCH  29  30
HETATM   30  C   UNL     1     -20.873 -13.035  -7.384  1.00  0.00     0.000 C 
BRANCH  30  31
HETATM   31  C   UNL     1     -19.813 -12.001  -7.050  1.00  0.00     0.000 C 
BRANCH  31  32
HETATM   32  C   UNL     1     -18.474 -12.420  -7.637  1.00  0.00     0.000 C 
BRANCH  32  33
HETATM   33  C   UNL     1     -17.353 -12.104  -6.662  1.00  0.00     0.000 C 
BRANCH  33  34
HETATM   34  C   UNL     1     -17.604 -10.772  -5.968  1.00  0.00     0.000 C 
BRANCH  34  35
HETATM   35  C   UNL     1     -16.298  -9.996  -5.877  1.00  0.00     0.000 C 
BRANCH  35  36
HETATM   36  C   UNL     1     -15.818  -9.864  -4.435  1.00  0.00     0.004 C 
BRANCH  36  37
HETATM   37  C   UNL     1     -16.825 -10.422  -3.416  1.00  0.00    -0.023 C 
HETATM   38  C   UNL     1     -16.064 -11.127  -2.289  1.00  0.00     0.009 C 
HETATM   39  C   UNL     1     -17.731  -9.321  -2.857  1.00  0.00     0.009 C 
ENDBRANCH  36  37
ENDBRANCH  35  36
ENDBRANCH  34  35
ENDBRANCH  33  34
ENDBRANCH  32  33
ENDBRANCH  31  32
ENDBRANCH  30  31
ENDBRANCH  29  30
ENDBRANCH  28  29
ENDBRANCH  27  28
ENDBRANCH  26  27
ENDBRANCH  25  26
ENDBRANCH  24  25
ENDBRANCH  23  24
ENDBRANCH  21  23
ENDBRANCH  20  21
ENDBRANCH   1  20
BRANCH  17  40
HETATM   40  C   UNL     1     -21.907  -4.842  -6.596  1.00  0.00    -0.014 C 
HETATM   41  C   UNL     1     -20.894  -3.633  -6.785  1.00  0.00     0.010 C 
BRANCH  40  42
HETATM   42  C   UNL     1     -23.083  -4.589  -7.633  1.00  0.00     0.005 C 
BRANCH  42  43
HETATM   43  C   UNL     1     -22.605  -3.843  -8.891  1.00  0.00     0.001 C 
BRANCH  43  44
HETATM   44  C   UNL     1     -22.812  -4.624 -10.163  1.00  0.00     0.004 C 
BRANCH  44  45
HETATM   45  C   UNL     1     -21.919  -4.193 -11.317  1.00  0.00    -0.023 C 
HETATM   46  C   UNL     1     -22.383  -2.875 -11.930  1.00  0.00     0.009 C 
HETATM   47  C   UNL     1     -20.503  -4.065 -10.772  1.00  0.00     0.009 C 
ENDBRANCH  44  45
ENDBRANCH  43  44
ENDBRANCH  42  43
ENDBRANCH  40  42
ENDBRANCH  17  40
TORSDOF 22
ENDMDL
MODEL 2
REMARK VINA RESULT:      -7.4      1.762      8.102
REMARK  22 active torsions:
REMARK  status: ('A' for Active; 'I' for Inactive)
REMARK    1  A    between atoms: C_2  and  C_4 
REMARK    2  A    between atoms: C_4  and  C_5 
REMARK    3  A    between atoms: C_5  and  C_6 
REMARK    4  A    between atoms: C_6  and  C_7 
REMARK    5  A    between atoms: C_7  and  C_8 
REMARK    6  A    between atoms: C_8  and  C_9 
REMARK    7  A    between atoms: C_9  and  C_10 
REMARK    8  A    between atoms: C_10  and  C_11 
REMARK    9  A    between atoms: C_11  and  C_12 
REMARK   10  A    between atoms: C_12  and  C_13 
REMARK   11  A    between atoms: C_13  and  C_14 
REMARK   12  A    between atoms: C_14  and  C_15 
REMARK   13  A    between atoms: C_15  and  C_16 
REMARK   14  A    between atoms: C_16  and  C_17 
REMARK   15  A    between atoms: C_17  and  C_18 
REMARK   16  A    between atoms: C_18  and  O_20 
REMARK   17  A    between atoms: O_20  and  C_21 
REMARK   18  A    between atoms: C_37  and  C_38 
REMARK   19  A    between atoms: C_38  and  C_40 
REMARK   20  A    between atoms: C_40  and  C_41 
REMARK   21  A    between atoms: C_41  and  C_42 
REMARK   22  A    between atoms: C_42  and  C_43 
ROOT
HETATM    1  C   UNL     1     -22.810 -10.790   0.205  1.00  0.00     0.136 C 
HETATM    2  C   UNL     1     -23.724 -11.289  -0.909  1.00  0.00     0.034 C 
HETATM    3  C   UNL     1     -23.008 -11.141  -2.225  1.00  0.00     0.016 C 
HETATM    4  C   UNL     1     -21.815 -12.146  -2.184  1.00  0.00    -0.017 C 
HETATM    5  C   UNL     1     -20.823 -11.592  -3.182  1.00  0.00     0.003 C 
HETATM    6  C   UNL     1     -21.237 -12.130  -4.582  1.00  0.00     0.007 C 
HETATM    7  C   UNL     1     -20.186 -11.588  -5.391  1.00  0.00     0.010 C 
HETATM    8  C   UNL     1     -18.840 -12.201  -4.893  1.00  0.00    -0.036 C 
HETATM    9  C   UNL     1     -18.320 -11.282  -3.799  1.00  0.00    -0.001 C 
HETATM   10  C   UNL     1     -19.266 -11.652  -2.720  1.00  0.00    -0.001 C 
HETATM   11  C   UNL     1     -18.814 -11.171  -1.397  1.00  0.00     0.033 C 
HETATM   12  C   UNL     1     -19.748 -11.880  -0.507  1.00  0.00    -0.023 C 
HETATM   13  C   UNL     1     -21.046 -12.161  -0.788  1.00  0.00    -0.072 C 
HETATM   14  C   UNL     1     -21.804 -11.869   0.481  1.00  0.00     0.067 C 
HETATM   15  C   UNL     1     -18.348  -9.869  -4.360  1.00  0.00     0.006 C 
HETATM   16  C   UNL     1     -18.108 -10.184  -5.914  1.00  0.00     0.006 C 
HETATM   17  C   UNL     1     -17.885 -11.880  -5.999  1.00  0.00    -0.002 C 
HETATM   18  C   UNL     1     -18.968 -13.719  -4.343  1.00  0.00     0.016 C 
HETATM   19  C   UNL     1     -22.541 -13.463  -2.782  1.00  0.00     0.020 C 
ENDROOT
BRANCH   1  20
HETATM   20  O   UNL     1     -22.036  -9.601  -0.203  1.00  0.00    -0.316 OA
BRANCH  20  21
HETATM   21  C   UNL     1     -22.608  -8.412  -0.091  1.00  0.00     0.259 C 
HETATM   22  O   UNL     1     -23.420  -8.099   0.736  1.00  0.00    -0.265 OA
BRANCH  21  23
HETATM   23  C   UNL     1     -22.052  -7.405  -1.088  1.00  0.00     0.111 C 
BRANCH  23  24
HETATM   24  C   UNL     1     -20.641  -7.697  -1.556  1.00  0.00     0.010 C 
BRANCH  24  25
HETATM   25  C   UNL     1     -20.507  -8.026  -3.029  1.00  0.00     0.000 C 
BRANCH  25  26
HETATM   26  C   UNL     1     -21.869  -8.093  -3.710  1.00  0.00     0.000 C 
BRANCH  26  27
HETATM   27  C   UNL     1     -21.910  -7.206  -4.941  1.00  0.00     0.000 C 
BRANCH  27  28
HETATM   28  C   UNL     1     -20.523  -6.643  -5.216  1.00  0.00     0.000 C 
BRANCH  28  29
HETATM   29  C   UNL     1     -20.633  -5.250  -5.811  1.00  0.00     0.000 C 
BRANCH  29  30
HETATM   30  C   UNL     1     -21.941  -5.108  -6.570  1.00  0.00     0.000 C 
BRANCH  30  31
HETATM   31  C   UNL     1     -21.756  -4.185  -7.761  1.00  0.00     0.000 C 
BRANCH  31  32
HETATM   32  C   UNL     1     -20.316  -4.243  -8.247  1.00  0.00     0.000 C 
BRANCH  32  33
HETATM   33  C   UNL     1     -20.193  -3.565  -9.600  1.00  0.00     0.000 C 
BRANCH  33  34
HETATM   34  C   UNL     1     -20.204  -4.596 -10.721  1.00  0.00     0.000 C 
BRANCH  34  35
HETATM   35  C   UNL     1     -21.533  -4.526 -11.460  1.00  0.00     0.000 C 
BRANCH  35  36
HETATM   36  C   UNL     1     -22.079  -3.101 -11.506  1.00  0.00     0.004 C 
BRANCH  36  37
HETATM   37  C   UNL     1     -23.605  -3.039 -11.331  1.00  0.00    -0.023 C 
HETATM   38  C   UNL     1     -24.261  -2.805 -12.696  1.00  0.00     0.009 C 
HETATM   39  C   UNL     1     -24.150  -4.310 -10.674  1.00  0.00     0.009 C 
ENDBRANCH  36  37
ENDBRANCH  35  36
ENDBRANCH  34  35
ENDBRANCH  33  34
ENDBRANCH  32  33
ENDBRANCH  31  32
ENDBRANCH  30  31
ENDBRANCH  29  30
ENDBRANCH  28  29
ENDBRANCH  27  28
ENDBRANCH  26  27
ENDBRANCH  25  26
ENDBRANCH  24  25
ENDBRANCH  23  24
ENDBRANCH  21  23
ENDBRANCH  20  21
ENDBRANCH   1  20
BRANCH  17  40
HETATM   40  C   UNL     1     -18.149 -13.072  -7.084  1.00  0.00    -0.014 C 
HETATM   41  C   UNL     1     -18.766 -12.549  -8.450  1.00  0.00     0.010 C 
BRANCH  40  42
HETATM   42  C   UNL     1     -16.991 -14.080  -7.488  1.00  0.00     0.005 C 
BRANCH  42  43
HETATM   43  C   UNL     1     -16.262 -14.659  -6.263  1.00  0.00     0.001 C 
BRANCH  43  44
HETATM   44  C   UNL     1     -14.915 -14.028  -6.018  1.00  0.00     0.004 C 
BRANCH  44  45
HETATM   45  C   UNL     1     -14.926 -12.902  -4.994  1.00  0.00    -0.023 C 
HETATM   46  C   UNL     1     -15.243 -13.414  -3.592  1.00  0.00     0.009 C 
HETATM   47  C   UNL     1     -13.554 -12.244  -5.030  1.00  0.00     0.009 C 
ENDBRANCH  44  45
ENDBRANCH  43  44
ENDBRANCH  42  43
ENDBRANCH  40  42
ENDBRANCH  17  40
TORSDOF 22
ENDMDL
MODEL 3
REMARK VINA RESULT:      -7.4      3.532     10.186
REMARK  22 active torsions:
REMARK  status: ('A' for Active; 'I' for Inactive)
REMARK    1  A    between atoms: C_2  and  C_4 
REMARK    2  A    between atoms: C_4  and  C_5 
REMARK    3  A    between atoms: C_5  and  C_6 
REMARK    4  A    between atoms: C_6  and  C_7 
REMARK    5  A    between atoms: C_7  and  C_8 
REMARK    6  A    between atoms: C_8  and  C_9 
REMARK    7  A    between atoms: C_9  and  C_10 
REMARK    8  A    between atoms: C_10  and  C_11 
REMARK    9  A    between atoms: C_11  and  C_12 
REMARK   10  A    between atoms: C_12  and  C_13 
REMARK   11  A    between atoms: C_13  and  C_14 
REMARK   12  A    between atoms: C_14  and  C_15 
REMARK   13  A    between atoms: C_15  and  C_16 
REMARK   14  A    between atoms: C_16  and  C_17 
REMARK   15  A    between atoms: C_17  and  C_18 
REMARK   16  A    between atoms: C_18  and  O_20 
REMARK   17  A    between atoms: O_20  and  C_21 
REMARK   18  A    between atoms: C_37  and  C_38 
REMARK   19  A    between atoms: C_38  and  C_40 
REMARK   20  A    between atoms: C_40  and  C_41 
REMARK   21  A    between atoms: C_41  and  C_42 
REMARK   22  A    between atoms: C_42  and  C_43 
ROOT
HETATM    1  C   UNL     1     -19.049  -9.700  -5.243  1.00  0.00     0.136 C 
HETATM    2  C   UNL     1     -18.683  -8.924  -3.984  1.00  0.00     0.034 C 
HETATM    3  C   UNL     1     -18.282  -9.901  -2.911  1.00  0.00     0.016 C 
HETATM    4  C   UNL     1     -16.951 -10.555  -3.398  1.00  0.00    -0.017 C 
HETATM    5  C   UNL     1     -16.889 -11.873  -2.660  1.00  0.00     0.003 C 
HETATM    6  C   UNL     1     -16.249 -11.587  -1.271  1.00  0.00     0.007 C 
HETATM    7  C   UNL     1     -16.194 -12.913  -0.731  1.00  0.00     0.010 C 
HETATM    8  C   UNL     1     -15.263 -13.762  -1.651  1.00  0.00    -0.036 C 
HETATM    9  C   UNL     1     -16.148 -14.360  -2.734  1.00  0.00    -0.001 C 
HETATM   10  C   UNL     1     -16.378 -13.139  -3.541  1.00  0.00    -0.001 C 
HETATM   11  C   UNL     1     -16.936 -13.453  -4.873  1.00  0.00     0.033 C 
HETATM   12  C   UNL     1     -16.814 -12.148  -5.543  1.00  0.00    -0.023 C 
HETATM   13  C   UNL     1     -16.961 -10.938  -4.945  1.00  0.00    -0.072 C 
HETATM   14  C   UNL     1     -17.768 -10.109  -5.911  1.00  0.00     0.067 C 
HETATM   15  C   UNL     1     -17.323 -15.019  -2.030  1.00  0.00     0.006 C 
HETATM   16  C   UNL     1     -16.619 -15.438  -0.650  1.00  0.00     0.006 C 
HETATM   17  C   UNL     1     -14.979 -14.977  -0.825  1.00  0.00    -0.002 C 
HETATM   18  C   UNL     1     -14.046 -12.925  -2.312  1.00  0.00     0.016 C 
HETATM   19  C   UNL     1     -15.884  -9.509  -2.776  1.00  0.00     0.020 C 
ENDROOT
BRANCH   1  20
HETATM   20  O   UNL     1     -19.767 -10.952  -4.935  1.00  0.00    -0.316 OA
BRANCH  20  21
HETATM   21  C   UNL     1     -20.835 -11.257  -5.657  1.00  0.00     0.259 C 
HETATM   22  O   UNL     1     -20.839 -11.511  -6.830  1.00  0.00    -0.265 OA
BRANCH  21  23
HETATM   23  C   UNL     1     -22.098 -11.352  -4.813  1.00  0.00     0.111 C 
BRANCH  23  24
HETATM   24  C   UNL     1     -21.923 -10.928  -3.369  1.00  0.00     0.010 C 
BRANCH  24  25
HETATM   25  C   UNL     1     -23.132 -11.150  -2.483  1.00  0.00     0.000 C 
BRANCH  25  26
HETATM   26  C   UNL     1     -22.738 -11.215  -1.011  1.00  0.00     0.000 C 
BRANCH  26  27
HETATM   27  C   UNL     1     -23.751 -10.496  -0.140  1.00  0.00     0.000 C 
BRANCH  27  28
HETATM   28  C   UNL     1     -23.218  -9.123   0.245  1.00  0.00     0.000 C 
BRANCH  28  29
HETATM   29  C   UNL     1     -21.704  -9.105   0.148  1.00  0.00     0.000 C 
BRANCH  29  30
HETATM   30  C   UNL     1     -21.250  -7.933  -0.706  1.00  0.00     0.000 C 
BRANCH  30  31
HETATM   31  C   UNL     1     -22.387  -6.940  -0.878  1.00  0.00     0.000 C 
BRANCH  31  32
HETATM   32  C   UNL     1     -22.165  -6.106  -2.130  1.00  0.00     0.000 C 
BRANCH  32  33
HETATM   33  C   UNL     1     -21.384  -6.906  -3.159  1.00  0.00     0.000 C 
BRANCH  33  34
HETATM   34  C   UNL     1     -22.135  -6.958  -4.482  1.00  0.00     0.000 C 
BRANCH  34  35
HETATM   35  C   UNL     1     -21.187  -6.599  -5.617  1.00  0.00     0.000 C 
BRANCH  35  36
HETATM   36  C   UNL     1     -20.507  -5.254  -5.380  1.00  0.00     0.004 C 
BRANCH  36  37
HETATM   37  C   UNL     1     -20.664  -4.287  -6.564  1.00  0.00    -0.023 C 
HETATM   38  C   UNL     1     -19.542  -4.540  -7.576  1.00  0.00     0.009 C 
HETATM   39  C   UNL     1     -22.038  -4.425  -7.227  1.00  0.00     0.009 C 
ENDBRANCH  36  37
ENDBRANCH  35  36
ENDBRANCH  34  35
ENDBRANCH  33  34
ENDBRANCH  32  33
ENDBRANCH  31  32
ENDBRANCH  30  31
ENDBRANCH  29  30
ENDBRANCH  28  29
ENDBRANCH  27  28
ENDBRANCH  26  27
ENDBRANCH  25  26
ENDBRANCH  24  25
ENDBRANCH  23  24
ENDBRANCH  21  23
ENDBRANCH  20  21
ENDBRANCH   1  20
BRANCH  17  40
HETATM   40  C   UNL     1     -13.757 -14.497   0.146  1.00  0.00    -0.014 C 
HETATM   41  C   UNL     1     -14.101 -14.621   1.692  1.00  0.00     0.010 C 
BRANCH  40  42
HETATM   42  C   UNL     1     -12.295 -15.094  -0.022  1.00  0.00     0.005 C 
BRANCH  42  43
HETATM   43  C   UNL     1     -11.388 -14.771   1.179  1.00  0.00     0.001 C 
BRANCH  43  44
HETATM   44  C   UNL     1     -10.619 -13.486   1.016  1.00  0.00     0.004 C 
BRANCH  44  45
HETATM   45  C   UNL     1      -9.268 -13.470   1.718  1.00  0.00    -0.023 C 
HETATM   46  C   UNL     1      -9.404 -13.731   3.215  1.00  0.00     0.009 C 
HETATM   47  C   UNL     1      -8.404 -14.538   1.061  1.00  0.00     0.009 C 
ENDBRANCH  44  45
ENDBRANCH  43  44
ENDBRANCH  42  43
ENDBRANCH  40  42
ENDBRANCH  17  40
TORSDOF 22
ENDMDL
MODEL 4
REMARK VINA RESULT:      -7.0      2.477      5.955
REMARK  22 active torsions:
REMARK  status: ('A' for Active; 'I' for Inactive)
REMARK    1  A    between atoms: C_2  and  C_4 
REMARK    2  A    between atoms: C_4  and  C_5 
REMARK    3  A    between atoms: C_5  and  C_6 
REMARK    4  A    between atoms: C_6  and  C_7 
REMARK    5  A    between atoms: C_7  and  C_8 
REMARK    6  A    between atoms: C_8  and  C_9 
REMARK    7  A    between atoms: C_9  and  C_10 
REMARK    8  A    between atoms: C_10  and  C_11 
REMARK    9  A    between atoms: C_11  and  C_12 
REMARK   10  A    between atoms: C_12  and  C_13 
REMARK   11  A    between atoms: C_13  and  C_14 
REMARK   12  A    between atoms: C_14  and  C_15 
REMARK   13  A    between atoms: C_15  and  C_16 
REMARK   14  A    between atoms: C_16  and  C_17 
REMARK   15  A    between atoms: C_17  and  C_18 
REMARK   16  A    between atoms: C_18  and  O_20 
REMARK   17  A    between atoms: O_20  and  C_21 
REMARK   18  A    between atoms: C_37  and  C_38 
REMARK   19  A    between atoms: C_38  and  C_40 
REMARK   20  A    between atoms: C_40  and  C_41 
REMARK   21  A    between atoms: C_41  and  C_42 
REMARK   22  A    between atoms: C_42  and  C_43 
ROOT
HETATM    1  C   UNL     1     -15.147 -13.181  -2.212  1.00  0.00     0.136 C 
HETATM    2  C   UNL     1     -14.689 -12.154  -3.241  1.00  0.00     0.034 C 
HETATM    3  C   UNL     1     -15.901 -11.574  -3.919  1.00  0.00     0.016 C 
HETATM    4  C   UNL     1     -16.660 -10.758  -2.825  1.00  0.00    -0.017 C 
HETATM    5  C   UNL     1     -18.085 -10.694  -3.327  1.00  0.00     0.003 C 
HETATM    6  C   UNL     1     -18.171  -9.483  -4.300  1.00  0.00     0.007 C 
HETATM    7  C   UNL     1     -19.565  -9.510  -4.628  1.00  0.00     0.010 C 
HETATM    8  C   UNL     1     -20.367  -9.272  -3.310  1.00  0.00    -0.036 C 
HETATM    9  C   UNL     1     -20.601 -10.641  -2.689  1.00  0.00    -0.001 C 
HETATM   10  C   UNL     1     -19.230 -10.903  -2.193  1.00  0.00    -0.001 C 
HETATM   11  C   UNL     1     -19.194 -12.025  -1.230  1.00  0.00     0.033 C 
HETATM   12  C   UNL     1     -17.824 -11.902  -0.706  1.00  0.00    -0.023 C 
HETATM   13  C   UNL     1     -16.740 -11.504  -1.419  1.00  0.00    -0.072 C 
HETATM   14  C   UNL     1     -15.626 -12.429  -1.004  1.00  0.00     0.067 C 
HETATM   15  C   UNL     1     -21.181 -11.527  -3.779  1.00  0.00     0.006 C 
HETATM   16  C   UNL     1     -21.958 -10.426  -4.647  1.00  0.00     0.006 C 
HETATM   17  C   UNL     1     -21.745  -8.953  -3.799  1.00  0.00    -0.002 C 
HETATM   18  C   UNL     1     -19.630  -8.290  -2.256  1.00  0.00     0.016 C 
HETATM   19  C   UNL     1     -15.935  -9.322  -2.999  1.00  0.00     0.020 C 
ENDROOT
BRANCH   1  20
HETATM   20  O   UNL     1     -16.301 -13.968  -2.688  1.00  0.00    -0.316 OA
BRANCH  20  21
HETATM   21  C   UNL     1     -16.512 -15.160  -2.151  1.00  0.00     0.259 C 
HETATM   22  O   UNL     1     -15.663 -15.935  -1.807  1.00  0.00    -0.265 OA
BRANCH  21  23
HETATM   23  C   UNL     1     -17.990 -15.435  -1.912  1.00  0.00     0.111 C 
BRANCH  23  24
HETATM   24  C   UNL     1     -18.373 -15.594  -0.455  1.00  0.00     0.010 C 
BRANCH  24  25
HETATM   25  C   UNL     1     -19.863 -15.620  -0.180  1.00  0.00     0.000 C 
BRANCH  25  26
HETATM   26  C   UNL     1     -20.228 -14.710   0.988  1.00  0.00     0.000 C 
BRANCH  26  27
HETATM   27  C   UNL     1     -21.341 -15.314   1.825  1.00  0.00     0.000 C 
BRANCH  27  28
HETATM   28  C   UNL     1     -22.233 -14.208   2.371  1.00  0.00     0.000 C 
BRANCH  28  29
HETATM   29  C   UNL     1     -23.694 -14.583   2.199  1.00  0.00     0.000 C 
BRANCH  29  30
HETATM   30  C   UNL     1     -23.839 -15.640   1.118  1.00  0.00     0.000 C 
BRANCH  30  31
HETATM   31  C   UNL     1     -24.545 -15.056  -0.093  1.00  0.00     0.000 C 
BRANCH  31  32
HETATM   32  C   UNL     1     -23.624 -15.098  -1.303  1.00  0.00     0.000 C 
BRANCH  32  33
HETATM   33  C   UNL     1     -22.874 -13.784  -1.434  1.00  0.00     0.000 C 
BRANCH  33  34
HETATM   34  C   UNL     1     -23.763 -12.614  -1.037  1.00  0.00     0.000 C 
BRANCH  34  35
HETATM   35  C   UNL     1     -22.962 -11.634  -0.192  1.00  0.00     0.000 C 
BRANCH  35  36
HETATM   36  C   UNL     1     -23.536 -10.222  -0.269  1.00  0.00     0.004 C 
BRANCH  36  37
HETATM   37  C   UNL     1     -22.472  -9.132  -0.063  1.00  0.00    -0.023 C 
HETATM   38  C   UNL     1     -23.123  -7.906   0.586  1.00  0.00     0.009 C 
HETATM   39  C   UNL     1     -21.299  -9.639   0.782  1.00  0.00     0.009 C 
ENDBRANCH  36  37
ENDBRANCH  35  36
ENDBRANCH  34  35
ENDBRANCH  33  34
ENDBRANCH  32  33
ENDBRANCH  31  32
ENDBRANCH  30  31
ENDBRANCH  29  30
ENDBRANCH  28  29
ENDBRANCH  27  28
ENDBRANCH  26  27
ENDBRANCH  25  26
ENDBRANCH  24  25
ENDBRANCH  23  24
ENDBRANCH  21  23
ENDBRANCH  20  21
ENDBRANCH   1  20
BRANCH  17  40
HETATM   40  C   UNL     1     -21.659  -7.362  -4.159  1.00  0.00    -0.014 C 
HETATM   41  C   UNL     1     -21.684  -6.428  -2.874  1.00  0.00     0.010 C 
BRANCH  40  42
HETATM   42  C   UNL     1     -20.502  -6.795  -5.085  1.00  0.00     0.005 C 
BRANCH  42  43
HETATM   43  C   UNL     1     -20.576  -5.266  -5.247  1.00  0.00     0.001 C 
BRANCH  43  44
HETATM   44  C   UNL     1     -19.987  -4.774  -6.544  1.00  0.00     0.004 C 
BRANCH  44  45
HETATM   45  C   UNL     1     -20.879  -4.983  -7.758  1.00  0.00    -0.023 C 
HETATM   46  C   UNL     1     -22.143  -4.131  -7.687  1.00  0.00     0.009 C 
HETATM   47  C   UNL     1     -20.059  -4.628  -8.990  1.00  0.00     0.009 C 
ENDBRANCH  44  45
ENDBRANCH  43  44
ENDBRANCH  42  43
ENDBRANCH  40  42
ENDBRANCH  17  40
TORSDOF 22
ENDMDL
MODEL 5
REMARK VINA RESULT:      -7.0      2.351      5.454
REMARK  22 active torsions:
REMARK  status: ('A' for Active; 'I' for Inactive)
REMARK    1  A    between atoms: C_2  and  C_4 
REMARK    2  A    between atoms: C_4  and  C_5 
REMARK    3  A    between atoms: C_5  and  C_6 
REMARK    4  A    between atoms: C_6  and  C_7 
REMARK    5  A    between atoms: C_7  and  C_8 
REMARK    6  A    between atoms: C_8  and  C_9 
REMARK    7  A    between atoms: C_9  and  C_10 
REMARK    8  A    between atoms: C_10  and  C_11 
REMARK    9  A    between atoms: C_11  and  C_12 
REMARK   10  A    between atoms: C_12  and  C_13 
REMARK   11  A    between atoms: C_13  and  C_14 
REMARK   12  A    between atoms: C_14  and  C_15 
REMARK   13  A    between atoms: C_15  and  C_16 
REMARK   14  A    between atoms: C_16  and  C_17 
REMARK   15  A    between atoms: C_17  and  C_18 
REMARK   16  A    between atoms: C_18  and  O_20 
REMARK   17  A    between atoms: O_20  and  C_21 
REMARK   18  A    between atoms: C_37  and  C_38 
REMARK   19  A    between atoms: C_38  and  C_40 
REMARK   20  A    between atoms: C_40  and  C_41 
REMARK   21  A    between atoms: C_41  and  C_42 
REMARK   22  A    between atoms: C_42  and  C_43 
ROOT
HETATM    1  C   UNL     1     -19.226 -13.575  -2.499  1.00  0.00     0.136 C 
HETATM    2  C   UNL     1     -20.295 -13.745  -3.572  1.00  0.00     0.034 C 
HETATM    3  C   UNL     1     -21.002 -12.431  -3.764  1.00  0.00     0.016 C 
HETATM    4  C   UNL     1     -19.948 -11.458  -4.378  1.00  0.00    -0.017 C 
HETATM    5  C   UNL     1     -20.457 -10.079  -4.022  1.00  0.00     0.003 C 
HETATM    6  C   UNL     1     -21.480  -9.675  -5.122  1.00  0.00     0.007 C 
HETATM    7  C   UNL     1     -21.813  -8.349  -4.695  1.00  0.00     0.010 C 
HETATM    8  C   UNL     1     -20.510  -7.491  -4.751  1.00  0.00    -0.036 C 
HETATM    9  C   UNL     1     -19.832  -7.638  -3.398  1.00  0.00    -0.001 C 
HETATM   10  C   UNL     1     -19.320  -9.020  -3.547  1.00  0.00    -0.001 C 
HETATM   11  C   UNL     1     -18.311  -9.351  -2.519  1.00  0.00     0.033 C 
HETATM   12  C   UNL     1     -17.787 -10.624  -3.040  1.00  0.00    -0.023 C 
HETATM   13  C   UNL     1     -18.511 -11.566  -3.695  1.00  0.00    -0.072 C 
HETATM   14  C   UNL     1     -18.053 -12.888  -3.135  1.00  0.00     0.067 C 
HETATM   15  C   UNL     1     -20.886  -7.345  -2.342  1.00  0.00     0.006 C 
HETATM   16  C   UNL     1     -21.804  -6.306  -3.148  1.00  0.00     0.006 C 
HETATM   17  C   UNL     1     -21.017  -6.087  -4.655  1.00  0.00    -0.002 C 
HETATM   18  C   UNL     1     -19.495  -7.909  -5.941  1.00  0.00     0.016 C 
HETATM   19  C   UNL     1     -20.178 -11.757  -5.952  1.00  0.00     0.020 C 
ENDROOT
BRANCH   1  20
HETATM   20  O   UNL     1     -19.674 -12.694  -1.403  1.00  0.00    -0.316 OA
BRANCH  20  21
HETATM   21  C   UNL     1     -19.111 -12.837  -0.213  1.00  0.00     0.259 C 
HETATM   22  O   UNL     1     -18.798 -11.945   0.527  1.00  0.00    -0.265 OA
BRANCH  21  23
HETATM   23  C   UNL     1     -18.976 -14.298   0.192  1.00  0.00     0.111 C 
BRANCH  23  24
HETATM   24  C   UNL     1     -20.142 -14.839   0.993  1.00  0.00     0.010 C 
BRANCH  24  25
HETATM   25  C   UNL     1     -19.817 -16.018   1.887  1.00  0.00     0.000 C 
BRANCH  25  26
HETATM   26  C   UNL     1     -20.913 -16.251   2.922  1.00  0.00     0.000 C 
BRANCH  26  27
HETATM   27  C   UNL     1     -21.663 -14.967   3.224  1.00  0.00     0.000 C 
BRANCH  27  28
HETATM   28  C   UNL     1     -22.992 -15.291   3.891  1.00  0.00     0.000 C 
BRANCH  28  29
HETATM   29  C   UNL     1     -24.137 -14.687   3.098  1.00  0.00     0.000 C 
BRANCH  29  30
HETATM   30  C   UNL     1     -23.598 -13.939   1.891  1.00  0.00     0.000 C 
BRANCH  30  31
HETATM   31  C   UNL     1     -23.882 -14.722   0.621  1.00  0.00     0.000 C 
BRANCH  31  32
HETATM   32  C   UNL     1     -23.406 -13.937  -0.592  1.00  0.00     0.000 C 
BRANCH  32  33
HETATM   33  C   UNL     1     -23.011 -12.529  -0.181  1.00  0.00     0.000 C 
BRANCH  33  34
HETATM   34  C   UNL     1     -23.773 -11.495  -0.998  1.00  0.00     0.000 C 
BRANCH  34  35
HETATM   35  C   UNL     1     -22.876 -10.294  -1.258  1.00  0.00     0.000 C 
BRANCH  35  36
HETATM   36  C   UNL     1     -21.789 -10.161  -0.195  1.00  0.00     0.004 C 
BRANCH  36  37
HETATM   37  C   UNL     1     -21.687  -8.740   0.382  1.00  0.00    -0.023 C 
HETATM   38  C   UNL     1     -23.095  -8.170   0.574  1.00  0.00     0.009 C 
HETATM   39  C   UNL     1     -20.905  -8.720   1.699  1.00  0.00     0.009 C 
ENDBRANCH  36  37
ENDBRANCH  35  36
ENDBRANCH  34  35
ENDBRANCH  33  34
ENDBRANCH  32  33
ENDBRANCH  31  32
ENDBRANCH  30  31
ENDBRANCH  29  30
ENDBRANCH  28  29
ENDBRANCH  27  28
ENDBRANCH  26  27
ENDBRANCH  25  26
ENDBRANCH  24  25
ENDBRANCH  23  24
ENDBRANCH  21  23
ENDBRANCH  20  21
ENDBRANCH   1  20
BRANCH  17  40
HETATM   40  C   UNL     1     -21.444  -5.732  -6.191  1.00  0.00    -0.014 C 
HETATM   41  C   UNL     1     -22.946  -5.235  -6.324  1.00  0.00     0.010 C 
BRANCH  40  42
HETATM   42  C   UNL     1     -20.577  -4.735  -7.070  1.00  0.00     0.005 C 
BRANCH  42  43
HETATM   43  C   UNL     1     -20.560  -5.129  -8.558  1.00  0.00     0.001 C 
BRANCH  43  44
HETATM   44  C   UNL     1     -20.488  -3.945  -9.487  1.00  0.00     0.004 C 
BRANCH  44  45
HETATM   45  C   UNL     1     -21.795  -3.623 -10.197  1.00  0.00    -0.023 C 
HETATM   46  C   UNL     1     -21.589  -3.402 -11.692  1.00  0.00     0.009 C 
HETATM   47  C   UNL     1     -22.743  -4.789  -9.950  1.00  0.00     0.009 C 
ENDBRANCH  44  45
ENDBRANCH  43  44
ENDBRANCH  42  43
ENDBRANCH  40  42
ENDBRANCH  17  40
TORSDOF 22
ENDMDL
MODEL 6
REMARK VINA RESULT:      -6.9      2.111      8.388
REMARK  22 active torsions:
REMARK  status: ('A' for Active; 'I' for Inactive)
REMARK    1  A    between atoms: C_2  and  C_4 
REMARK    2  A    between atoms: C_4  and  C_5 
REMARK    3  A    between atoms: C_5  and  C_6 
REMARK    4  A    between atoms: C_6  and  C_7 
REMARK    5  A    between atoms: C_7  and  C_8 
REMARK    6  A    between atoms: C_8  and  C_9 
REMARK    7  A    between atoms: C_9  and  C_10 
REMARK    8  A    between atoms: C_10  and  C_11 
REMARK    9  A    between atoms: C_11  and  C_12 
REMARK   10  A    between atoms: C_12  and  C_13 
REMARK   11  A    between atoms: C_13  and  C_14 
REMARK   12  A    between atoms: C_14  and  C_15 
REMARK   13  A    between atoms: C_15  and  C_16 
REMARK   14  A    between atoms: C_16  and  C_17 
REMARK   15  A    between atoms: C_17  and  C_18 
REMARK   16  A    between atoms: C_18  and  O_20 
REMARK   17  A    between atoms: O_20  and  C_21 
REMARK   18  A    between atoms: C_37  and  C_38 
REMARK   19  A    between atoms: C_38  and  C_40 
REMARK   20  A    between atoms: C_40  and  C_41 
REMARK   21  A    between atoms: C_41  and  C_42 
REMARK   22  A    between atoms: C_42  and  C_43 
ROOT
HETATM    1  C   UNL     1     -22.665  -9.646   0.085  1.00  0.00     0.136 C 
HETATM    2  C   UNL     1     -23.784 -10.677  -0.011  1.00  0.00     0.034 C 
HETATM    3  C   UNL     1     -23.765 -11.286  -1.387  1.00  0.00     0.016 C 
HETATM    4  C   UNL     1     -22.438 -12.102  -1.480  1.00  0.00    -0.017 C 
HETATM    5  C   UNL     1     -22.159 -12.198  -2.963  1.00  0.00     0.003 C 
HETATM    6  C   UNL     1     -22.958 -13.422  -3.498  1.00  0.00     0.007 C 
HETATM    7  C   UNL     1     -22.545 -13.423  -4.870  1.00  0.00     0.010 C 
HETATM    8  C   UNL     1     -21.003 -13.661  -4.901  1.00  0.00    -0.036 C 
HETATM    9  C   UNL     1     -20.349 -12.290  -4.822  1.00  0.00    -0.001 C 
HETATM   10  C   UNL     1     -20.605 -11.997  -3.392  1.00  0.00    -0.001 C 
HETATM   11  C   UNL     1     -19.790 -10.864  -2.904  1.00  0.00     0.033 C 
HETATM   12  C   UNL     1     -20.021 -10.956  -1.453  1.00  0.00    -0.023 C 
HETATM   13  C   UNL     1     -21.181 -11.342  -0.862  1.00  0.00    -0.072 C 
HETATM   14  C   UNL     1     -21.379 -10.393   0.291  1.00  0.00     0.067 C 
HETATM   15  C   UNL     1     -21.004 -11.426  -5.887  1.00  0.00     0.006 C 
HETATM   16  C   UNL     1     -21.366 -12.552  -6.971  1.00  0.00     0.006 C 
HETATM   17  C   UNL     1     -20.737 -14.011  -6.331  1.00  0.00    -0.002 C 
HETATM   18  C   UNL     1     -20.457 -14.617  -3.714  1.00  0.00     0.016 C 
HETATM   19  C   UNL     1     -22.949 -13.528  -0.908  1.00  0.00     0.020 C 
ENDROOT
BRANCH   1  20
HETATM   20  O   UNL     1     -22.502  -8.886  -1.169  1.00  0.00    -0.316 OA
BRANCH  20  21
HETATM   21  C   UNL     1     -22.194  -7.600  -1.088  1.00  0.00     0.259 C 
HETATM   22  O   UNL     1     -22.784  -6.777  -0.443  1.00  0.00    -0.265 OA
BRANCH  21  23
HETATM   23  C   UNL     1     -20.915  -7.261  -1.841  1.00  0.00     0.111 C 
BRANCH  23  24
HETATM   24  C   UNL     1     -21.124  -6.862  -3.287  1.00  0.00     0.010 C 
BRANCH  24  25
HETATM   25  C   UNL     1     -21.568  -7.982  -4.206  1.00  0.00     0.000 C 
BRANCH  25  26
HETATM   26  C   UNL     1     -21.349  -7.619  -5.671  1.00  0.00     0.000 C 
BRANCH  26  27
HETATM   27  C   UNL     1     -20.339  -6.495  -5.812  1.00  0.00     0.000 C 
BRANCH  27  28
HETATM   28  C   UNL     1     -20.928  -5.375  -6.657  1.00  0.00     0.000 C 
BRANCH  28  29
HETATM   29  C   UNL     1     -19.872  -4.322  -6.941  1.00  0.00     0.000 C 
BRANCH  29  30
HETATM   30  C   UNL     1     -19.521  -4.321  -8.418  1.00  0.00     0.000 C 
BRANCH  30  31
HETATM   31  C   UNL     1     -20.708  -4.793  -9.239  1.00  0.00     0.000 C 
BRANCH  31  32
HETATM   32  C   UNL     1     -20.466  -4.514 -10.714  1.00  0.00     0.000 C 
BRANCH  32  33
HETATM   33  C   UNL     1     -20.392  -3.016 -10.957  1.00  0.00     0.000 C 
BRANCH  33  34
HETATM   34  C   UNL     1     -21.603  -2.539 -11.747  1.00  0.00     0.000 C 
BRANCH  34  35
HETATM   35  C   UNL     1     -22.543  -3.711 -11.990  1.00  0.00     0.000 C 
BRANCH  35  36
HETATM   36  C   UNL     1     -23.984  -3.363 -11.631  1.00  0.00     0.004 C 
BRANCH  36  37
HETATM   37  C   UNL     1     -24.479  -4.088 -10.369  1.00  0.00    -0.023 C 
HETATM   38  C   UNL     1     -23.982  -5.537 -10.391  1.00  0.00     0.009 C 
HETATM   39  C   UNL     1     -24.023  -3.373  -9.093  1.00  0.00     0.009 C 
ENDBRANCH  36  37
ENDBRANCH  35  36
ENDBRANCH  34  35
ENDBRANCH  33  34
ENDBRANCH  32  33
ENDBRANCH  31  32
ENDBRANCH  30  31
ENDBRANCH  29  30
ENDBRANCH  28  29
ENDBRANCH  27  28
ENDBRANCH  26  27
ENDBRANCH  25  26
ENDBRANCH  24  25
ENDBRANCH  23  24
ENDBRANCH  21  23
ENDBRANCH  20  21
ENDBRANCH   1  20
BRANCH  17  40
HETATM   40  C   UNL     1     -21.090 -15.603  -6.402  1.00  0.00    -0.014 C 
HETATM   41  C   UNL     1     -22.540 -15.897  -6.979  1.00  0.00     0.010 C 
BRANCH  40  42
HETATM   42  C   UNL     1     -20.118 -16.624  -7.132  1.00  0.00     0.005 C 
BRANCH  42  43
HETATM   43  C   UNL     1     -18.718 -16.032  -7.372  1.00  0.00     0.001 C 
BRANCH  43  44
HETATM   44  C   UNL     1     -18.038 -16.587  -8.597  1.00  0.00     0.004 C 
BRANCH  44  45
HETATM   45  C   UNL     1     -17.768 -15.558  -9.686  1.00  0.00    -0.023 C 
HETATM   46  C   UNL     1     -18.215 -16.054 -11.058  1.00  0.00     0.009 C 
HETATM   47  C   UNL     1     -18.515 -14.287  -9.303  1.00  0.00     0.009 C 
ENDBRANCH  44  45
ENDBRANCH  43  44
ENDBRANCH  42  43
ENDBRANCH  40  42
ENDBRANCH  17  40
TORSDOF 22
ENDMDL
MODEL 7
REMARK VINA RESULT:      -6.4      4.026      9.989
REMARK  22 active torsions:
REMARK  status: ('A' for Active; 'I' for Inactive)
REMARK    1  A    between atoms: C_2  and  C_4 
REMARK    2  A    between atoms: C_4  and  C_5 
REMARK    3  A    between atoms: C_5  and  C_6 
REMARK    4  A    between atoms: C_6  and  C_7 
REMARK    5  A    between atoms: C_7  and  C_8 
REMARK    6  A    between atoms: C_8  and  C_9 
REMARK    7  A    between atoms: C_9  and  C_10 
REMARK    8  A    between atoms: C_10  and  C_11 
REMARK    9  A    between atoms: C_11  and  C_12 
REMARK   10  A    between atoms: C_12  and  C_13 
REMARK   11  A    between atoms: C_13  and  C_14 
REMARK   12  A    between atoms: C_14  and  C_15 
REMARK   13  A    between atoms: C_15  and  C_16 
REMARK   14  A    between atoms: C_16  and  C_17 
REMARK   15  A    between atoms: C_17  and  C_18 
REMARK   16  A    between atoms: C_18  and  O_20 
REMARK   17  A    between atoms: O_20  and  C_21 
REMARK   18  A    between atoms: C_37  and  C_38 
REMARK   19  A    between atoms: C_38  and  C_40 
REMARK   20  A    between atoms: C_40  and  C_41 
REMARK   21  A    between atoms: C_41  and  C_42 
REMARK   22  A    between atoms: C_42  and  C_43 
ROOT
HETATM    1  C   UNL     1     -20.544 -10.008  -3.661  1.00  0.00     0.136 C 
HETATM    2  C   UNL     1     -21.088 -10.983  -2.624  1.00  0.00     0.034 C 
HETATM    3  C   UNL     1     -20.056 -12.050  -2.373  1.00  0.00     0.016 C 
HETATM    4  C   UNL     1     -18.854 -11.334  -1.681  1.00  0.00    -0.017 C 
HETATM    5  C   UNL     1     -17.669 -12.229  -1.969  1.00  0.00     0.003 C 
HETATM    6  C   UNL     1     -17.654 -13.331  -0.870  1.00  0.00     0.007 C 
HETATM    7  C   UNL     1     -16.463 -14.041  -1.229  1.00  0.00     0.010 C 
HETATM    8  C   UNL     1     -15.263 -13.052  -1.095  1.00  0.00    -0.036 C 
HETATM    9  C   UNL     1     -15.119 -12.355  -2.439  1.00  0.00    -0.001 C 
HETATM   10  C   UNL     1     -16.293 -11.456  -2.357  1.00  0.00    -0.001 C 
HETATM   11  C   UNL     1     -16.247 -10.389  -3.380  1.00  0.00     0.033 C 
HETATM   12  C   UNL     1     -17.338  -9.513  -2.921  1.00  0.00    -0.023 C 
HETATM   13  C   UNL     1     -18.490  -9.928  -2.337  1.00  0.00    -0.072 C 
HETATM   14  C   UNL     1     -19.579  -9.095  -2.961  1.00  0.00     0.067 C 
HETATM   15  C   UNL     1     -15.088 -13.444  -3.499  1.00  0.00     0.006 C 
HETATM   16  C   UNL     1     -14.418 -14.632  -2.655  1.00  0.00     0.006 C 
HETATM   17  C   UNL     1     -14.069 -13.953  -1.122  1.00  0.00    -0.002 C 
HETATM   18  C   UNL     1     -15.434 -11.963   0.092  1.00  0.00     0.016 C 
HETATM   19  C   UNL     1     -19.304 -11.473  -0.132  1.00  0.00     0.020 C 
ENDROOT
BRANCH   1  20
HETATM   20  O   UNL     1     -19.769 -10.693  -4.714  1.00  0.00    -0.316 OA
BRANCH  20  21
HETATM   21  C   UNL     1     -20.426 -11.206  -5.744  1.00  0.00     0.259 C 
HETATM   22  O   UNL     1     -21.157 -10.603  -6.480  1.00  0.00    -0.265 OA
BRANCH  21  23
HETATM   23  C   UNL     1     -20.086 -12.671  -5.976  1.00  0.00     0.111 C 
BRANCH  23  24
HETATM   24  C   UNL     1     -21.289 -13.584  -6.100  1.00  0.00     0.010 C 
BRANCH  24  25
HETATM   25  C   UNL     1     -22.069 -13.799  -4.819  1.00  0.00     0.000 C 
BRANCH  25  26
HETATM   26  C   UNL     1     -21.606 -15.055  -4.090  1.00  0.00     0.000 C 
BRANCH  26  27
HETATM   27  C   UNL     1     -22.007 -15.019  -2.627  1.00  0.00     0.000 C 
BRANCH  27  28
HETATM   28  C   UNL     1     -20.966 -15.748  -1.789  1.00  0.00     0.000 C 
BRANCH  28  29
HETATM   29  C   UNL     1     -21.409 -15.805  -0.338  1.00  0.00     0.000 C 
BRANCH  29  30
HETATM   30  C   UNL     1     -20.976 -14.544   0.390  1.00  0.00     0.000 C 
BRANCH  30  31
HETATM   31  C   UNL     1     -21.737 -14.407   1.697  1.00  0.00     0.000 C 
BRANCH  31  32
HETATM   32  C   UNL     1     -23.013 -13.611   1.475  1.00  0.00     0.000 C 
BRANCH  32  33
HETATM   33  C   UNL     1     -22.812 -12.602   0.358  1.00  0.00     0.000 C 
BRANCH  33  34
HETATM   34  C   UNL     1     -24.002 -11.657   0.265  1.00  0.00     0.000 C 
BRANCH  34  35
HETATM   35  C   UNL     1     -23.632 -10.461  -0.600  1.00  0.00     0.000 C 
BRANCH  35  36
HETATM   36  C   UNL     1     -23.353  -9.220   0.242  1.00  0.00     0.004 C 
BRANCH  36  37
HETATM   37  C   UNL     1     -21.966  -8.614  -0.027  1.00  0.00    -0.023 C 
HETATM   38  C   UNL     1     -22.132  -7.256  -0.716  1.00  0.00     0.009 C 
HETATM   39  C   UNL     1     -21.151  -8.475   1.263  1.00  0.00     0.009 C 
ENDBRANCH  36  37
ENDBRANCH  35  36
ENDBRANCH  34  35
ENDBRANCH  33  34
ENDBRANCH  32  33
ENDBRANCH  31  32
ENDBRANCH  30  31
ENDBRANCH  29  30
ENDBRANCH  28  29
ENDBRANCH  27  28
ENDBRANCH  26  27
ENDBRANCH  25  26
ENDBRANCH  24  25
ENDBRANCH  23  24
ENDBRANCH  21  23
ENDBRANCH  20  21
ENDBRANCH   1  20
BRANCH  17  40
HETATM   40  C   UNL     1     -13.951 -14.472   0.422  1.00  0.00    -0.014 C 
HETATM   41  C   UNL     1     -14.062 -16.050   0.562  1.00  0.00     0.010 C 
BRANCH  40  42
HETATM   42  C   UNL     1     -12.729 -14.040   1.339  1.00  0.00     0.005 C 
BRANCH  42  43
HETATM   43  C   UNL     1     -11.392 -14.051   0.578  1.00  0.00     0.001 C 
BRANCH  43  44
HETATM   44  C   UNL     1     -10.325 -13.213   1.234  1.00  0.00     0.004 C 
BRANCH  44  45
HETATM   45  C   UNL     1      -9.220 -14.016   1.904  1.00  0.00    -0.023 C 
HETATM   46  C   UNL     1      -9.114 -13.700   3.393  1.00  0.00     0.009 C 
HETATM   47  C   UNL     1      -9.534 -15.489   1.687  1.00  0.00     0.009 C 
ENDBRANCH  44  45
ENDBRANCH  43  44
ENDBRANCH  42  43
ENDBRANCH  40  42
ENDBRANCH  17  40
TORSDOF 22
ENDMDL
MODEL 8
REMARK VINA RESULT:      -6.4     17.045     21.061
REMARK  22 active torsions:
REMARK  status: ('A' for Active; 'I' for Inactive)
REMARK    1  A    between atoms: C_2  and  C_4 
REMARK    2  A    between atoms: C_4  and  C_5 
REMARK    3  A    between atoms: C_5  and  C_6 
REMARK    4  A    between atoms: C_6  and  C_7 
REMARK    5  A    between atoms: C_7  and  C_8 
REMARK    6  A    between atoms: C_8  and  C_9 
REMARK    7  A    between atoms: C_9  and  C_10 
REMARK    8  A    between atoms: C_10  and  C_11 
REMARK    9  A    between atoms: C_11  and  C_12 
REMARK   10  A    between atoms: C_12  and  C_13 
REMARK   11  A    between atoms: C_13  and  C_14 
REMARK   12  A    between atoms: C_14  and  C_15 
REMARK   13  A    between atoms: C_15  and  C_16 
REMARK   14  A    between atoms: C_16  and  C_17 
REMARK   15  A    between atoms: C_17  and  C_18 
REMARK   16  A    between atoms: C_18  and  O_20 
REMARK   17  A    between atoms: O_20  and  C_21 
REMARK   18  A    between atoms: C_37  and  C_38 
REMARK   19  A    between atoms: C_38  and  C_40 
REMARK   20  A    between atoms: C_40  and  C_41 
REMARK   21  A    between atoms: C_41  and  C_42 
REMARK   22  A    between atoms: C_42  and  C_43 
ROOT
HETATM    1  C   UNL     1     -23.725  11.791   0.051  1.00  0.00     0.136 C 
HETATM    2  C   UNL     1     -22.606  12.815  -0.102  1.00  0.00     0.034 C 
HETATM    3  C   UNL     1     -21.678  12.697   1.077  1.00  0.00     0.016 C 
HETATM    4  C   UNL     1     -20.987  11.304   0.947  1.00  0.00    -0.017 C 
HETATM    5  C   UNL     1     -20.551  10.968   2.355  1.00  0.00     0.003 C 
HETATM    6  C   UNL     1     -19.166  11.642   2.575  1.00  0.00     0.007 C 
HETATM    7  C   UNL     1     -18.861  11.183   3.898  1.00  0.00     0.010 C 
HETATM    8  C   UNL     1     -18.763   9.627   3.850  1.00  0.00    -0.036 C 
HETATM    9  C   UNL     1     -20.164   9.094   4.110  1.00  0.00    -0.001 C 
HETATM   10  C   UNL     1     -20.779   9.422   2.803  1.00  0.00    -0.001 C 
HETATM   11  C   UNL     1     -22.067   8.723   2.605  1.00  0.00     0.033 C 
HETATM   12  C   UNL     1     -22.318   8.995   1.180  1.00  0.00    -0.023 C 
HETATM   13  C   UNL     1     -21.988  10.137   0.525  1.00  0.00    -0.072 C 
HETATM   14  C   UNL     1     -23.173  10.454  -0.350  1.00  0.00     0.067 C 
HETATM   15  C   UNL     1     -20.672   9.783   5.366  1.00  0.00     0.006 C 
HETATM   16  C   UNL     1     -19.285  10.012   6.136  1.00  0.00     0.006 C 
HETATM   17  C   UNL     1     -18.094   9.284   5.144  1.00  0.00    -0.002 C 
HETATM   18  C   UNL     1     -18.185   9.043   2.455  1.00  0.00     0.016 C 
HETATM   19  C   UNL     1     -19.709  11.712   0.042  1.00  0.00     0.020 C 
ENDROOT
BRANCH   1  20
HETATM   20  O   UNL     1     -24.161  11.650   1.454  1.00  0.00    -0.316 OA
BRANCH  20  21
HETATM   21  C   UNL     1     -25.435  11.372   1.690  1.00  0.00     0.259 C 
HETATM   22  O   UNL     1     -26.376  11.996   1.282  1.00  0.00    -0.265 OA
BRANCH  21  23
HETATM   23  C   UNL     1     -25.610  10.084   2.481  1.00  0.00     0.111 C 
BRANCH  23  24
HETATM   24  C   UNL     1     -26.610   9.113   1.888  1.00  0.00     0.010 C 
BRANCH  24  25
HETATM   25  C   UNL     1     -26.102   8.305   0.711  1.00  0.00     0.000 C 
BRANCH  25  26
HETATM   26  C   UNL     1     -26.625   8.859  -0.610  1.00  0.00     0.000 C 
BRANCH  26  27
HETATM   27  C   UNL     1     -28.118   8.627  -0.749  1.00  0.00     0.000 C 
BRANCH  27  28
HETATM   28  C   UNL     1     -28.574   9.026  -2.145  1.00  0.00     0.000 C 
BRANCH  28  29
HETATM   29  C   UNL     1     -27.612  10.039  -2.740  1.00  0.00     0.000 C 
BRANCH  29  30
HETATM   30  C   UNL     1     -28.075  10.447  -4.127  1.00  0.00     0.000 C 
BRANCH  30  31
HETATM   31  C   UNL     1     -27.794   9.333  -5.121  1.00  0.00     0.000 C 
BRANCH  31  32
HETATM   32  C   UNL     1     -26.428   9.536  -5.758  1.00  0.00     0.000 C 
BRANCH  32  33
HETATM   33  C   UNL     1     -25.526   8.355  -5.448  1.00  0.00     0.000 C 
BRANCH  33  34
HETATM   34  C   UNL     1     -26.352   7.123  -5.103  1.00  0.00     0.000 C 
BRANCH  34  35
HETATM   35  C   UNL     1     -25.645   6.329  -4.013  1.00  0.00     0.000 C 
BRANCH  35  36
HETATM   36  C   UNL     1     -25.020   7.244  -2.964  1.00  0.00     0.004 C 
BRANCH  36  37
HETATM   37  C   UNL     1     -23.569   6.864  -2.626  1.00  0.00    -0.023 C 
HETATM   38  C   UNL     1     -22.638   8.006  -3.043  1.00  0.00     0.009 C 
HETATM   39  C   UNL     1     -23.403   6.538  -1.139  1.00  0.00     0.009 C 
ENDBRANCH  36  37
ENDBRANCH  35  36
ENDBRANCH  34  35
ENDBRANCH  33  34
ENDBRANCH  32  33
ENDBRANCH  31  32
ENDBRANCH  30  31
ENDBRANCH  29  30
ENDBRANCH  28  29
ENDBRANCH  27  28
ENDBRANCH  26  27
ENDBRANCH  25  26
ENDBRANCH  24  25
ENDBRANCH  23  24
ENDBRANCH  21  23
ENDBRANCH  20  21
ENDBRANCH   1  20
BRANCH  17  40
HETATM   40  C   UNL     1     -16.508   9.498   4.817  1.00  0.00    -0.014 C 
HETATM   41  C   UNL     1     -15.942  10.883   5.351  1.00  0.00     0.010 C 
BRANCH  40  42
HETATM   42  C   UNL     1     -15.434   8.403   5.226  1.00  0.00     0.005 C 
BRANCH  42  43
HETATM   43  C   UNL     1     -14.553   7.975   4.039  1.00  0.00     0.001 C 
BRANCH  43  44
HETATM   44  C   UNL     1     -13.867   9.131   3.357  1.00  0.00     0.004 C 
BRANCH  44  45
HETATM   45  C   UNL     1     -14.037   9.158   1.845  1.00  0.00    -0.023 C 
HETATM   46  C   UNL     1     -14.853   7.970   1.345  1.00  0.00     0.009 C 
HETATM   47  C   UNL     1     -14.721  10.470   1.489  1.00  0.00     0.009 C 
ENDBRANCH  44  45
ENDBRANCH  43  44
ENDBRANCH  42  43
ENDBRANCH  40  42
ENDBRANCH  17  40
TORSDOF 22
ENDMDL
MODEL 9
REMARK VINA RESULT:      -6.4      3.746     10.300
REMARK  22 active torsions:
REMARK  status: ('A' for Active; 'I' for Inactive)
REMARK    1  A    between atoms: C_2  and  C_4 
REMARK    2  A    between atoms: C_4  and  C_5 
REMARK    3  A    between atoms: C_5  and  C_6 
REMARK    4  A    between atoms: C_6  and  C_7 
REMARK    5  A    between atoms: C_7  and  C_8 
REMARK    6  A    between atoms: C_8  and  C_9 
REMARK    7  A    between atoms: C_9  and  C_10 
REMARK    8  A    between atoms: C_10  and  C_11 
REMARK    9  A    between atoms: C_11  and  C_12 
REMARK   10  A    between atoms: C_12  and  C_13 
REMARK   11  A    between atoms: C_13  and  C_14 
REMARK   12  A    between atoms: C_14  and  C_15 
REMARK   13  A    between atoms: C_15  and  C_16 
REMARK   14  A    between atoms: C_16  and  C_17 
REMARK   15  A    between atoms: C_17  and  C_18 
REMARK   16  A    between atoms: C_18  and  O_20 
REMARK   17  A    between atoms: O_20  and  C_21 
REMARK   18  A    between atoms: C_37  and  C_38 
REMARK   19  A    between atoms: C_38  and  C_40 
REMARK   20  A    between atoms: C_40  and  C_41 
REMARK   21  A    between atoms: C_41  and  C_42 
REMARK   22  A    between atoms: C_42  and  C_43 
ROOT
HETATM    1  C   UNL     1     -18.795  -9.807  -5.577  1.00  0.00     0.136 C 
HETATM    2  C   UNL     1     -18.624  -9.088  -4.244  1.00  0.00     0.034 C 
HETATM    3  C   UNL     1     -18.211 -10.092  -3.202  1.00  0.00     0.016 C 
HETATM    4  C   UNL     1     -16.781 -10.570  -3.604  1.00  0.00    -0.017 C 
HETATM    5  C   UNL     1     -16.639 -11.924  -2.945  1.00  0.00     0.003 C 
HETATM    6  C   UNL     1     -16.153 -11.672  -1.488  1.00  0.00     0.007 C 
HETATM    7  C   UNL     1     -16.001 -13.020  -1.028  1.00  0.00     0.010 C 
HETATM    8  C   UNL     1     -14.908 -13.702  -1.909  1.00  0.00    -0.036 C 
HETATM    9  C   UNL     1     -15.627 -14.310  -3.103  1.00  0.00    -0.001 C 
HETATM   10  C   UNL     1     -15.919 -13.065  -3.852  1.00  0.00    -0.001 C 
HETATM   11  C   UNL     1     -16.325 -13.339  -5.246  1.00  0.00     0.033 C 
HETATM   12  C   UNL     1     -16.290 -11.984  -5.820  1.00  0.00    -0.023 C 
HETATM   13  C   UNL     1     -16.618 -10.841  -5.166  1.00  0.00    -0.072 C 
HETATM   14  C   UNL     1     -17.425 -10.033  -6.148  1.00  0.00     0.067 C 
HETATM   15  C   UNL     1     -16.779 -15.134  -2.552  1.00  0.00     0.006 C 
HETATM   16  C   UNL     1     -16.154 -15.575  -1.143  1.00  0.00     0.006 C 
HETATM   17  C   UNL     1     -14.564 -14.937  -1.137  1.00  0.00    -0.002 C 
HETATM   18  C   UNL     1     -13.737 -12.699  -2.403  1.00  0.00     0.016 C 
HETATM   19  C   UNL     1     -15.891  -9.466  -2.823  1.00  0.00     0.020 C 
ENDROOT
BRANCH   1  20
HETATM   20  O   UNL     1     -19.397 -11.145  -5.414  1.00  0.00    -0.316 OA
BRANCH  20  21
HETATM   21  C   UNL     1     -20.627 -11.339  -5.864  1.00  0.00     0.259 C 
HETATM   22  O   UNL     1     -21.293 -10.533  -6.454  1.00  0.00    -0.265 OA
BRANCH  21  23
HETATM   23  C   UNL     1     -21.107 -12.765  -5.642  1.00  0.00     0.111 C 
BRANCH  23  24
HETATM   24  C   UNL     1     -20.484 -13.461  -4.449  1.00  0.00     0.010 C 
BRANCH  24  25
HETATM   25  C   UNL     1     -21.096 -13.110  -3.108  1.00  0.00     0.000 C 
BRANCH  25  26
HETATM   26  C   UNL     1     -20.452 -13.906  -1.978  1.00  0.00     0.000 C 
BRANCH  26  27
HETATM   27  C   UNL     1     -19.641 -13.003  -1.066  1.00  0.00     0.000 C 
BRANCH  27  28
HETATM   28  C   UNL     1     -19.634 -13.571   0.346  1.00  0.00     0.000 C 
BRANCH  28  29
HETATM   29  C   UNL     1     -20.664 -14.680   0.470  1.00  0.00     0.000 C 
BRANCH  29  30
HETATM   30  C   UNL     1     -21.764 -14.266   1.432  1.00  0.00     0.000 C 
BRANCH  30  31
HETATM   31  C   UNL     1     -23.034 -13.940   0.665  1.00  0.00     0.000 C 
BRANCH  31  32
HETATM   32  C   UNL     1     -23.431 -12.492   0.907  1.00  0.00     0.000 C 
BRANCH  32  33
HETATM   33  C   UNL     1     -23.369 -11.708  -0.392  1.00  0.00     0.000 C 
BRANCH  33  34
HETATM   34  C   UNL     1     -22.465 -10.492  -0.244  1.00  0.00     0.000 C 
BRANCH  34  35
HETATM   35  C   UNL     1     -23.302  -9.285   0.154  1.00  0.00     0.000 C 
BRANCH  35  36
HETATM   36  C   UNL     1     -22.500  -7.990   0.072  1.00  0.00     0.004 C 
BRANCH  36  37
HETATM   37  C   UNL     1     -21.929  -7.727  -1.330  1.00  0.00    -0.023 C 
HETATM   38  C   UNL     1     -22.286  -6.301  -1.762  1.00  0.00     0.009 C 
HETATM   39  C   UNL     1     -20.413  -7.947  -1.373  1.00  0.00     0.009 C 
ENDBRANCH  36  37
ENDBRANCH  35  36
ENDBRANCH  34  35
ENDBRANCH  33  34
ENDBRANCH  32  33
ENDBRANCH  31  32
ENDBRANCH  30  31
ENDBRANCH  29  30
ENDBRANCH  28  29
ENDBRANCH  27  28
ENDBRANCH  26  27
ENDBRANCH  25  26
ENDBRANCH  24  25
ENDBRANCH  23  24
ENDBRANCH  21  23
ENDBRANCH  20  21
ENDBRANCH   1  20
BRANCH  17  40
HETATM   40  C   UNL     1     -13.489 -14.403  -0.030  1.00  0.00    -0.014 C 
HETATM   41  C   UNL     1     -13.840 -14.856   1.452  1.00  0.00     0.010 C 
BRANCH  40  42
HETATM   42  C   UNL     1     -11.934 -14.668  -0.207  1.00  0.00     0.005 C 
BRANCH  42  43
HETATM   43  C   UNL     1     -11.171 -14.598   1.128  1.00  0.00     0.001 C 
BRANCH  43  44
HETATM   44  C   UNL     1     -10.125 -13.514   1.161  1.00  0.00     0.004 C 
BRANCH  44  45
HETATM   45  C   UNL     1      -8.906 -13.844   2.012  1.00  0.00    -0.023 C 
HETATM   46  C   UNL     1      -9.231 -13.815   3.502  1.00  0.00     0.009 C 
HETATM   47  C   UNL     1      -8.422 -15.225   1.593  1.00  0.00     0.009 C 
ENDBRANCH  44  45
ENDBRANCH  43  44
ENDBRANCH  42  43
ENDBRANCH  40  42
ENDBRANCH  17  40
TORSDOF 22
ENDMDL
