MODEL 1
REMARK VINA RESULT:      -7.5      0.000      0.000
REMARK  14 active torsions:
REMARK  status: ('A' for Active; 'I' for Inactive)
REMARK    1  A    between atoms: C_2  and  C_3 
REMARK    2  A    between atoms: C_4  and  C_5 
REMARK    3  A    between atoms: C_5  and  C_6 
REMARK    4  A    between atoms: C_7  and  C_8 
REMARK    5  A    between atoms: C_8  and  C_9 
REMARK    6  A    between atoms: C_10  and  C_11 
REMARK    7  A    between atoms: C_11  and  C_12 
REMARK    8  A    between atoms: C_12  and  C_13 
REMARK    9  A    between atoms: C_13  and  C_14 
REMARK   10  A    between atoms: C_14  and  C_15 
REMARK   11  A    between atoms: C_15  and  C_16 
REMARK   12  A    between atoms: C_16  and  C_17 
REMARK   13  A    between atoms: C_17  and  C_18 
REMARK   14  A    between atoms: C_18  and  O_20 
ROOT
HETATM    1  C   UNL     1     -20.529  -4.333  -8.039  1.00  0.00     0.027 C 
ENDROOT
BRANCH   1   2
HETATM    2  C   UNL     1     -20.115  -5.365  -7.041  1.00  0.00    -0.030 C 
HETATM    3  C   UNL     1     -20.965  -6.282  -6.556  1.00  0.00    -0.027 C 
BRANCH   3   4
HETATM    4  C   UNL     1     -20.561  -7.316  -5.554  1.00  0.00     0.053 C 
BRANCH   4   5
HETATM    5  C   UNL     1     -21.377  -7.214  -4.304  1.00  0.00    -0.027 C 
HETATM    6  C   UNL     1     -21.334  -6.148  -3.491  1.00  0.00    -0.027 C 
BRANCH   6   7
HETATM    7  C   UNL     1     -22.149  -6.044  -2.241  1.00  0.00     0.053 C 
BRANCH   7   8
HETATM    8  C   UNL     1     -21.981  -7.251  -1.370  1.00  0.00    -0.027 C 
HETATM    9  C   UNL     1     -22.572  -7.377  -0.172  1.00  0.00    -0.031 C 
BRANCH   9  10
HETATM   10  C   UNL     1     -22.407  -8.587   0.695  1.00  0.00     0.022 C 
HETATM   11  C   UNL     1     -21.142  -9.348   0.335  1.00  0.00     0.009 C 
ENDBRANCH   9  10
ENDBRANCH   7   8
ENDBRANCH   6   7
ENDBRANCH   4   5
ENDBRANCH   3   4
ENDBRANCH   1   2
BRANCH   1  12
HETATM   12  C   UNL     1     -22.011  -4.009  -7.893  1.00  0.00     0.004 C 
BRANCH  12  13
HETATM   13  C   UNL     1     -22.620  -3.700  -9.254  1.00  0.00     0.000 C 
BRANCH  13  14
HETATM   14  C   UNL     1     -21.659  -4.085 -10.371  1.00  0.00     0.000 C 
BRANCH  14  15
HETATM   15  C   UNL     1     -21.737  -3.077 -11.515  1.00  0.00     0.001 C 
BRANCH  15  16
HETATM   16  C   UNL     1     -23.189  -2.766 -11.851  1.00  0.00     0.010 C 
BRANCH  16  17
HETATM   17  C   UNL     1     -23.642  -3.437 -13.147  1.00  0.00     0.110 C 
BRANCH  17  18
HETATM   18  C   UNL     1     -23.418  -2.502 -14.313  1.00  0.00     0.139 C 
HETATM   19  O   UNL     1     -22.616  -2.682 -15.209  1.00  0.00    -0.650 OA
BRANCH  18  20
HETATM   20  O   UNL     1     -24.212  -1.404 -14.282  1.00  0.00    -0.776 OA
HETATM   21  H   UNL     1     -24.572  -1.179 -13.402  1.00  0.00     0.167 HD
ENDBRANCH  18  20
ENDBRANCH  17  18
ENDBRANCH  16  17
ENDBRANCH  15  16
ENDBRANCH  14  15
ENDBRANCH  13  14
ENDBRANCH  12  13
ENDBRANCH   1  12
TORSDOF 14
ENDMDL
MODEL 2
REMARK VINA RESULT:      -7.3      2.288      2.979
REMARK  14 active torsions:
REMARK  status: ('A' for Active; 'I' for Inactive)
REMARK    1  A    between atoms: C_2  and  C_3 
REMARK    2  A    between atoms: C_4  and  C_5 
REMARK    3  A    between atoms: C_5  and  C_6 
REMARK    4  A    between atoms: C_7  and  C_8 
REMARK    5  A    between atoms: C_8  and  C_9 
REMARK    6  A    between atoms: C_10  and  C_11 
REMARK    7  A    between atoms: C_11  and  C_12 
REMARK    8  A    between atoms: C_12  and  C_13 
REMARK    9  A    between atoms: C_13  and  C_14 
REMARK   10  A    between atoms: C_14  and  C_15 
REMARK   11  A    between atoms: C_15  and  C_16 
REMARK   12  A    between atoms: C_16  and  C_17 
REMARK   13  A    between atoms: C_17  and  C_18 
REMARK   14  A    between atoms: C_18  and  O_20 
ROOT
HETATM    1  C   UNL     1     -19.690  -4.639  -6.510  1.00  0.00     0.027 C 
ENDROOT
BRANCH   1   2
HETATM    2  C   UNL     1     -20.907  -5.185  -5.836  1.00  0.00    -0.030 C 
HETATM    3  C   UNL     1     -20.851  -5.847  -4.671  1.00  0.00    -0.027 C 
BRANCH   3   4
HETATM    4  C   UNL     1     -22.063  -6.400  -3.993  1.00  0.00     0.053 C 
BRANCH   4   5
HETATM    5  C   UNL     1     -21.710  -7.057  -2.695  1.00  0.00    -0.027 C 
HETATM    6  C   UNL     1     -22.325  -6.762  -1.539  1.00  0.00    -0.027 C 
BRANCH   6   7
HETATM    7  C   UNL     1     -21.975  -7.418  -0.241  1.00  0.00     0.053 C 
BRANCH   7   8
HETATM    8  C   UNL     1     -23.001  -8.435   0.158  1.00  0.00    -0.027 C 
HETATM    9  C   UNL     1     -23.059  -9.664  -0.376  1.00  0.00    -0.031 C 
BRANCH   9  10
HETATM   10  C   UNL     1     -24.081 -10.681   0.027  1.00  0.00     0.022 C 
HETATM   11  C   UNL     1     -23.797 -12.027  -0.617  1.00  0.00     0.009 C 
ENDBRANCH   9  10
ENDBRANCH   7   8
ENDBRANCH   6   7
ENDBRANCH   4   5
ENDBRANCH   3   4
ENDBRANCH   1   2
BRANCH   1  12
HETATM   12  C   UNL     1     -19.670  -5.032  -7.982  1.00  0.00     0.004 C 
BRANCH  12  13
HETATM   13  C   UNL     1     -20.433  -4.008  -8.812  1.00  0.00     0.000 C 
BRANCH  13  14
HETATM   14  C   UNL     1     -20.741  -4.562 -10.196  1.00  0.00     0.000 C 
BRANCH  14  15
HETATM   15  C   UNL     1     -21.219  -3.449 -11.124  1.00  0.00     0.001 C 
BRANCH  15  16
HETATM   16  C   UNL     1     -22.644  -3.719 -11.588  1.00  0.00     0.010 C 
BRANCH  16  17
HETATM   17  C   UNL     1     -23.412  -4.614 -10.617  1.00  0.00     0.110 C 
BRANCH  17  18
HETATM   18  C   UNL     1     -24.394  -3.784  -9.823  1.00  0.00     0.139 C 
HETATM   19  O   UNL     1     -25.305  -3.134 -10.298  1.00  0.00    -0.650 OA
BRANCH  18  20
HETATM   20  O   UNL     1     -24.171  -3.820  -8.487  1.00  0.00    -0.776 OA
HETATM   21  H   UNL     1     -23.386  -3.323  -8.184  1.00  0.00     0.167 HD
ENDBRANCH  18  20
ENDBRANCH  17  18
ENDBRANCH  16  17
ENDBRANCH  15  16
ENDBRANCH  14  15
ENDBRANCH  13  14
ENDBRANCH  12  13
ENDBRANCH   1  12
TORSDOF 14
ENDMDL
MODEL 3
REMARK VINA RESULT:      -7.3      1.688      2.856
REMARK  14 active torsions:
REMARK  status: ('A' for Active; 'I' for Inactive)
REMARK    1  A    between atoms: C_2  and  C_3 
REMARK    2  A    between atoms: C_4  and  C_5 
REMARK    3  A    between atoms: C_5  and  C_6 
REMARK    4  A    between atoms: C_7  and  C_8 
REMARK    5  A    between atoms: C_8  and  C_9 
REMARK    6  A    between atoms: C_10  and  C_11 
REMARK    7  A    between atoms: C_11  and  C_12 
REMARK    8  A    between atoms: C_12  and  C_13 
REMARK    9  A    between atoms: C_13  and  C_14 
REMARK   10  A    between atoms: C_14  and  C_15 
REMARK   11  A    between atoms: C_15  and  C_16 
REMARK   12  A    between atoms: C_16  and  C_17 
REMARK   13  A    between atoms: C_17  and  C_18 
REMARK   14  A    between atoms: C_18  and  O_20 
ROOT
HETATM    1  C   UNL     1     -20.672  -6.247  -6.357  1.00  0.00     0.027 C 
ENDROOT
BRANCH   1   2
HETATM    2  C   UNL     1     -20.911  -5.771  -4.961  1.00  0.00    -0.030 C 
HETATM    3  C   UNL     1     -21.392  -6.570  -3.998  1.00  0.00    -0.027 C 
BRANCH   3   4
HETATM    4  C   UNL     1     -21.639  -6.101  -2.600  1.00  0.00     0.053 C 
BRANCH   4   5
HETATM    5  C   UNL     1     -22.114  -7.217  -1.725  1.00  0.00    -0.027 C 
HETATM    6  C   UNL     1     -22.444  -7.042  -0.435  1.00  0.00    -0.027 C 
BRANCH   6   7
HETATM    7  C   UNL     1     -22.920  -8.156   0.442  1.00  0.00     0.053 C 
BRANCH   7   8
HETATM    8  C   UNL     1     -22.940  -9.464  -0.289  1.00  0.00    -0.027 C 
HETATM    9  C   UNL     1     -23.870 -10.407  -0.075  1.00  0.00    -0.031 C 
BRANCH   9  10
HETATM   10  C   UNL     1     -23.892 -11.711  -0.810  1.00  0.00     0.022 C 
HETATM   11  C   UNL     1     -23.082 -11.629  -2.093  1.00  0.00     0.009 C 
ENDBRANCH   9  10
ENDBRANCH   7   8
ENDBRANCH   6   7
ENDBRANCH   4   5
ENDBRANCH   3   4
ENDBRANCH   1   2
BRANCH   1  12
HETATM   12  C   UNL     1     -20.231  -5.094  -7.249  1.00  0.00     0.004 C 
BRANCH  12  13
HETATM   13  C   UNL     1     -21.419  -4.202  -7.584  1.00  0.00     0.000 C 
BRANCH  13  14
HETATM   14  C   UNL     1     -21.764  -4.301  -9.064  1.00  0.00     0.000 C 
BRANCH  14  15
HETATM   15  C   UNL     1     -20.499  -4.486  -9.898  1.00  0.00     0.001 C 
BRANCH  15  16
HETATM   16  C   UNL     1     -20.743  -4.052 -11.337  1.00  0.00     0.010 C 
BRANCH  16  17
HETATM   17  C   UNL     1     -21.593  -2.786 -11.426  1.00  0.00     0.110 C 
BRANCH  17  18
HETATM   18  C   UNL     1     -22.705  -2.986 -12.430  1.00  0.00     0.139 C 
HETATM   19  O   UNL     1     -23.891  -2.872 -12.192  1.00  0.00    -0.650 OA
BRANCH  18  20
HETATM   20  O   UNL     1     -22.259  -3.315 -13.667  1.00  0.00    -0.776 OA
HETATM   21  H   UNL     1     -22.020  -2.557 -14.236  1.00  0.00     0.167 HD
ENDBRANCH  18  20
ENDBRANCH  17  18
ENDBRANCH  16  17
ENDBRANCH  15  16
ENDBRANCH  14  15
ENDBRANCH  13  14
ENDBRANCH  12  13
ENDBRANCH   1  12
TORSDOF 14
ENDMDL
MODEL 4
REMARK VINA RESULT:      -7.0      2.380      2.828
REMARK  14 active torsions:
REMARK  status: ('A' for Active; 'I' for Inactive)
REMARK    1  A    between atoms: C_2  and  C_3 
REMARK    2  A    between atoms: C_4  and  C_5 
REMARK    3  A    between atoms: C_5  and  C_6 
REMARK    4  A    between atoms: C_7  and  C_8 
REMARK    5  A    between atoms: C_8  and  C_9 
REMARK    6  A    between atoms: C_10  and  C_11 
REMARK    7  A    between atoms: C_11  and  C_12 
REMARK    8  A    between atoms: C_12  and  C_13 
REMARK    9  A    between atoms: C_13  and  C_14 
REMARK   10  A    between atoms: C_14  and  C_15 
REMARK   11  A    between atoms: C_15  and  C_16 
REMARK   12  A    between atoms: C_16  and  C_17 
REMARK   13  A    between atoms: C_17  and  C_18 
REMARK   14  A    between atoms: C_18  and  O_20 
ROOT
HETATM    1  C   UNL     1     -19.701  -4.776  -7.284  1.00  0.00     0.027 C 
ENDROOT
BRANCH   1   2
HETATM    2  C   UNL     1     -20.539  -5.841  -6.655  1.00  0.00    -0.030 C 
HETATM    3  C   UNL     1     -21.445  -5.578  -5.702  1.00  0.00    -0.027 C 
BRANCH   3   4
HETATM    4  C   UNL     1     -22.285  -6.638  -5.064  1.00  0.00     0.053 C 
BRANCH   4   5
HETATM    5  C   UNL     1     -21.612  -7.216  -3.859  1.00  0.00    -0.027 C 
HETATM    6  C   UNL     1     -20.541  -8.021  -3.939  1.00  0.00    -0.027 C 
BRANCH   6   7
HETATM    7  C   UNL     1     -19.867  -8.600  -2.735  1.00  0.00     0.053 C 
BRANCH   7   8
HETATM    8  C   UNL     1     -20.437  -8.048  -1.464  1.00  0.00    -0.027 C 
HETATM    9  C   UNL     1     -21.145  -8.789  -0.598  1.00  0.00    -0.031 C 
BRANCH   9  10
HETATM   10  C   UNL     1     -21.709  -8.237   0.674  1.00  0.00     0.022 C 
HETATM   11  C   UNL     1     -23.221  -8.103   0.588  1.00  0.00     0.009 C 
ENDBRANCH   9  10
ENDBRANCH   7   8
ENDBRANCH   6   7
ENDBRANCH   4   5
ENDBRANCH   3   4
ENDBRANCH   1   2
BRANCH   1  12
HETATM   12  C   UNL     1     -19.618  -4.978  -8.792  1.00  0.00     0.004 C 
BRANCH  12  13
HETATM   13  C   UNL     1     -20.720  -4.192  -9.490  1.00  0.00     0.000 C 
BRANCH  13  14
HETATM   14  C   UNL     1     -20.373  -3.968 -10.956  1.00  0.00     0.000 C 
BRANCH  14  15
HETATM   15  C   UNL     1     -21.638  -3.949 -11.809  1.00  0.00     0.001 C 
BRANCH  15  16
HETATM   16  C   UNL     1     -22.852  -4.320 -10.968  1.00  0.00     0.010 C 
BRANCH  16  17
HETATM   17  C   UNL     1     -23.960  -3.272 -11.051  1.00  0.00     0.110 C 
BRANCH  17  18
HETATM   18  C   UNL     1     -24.825  -3.342  -9.814  1.00  0.00     0.139 C 
HETATM   19  O   UNL     1     -26.030  -3.179  -9.794  1.00  0.00    -0.650 OA
BRANCH  18  20
HETATM   20  O   UNL     1     -24.128  -3.613  -8.684  1.00  0.00    -0.776 OA
HETATM   21  H   UNL     1     -23.440  -2.957  -8.456  1.00  0.00     0.167 HD
ENDBRANCH  18  20
ENDBRANCH  17  18
ENDBRANCH  16  17
ENDBRANCH  15  16
ENDBRANCH  14  15
ENDBRANCH  13  14
ENDBRANCH  12  13
ENDBRANCH   1  12
TORSDOF 14
ENDMDL
MODEL 5
REMARK VINA RESULT:      -6.5      1.302      2.074
REMARK  14 active torsions:
REMARK  status: ('A' for Active; 'I' for Inactive)
REMARK    1  A    between atoms: C_2  and  C_3 
REMARK    2  A    between atoms: C_4  and  C_5 
REMARK    3  A    between atoms: C_5  and  C_6 
REMARK    4  A    between atoms: C_7  and  C_8 
REMARK    5  A    between atoms: C_8  and  C_9 
REMARK    6  A    between atoms: C_10  and  C_11 
REMARK    7  A    between atoms: C_11  and  C_12 
REMARK    8  A    between atoms: C_12  and  C_13 
REMARK    9  A    between atoms: C_13  and  C_14 
REMARK   10  A    between atoms: C_14  and  C_15 
REMARK   11  A    between atoms: C_15  and  C_16 
REMARK   12  A    between atoms: C_16  and  C_17 
REMARK   13  A    between atoms: C_17  and  C_18 
REMARK   14  A    between atoms: C_18  and  O_20 
ROOT
HETATM    1  C   UNL     1     -20.397  -4.792  -6.443  1.00  0.00     0.027 C 
ENDROOT
BRANCH   1   2
HETATM    2  C   UNL     1     -20.835  -6.220  -6.446  1.00  0.00    -0.030 C 
HETATM    3  C   UNL     1     -20.820  -6.983  -5.343  1.00  0.00    -0.027 C 
BRANCH   3   4
HETATM    4  C   UNL     1     -21.251  -8.414  -5.339  1.00  0.00     0.053 C 
BRANCH   4   5
HETATM    5  C   UNL     1     -21.190  -8.999  -3.963  1.00  0.00    -0.027 C 
HETATM    6  C   UNL     1     -21.910 -10.070  -3.594  1.00  0.00    -0.027 C 
BRANCH   6   7
HETATM    7  C   UNL     1     -21.850 -10.657  -2.220  1.00  0.00     0.053 C 
BRANCH   7   8
HETATM    8  C   UNL     1     -22.216  -9.649  -1.172  1.00  0.00    -0.027 C 
HETATM    9  C   UNL     1     -21.373  -9.263  -0.203  1.00  0.00    -0.031 C 
BRANCH   9  10
HETATM   10  C   UNL     1     -21.739  -8.252   0.840  1.00  0.00     0.022 C 
HETATM   11  C   UNL     1     -23.227  -7.946   0.805  1.00  0.00     0.009 C 
ENDBRANCH   9  10
ENDBRANCH   7   8
ENDBRANCH   6   7
ENDBRANCH   4   5
ENDBRANCH   3   4
ENDBRANCH   1   2
BRANCH   1  12
HETATM   12  C   UNL     1     -20.960  -4.055  -7.652  1.00  0.00     0.004 C 
BRANCH  12  13
HETATM   13  C   UNL     1     -22.470  -4.240  -7.726  1.00  0.00     0.000 C 
BRANCH  13  14
HETATM   14  C   UNL     1     -22.978  -3.947  -9.131  1.00  0.00     0.000 C 
BRANCH  14  15
HETATM   15  C   UNL     1     -21.966  -4.411 -10.174  1.00  0.00     0.001 C 
BRANCH  15  16
HETATM   16  C   UNL     1     -21.901  -3.422 -11.330  1.00  0.00     0.010 C 
BRANCH  16  17
HETATM   17  C   UNL     1     -23.275  -2.856 -11.687  1.00  0.00     0.110 C 
BRANCH  17  18
HETATM   18  C   UNL     1     -23.368  -2.644 -13.181  1.00  0.00     0.139 C 
HETATM   19  O   UNL     1     -22.545  -3.019 -13.992  1.00  0.00    -0.650 OA
BRANCH  18  20
HETATM   20  O   UNL     1     -24.486  -1.978 -13.561  1.00  0.00    -0.776 OA
HETATM   21  H   UNL     1     -24.707  -1.197 -13.016  1.00  0.00     0.167 HD
ENDBRANCH  18  20
ENDBRANCH  17  18
ENDBRANCH  16  17
ENDBRANCH  15  16
ENDBRANCH  14  15
ENDBRANCH  13  14
ENDBRANCH  12  13
ENDBRANCH   1  12
TORSDOF 14
ENDMDL
MODEL 6
REMARK VINA RESULT:      -6.4      2.942      4.899
REMARK  14 active torsions:
REMARK  status: ('A' for Active; 'I' for Inactive)
REMARK    1  A    between atoms: C_2  and  C_3 
REMARK    2  A    between atoms: C_4  and  C_5 
REMARK    3  A    between atoms: C_5  and  C_6 
REMARK    4  A    between atoms: C_7  and  C_8 
REMARK    5  A    between atoms: C_8  and  C_9 
REMARK    6  A    between atoms: C_10  and  C_11 
REMARK    7  A    between atoms: C_11  and  C_12 
REMARK    8  A    between atoms: C_12  and  C_13 
REMARK    9  A    between atoms: C_13  and  C_14 
REMARK   10  A    between atoms: C_14  and  C_15 
REMARK   11  A    between atoms: C_15  and  C_16 
REMARK   12  A    between atoms: C_16  and  C_17 
REMARK   13  A    between atoms: C_17  and  C_18 
REMARK   14  A    between atoms: C_18  and  O_20 
ROOT
HETATM    1  C   UNL     1     -21.304  -5.912  -3.972  1.00  0.00     0.027 C 
ENDROOT
BRANCH   1   2
HETATM    2  C   UNL     1     -21.254  -6.808  -2.778  1.00  0.00    -0.030 C 
HETATM    3  C   UNL     1     -22.013  -6.605  -1.691  1.00  0.00    -0.027 C 
BRANCH   3   4
HETATM    4  C   UNL     1     -21.966  -7.494  -0.489  1.00  0.00     0.053 C 
BRANCH   4   5
HETATM    5  C   UNL     1     -22.716  -8.767  -0.722  1.00  0.00    -0.027 C 
HETATM    6  C   UNL     1     -22.496  -9.882  -0.008  1.00  0.00    -0.027 C 
BRANCH   6   7
HETATM    7  C   UNL     1     -23.244 -11.157  -0.237  1.00  0.00     0.053 C 
BRANCH   7   8
HETATM    8  C   UNL     1     -22.769 -12.248   0.674  1.00  0.00    -0.027 C 
HETATM    9  C   UNL     1     -23.486 -13.354   0.925  1.00  0.00    -0.031 C 
BRANCH   9  10
HETATM   10  C   UNL     1     -23.008 -14.445   1.832  1.00  0.00     0.022 C 
HETATM   11  C   UNL     1     -23.914 -14.586   3.043  1.00  0.00     0.009 C 
ENDBRANCH   9  10
ENDBRANCH   7   8
ENDBRANCH   6   7
ENDBRANCH   4   5
ENDBRANCH   3   4
ENDBRANCH   1   2
BRANCH   1  12
HETATM   12  C   UNL     1     -20.939  -6.682  -5.236  1.00  0.00     0.004 C 
BRANCH  12  13
HETATM   13  C   UNL     1     -20.195  -5.776  -6.208  1.00  0.00     0.000 C 
BRANCH  13  14
HETATM   14  C   UNL     1     -20.966  -5.643  -7.514  1.00  0.00     0.000 C 
BRANCH  14  15
HETATM   15  C   UNL     1     -21.849  -4.398  -7.490  1.00  0.00     0.001 C 
BRANCH  15  16
HETATM   16  C   UNL     1     -22.481  -4.169  -8.857  1.00  0.00     0.010 C 
BRANCH  16  17
HETATM   17  C   UNL     1     -24.004  -4.279  -8.818  1.00  0.00     0.110 C 
BRANCH  17  18
HETATM   18  C   UNL     1     -24.608  -3.407  -9.895  1.00  0.00     0.139 C 
HETATM   19  O   UNL     1     -24.000  -2.941 -10.839  1.00  0.00    -0.650 OA
BRANCH  18  20
HETATM   20  O   UNL     1     -25.932  -3.175  -9.720  1.00  0.00    -0.776 OA
HETATM   21  H   UNL     1     -26.226  -3.138  -8.788  1.00  0.00     0.167 HD
ENDBRANCH  18  20
ENDBRANCH  17  18
ENDBRANCH  16  17
ENDBRANCH  15  16
ENDBRANCH  14  15
ENDBRANCH  13  14
ENDBRANCH  12  13
ENDBRANCH   1  12
TORSDOF 14
ENDMDL
MODEL 7
REMARK VINA RESULT:      -6.3      5.825     11.271
REMARK  14 active torsions:
REMARK  status: ('A' for Active; 'I' for Inactive)
REMARK    1  A    between atoms: C_2  and  C_3 
REMARK    2  A    between atoms: C_4  and  C_5 
REMARK    3  A    between atoms: C_5  and  C_6 
REMARK    4  A    between atoms: C_7  and  C_8 
REMARK    5  A    between atoms: C_8  and  C_9 
REMARK    6  A    between atoms: C_10  and  C_11 
REMARK    7  A    between atoms: C_11  and  C_12 
REMARK    8  A    between atoms: C_12  and  C_13 
REMARK    9  A    between atoms: C_13  and  C_14 
REMARK   10  A    between atoms: C_14  and  C_15 
REMARK   11  A    between atoms: C_15  and  C_16 
REMARK   12  A    between atoms: C_16  and  C_17 
REMARK   13  A    between atoms: C_17  and  C_18 
REMARK   14  A    between atoms: C_18  and  O_20 
ROOT
HETATM    1  C   UNL     1     -21.179  -8.443  -5.133  1.00  0.00     0.027 C 
ENDROOT
BRANCH   1   2
HETATM    2  C   UNL     1     -21.156  -6.952  -5.237  1.00  0.00    -0.030 C 
HETATM    3  C   UNL     1     -20.352  -6.300  -6.089  1.00  0.00    -0.027 C 
BRANCH   3   4
HETATM    4  C   UNL     1     -20.319  -4.809  -6.195  1.00  0.00     0.053 C 
BRANCH   4   5
HETATM    5  C   UNL     1     -20.030  -4.368  -7.595  1.00  0.00    -0.027 C 
HETATM    6  C   UNL     1     -20.687  -4.851  -8.661  1.00  0.00    -0.027 C 
BRANCH   6   7
HETATM    7  C   UNL     1     -20.401  -4.410 -10.062  1.00  0.00     0.053 C 
BRANCH   7   8
HETATM    8  C   UNL     1     -21.509  -3.564 -10.612  1.00  0.00    -0.027 C 
HETATM    9  C   UNL     1     -21.924  -3.641 -11.885  1.00  0.00    -0.031 C 
BRANCH   9  10
HETATM   10  C   UNL     1     -23.035  -2.798 -12.432  1.00  0.00     0.022 C 
HETATM   11  C   UNL     1     -23.012  -2.782 -13.951  1.00  0.00     0.009 C 
ENDBRANCH   9  10
ENDBRANCH   7   8
ENDBRANCH   6   7
ENDBRANCH   4   5
ENDBRANCH   3   4
ENDBRANCH   1   2
BRANCH   1  12
HETATM   12  C   UNL     1     -20.717  -8.892  -3.753  1.00  0.00     0.004 C 
BRANCH  12  13
HETATM   13  C   UNL     1     -21.773  -8.556  -2.708  1.00  0.00     0.000 C 
BRANCH  13  14
HETATM   14  C   UNL     1     -21.318  -7.389  -1.842  1.00  0.00     0.000 C 
BRANCH  14  15
HETATM   15  C   UNL     1     -22.435  -6.958  -0.895  1.00  0.00     0.001 C 
BRANCH  15  16
HETATM   16  C   UNL     1     -22.581  -7.957   0.245  1.00  0.00     0.010 C 
BRANCH  16  17
HETATM   17  C   UNL     1     -21.294  -8.106   1.055  1.00  0.00     0.110 C 
BRANCH  17  18
HETATM   18  C   UNL     1     -20.870  -9.557   1.081  1.00  0.00     0.139 C 
HETATM   19  O   UNL     1     -21.094 -10.365   0.201  1.00  0.00    -0.650 OA
BRANCH  18  20
HETATM   20  O   UNL     1     -20.194  -9.899   2.204  1.00  0.00    -0.776 OA
HETATM   21  H   UNL     1     -19.463  -9.297   2.447  1.00  0.00     0.167 HD
ENDBRANCH  18  20
ENDBRANCH  17  18
ENDBRANCH  16  17
ENDBRANCH  15  16
ENDBRANCH  14  15
ENDBRANCH  13  14
ENDBRANCH  12  13
ENDBRANCH   1  12
TORSDOF 14
ENDMDL
MODEL 8
REMARK VINA RESULT:      -6.3      5.723     10.892
REMARK  14 active torsions:
REMARK  status: ('A' for Active; 'I' for Inactive)
REMARK    1  A    between atoms: C_2  and  C_3 
REMARK    2  A    between atoms: C_4  and  C_5 
REMARK    3  A    between atoms: C_5  and  C_6 
REMARK    4  A    between atoms: C_7  and  C_8 
REMARK    5  A    between atoms: C_8  and  C_9 
REMARK    6  A    between atoms: C_10  and  C_11 
REMARK    7  A    between atoms: C_11  and  C_12 
REMARK    8  A    between atoms: C_12  and  C_13 
REMARK    9  A    between atoms: C_13  and  C_14 
REMARK   10  A    between atoms: C_14  and  C_15 
REMARK   11  A    between atoms: C_15  and  C_16 
REMARK   12  A    between atoms: C_16  and  C_17 
REMARK   13  A    between atoms: C_17  and  C_18 
REMARK   14  A    between atoms: C_18  and  O_20 
ROOT
HETATM    1  C   UNL     1     -21.972  -6.039  -1.976  1.00  0.00     0.027 C 
ENDROOT
BRANCH   1   2
HETATM    2  C   UNL     1     -21.945  -6.811  -3.256  1.00  0.00    -0.030 C 
HETATM    3  C   UNL     1     -21.326  -6.362  -4.357  1.00  0.00    -0.027 C 
BRANCH   3   4
HETATM    4  C   UNL     1     -21.299  -7.125  -5.642  1.00  0.00     0.053 C 
BRANCH   4   5
HETATM    5  C   UNL     1     -20.638  -6.339  -6.731  1.00  0.00    -0.027 C 
HETATM    6  C   UNL     1     -20.257  -5.061  -6.577  1.00  0.00    -0.027 C 
BRANCH   6   7
HETATM    7  C   UNL     1     -19.596  -4.273  -7.663  1.00  0.00     0.053 C 
BRANCH   7   8
HETATM    8  C   UNL     1     -20.094  -4.676  -9.018  1.00  0.00    -0.027 C 
HETATM    9  C   UNL     1     -20.487  -3.790  -9.946  1.00  0.00    -0.031 C 
BRANCH   9  10
HETATM   10  C   UNL     1     -20.980  -4.194 -11.301  1.00  0.00     0.022 C 
HETATM   11  C   UNL     1     -22.468  -4.500 -11.273  1.00  0.00     0.009 C 
ENDBRANCH   9  10
ENDBRANCH   7   8
ENDBRANCH   6   7
ENDBRANCH   4   5
ENDBRANCH   3   4
ENDBRANCH   1   2
BRANCH   1  12
HETATM   12  C   UNL     1     -22.354  -6.944  -0.812  1.00  0.00     0.004 C 
BRANCH  12  13
HETATM   13  C   UNL     1     -21.383  -8.114  -0.712  1.00  0.00     0.000 C 
BRANCH  13  14
HETATM   14  C   UNL     1     -21.641  -8.918   0.555  1.00  0.00     0.000 C 
BRANCH  14  15
HETATM   15  C   UNL     1     -21.972 -10.368   0.210  1.00  0.00     0.001 C 
BRANCH  15  16
HETATM   16  C   UNL     1     -23.420 -10.487  -0.247  1.00  0.00     0.010 C 
BRANCH  16  17
HETATM   17  C   UNL     1     -23.541 -11.107  -1.638  1.00  0.00     0.110 C 
BRANCH  17  18
HETATM   18  C   UNL     1     -23.274 -12.593  -1.561  1.00  0.00     0.139 C 
HETATM   19  O   UNL     1     -22.448 -13.190  -2.224  1.00  0.00    -0.650 OA
BRANCH  18  20
HETATM   20  O   UNL     1     -24.056 -13.234  -0.660  1.00  0.00    -0.776 OA
HETATM   21  H   UNL     1     -24.997 -12.967  -0.664  1.00  0.00     0.167 HD
ENDBRANCH  18  20
ENDBRANCH  17  18
ENDBRANCH  16  17
ENDBRANCH  15  16
ENDBRANCH  14  15
ENDBRANCH  13  14
ENDBRANCH  12  13
ENDBRANCH   1  12
TORSDOF 14
ENDMDL
MODEL 9
REMARK VINA RESULT:      -6.3      3.021      4.417
REMARK  14 active torsions:
REMARK  status: ('A' for Active; 'I' for Inactive)
REMARK    1  A    between atoms: C_2  and  C_3 
REMARK    2  A    between atoms: C_4  and  C_5 
REMARK    3  A    between atoms: C_5  and  C_6 
REMARK    4  A    between atoms: C_7  and  C_8 
REMARK    5  A    between atoms: C_8  and  C_9 
REMARK    6  A    between atoms: C_10  and  C_11 
REMARK    7  A    between atoms: C_11  and  C_12 
REMARK    8  A    between atoms: C_12  and  C_13 
REMARK    9  A    between atoms: C_13  and  C_14 
REMARK   10  A    between atoms: C_14  and  C_15 
REMARK   11  A    between atoms: C_15  and  C_16 
REMARK   12  A    between atoms: C_16  and  C_17 
REMARK   13  A    between atoms: C_17  and  C_18 
REMARK   14  A    between atoms: C_18  and  O_20 
ROOT
HETATM    1  C   UNL     1     -21.361  -5.184  -6.487  1.00  0.00     0.027 C 
ENDROOT
BRANCH   1   2
HETATM    2  C   UNL     1     -21.088  -5.746  -5.130  1.00  0.00    -0.030 C 
HETATM    3  C   UNL     1     -21.963  -6.531  -4.484  1.00  0.00    -0.027 C 
BRANCH   3   4
HETATM    4  C   UNL     1     -21.700  -7.094  -3.125  1.00  0.00     0.053 C 
BRANCH   4   5
HETATM    5  C   UNL     1     -20.434  -7.892  -3.099  1.00  0.00    -0.027 C 
HETATM    6  C   UNL     1     -20.271  -8.974  -2.322  1.00  0.00    -0.027 C 
BRANCH   6   7
HETATM    7  C   UNL     1     -19.008  -9.774  -2.295  1.00  0.00     0.053 C 
BRANCH   7   8
HETATM    8  C   UNL     1     -18.201  -9.573  -3.542  1.00  0.00    -0.027 C 
HETATM    9  C   UNL     1     -16.976 -10.093  -3.712  1.00  0.00    -0.031 C 
BRANCH   9  10
HETATM   10  C   UNL     1     -16.173  -9.896  -4.960  1.00  0.00     0.022 C 
HETATM   11  C   UNL     1     -17.077  -9.685  -6.164  1.00  0.00     0.009 C 
ENDBRANCH   9  10
ENDBRANCH   7   8
ENDBRANCH   6   7
ENDBRANCH   4   5
ENDBRANCH   3   4
ENDBRANCH   1   2
BRANCH   1  12
HETATM   12  C   UNL     1     -20.088  -4.610  -7.097  1.00  0.00     0.004 C 
BRANCH  12  13
HETATM   13  C   UNL     1     -19.963  -5.035  -8.554  1.00  0.00     0.000 C 
BRANCH  13  14
HETATM   14  C   UNL     1     -20.374  -3.899  -9.481  1.00  0.00     0.000 C 
BRANCH  14  15
HETATM   15  C   UNL     1     -20.953  -4.452 -10.780  1.00  0.00     0.001 C 
BRANCH  15  16
HETATM   16  C   UNL     1     -22.316  -3.832 -11.061  1.00  0.00     0.010 C 
BRANCH  16  17
HETATM   17  C   UNL     1     -23.464  -4.692 -10.535  1.00  0.00     0.110 C 
BRANCH  17  18
HETATM   18  C   UNL     1     -24.460  -3.823  -9.803  1.00  0.00     0.139 C 
HETATM   19  O   UNL     1     -25.357  -3.193 -10.328  1.00  0.00    -0.650 OA
BRANCH  18  20
HETATM   20  O   UNL     1     -24.270  -3.800  -8.461  1.00  0.00    -0.776 OA
HETATM   21  H   UNL     1     -23.644  -3.118  -8.144  1.00  0.00     0.167 HD
ENDBRANCH  18  20
ENDBRANCH  17  18
ENDBRANCH  16  17
ENDBRANCH  15  16
ENDBRANCH  14  15
ENDBRANCH  13  14
ENDBRANCH  12  13
ENDBRANCH   1  12
TORSDOF 14
ENDMDL
