MODEL 1
REMARK VINA RESULT:      -4.5      0.000      0.000
REMARK  5 active torsions:
REMARK  status: ('A' for Active; 'I' for Inactive)
REMARK    1  A    between atoms: C_1  and  CA_2 
REMARK    2  A    between atoms: C_1  and  O_7 
REMARK    3  A    between atoms: CA_2  and  C_3 
REMARK    4  A    between atoms: CA_2  and  N_6 
REMARK    5  A    between atoms: C_3  and  O_5 
ROOT
HETATM    1  CA  UNL     1     -30.507 -15.542 -21.815  1.00  0.00     0.337 C 
ENDROOT
BRANCH   1   2
HETATM    2  C   UNL     1     -31.738 -15.092 -22.609  1.00  0.00     0.210 C 
BRANCH   2   3
HETATM    3  O   UNL     1     -31.878 -13.665 -22.515  1.00  0.00    -0.398 OA
HETATM    4  H   UNL     1     -32.800 -13.503 -22.237  1.00  0.00     0.209 HD
ENDBRANCH   2   3
ENDBRANCH   1   2
BRANCH   1   5
HETATM    5  C   UNL     1     -29.937 -14.351 -21.029  1.00  0.00     0.176 C 
HETATM    6  O   UNL     1     -30.360 -13.983 -19.938  1.00  0.00    -0.648 OA
BRANCH   5   7
HETATM    7  O   UNL     1     -28.877 -13.754 -21.625  1.00  0.00    -0.775 OA
HETATM    8  H   UNL     1     -28.661 -12.900 -21.178  1.00  0.00     0.167 HD
ENDBRANCH   5   7
ENDBRANCH   1   5
BRANCH   1   9
HETATM    9  N   UNL     1     -30.848 -16.651 -20.898  1.00  0.00     0.095 N 
HETATM   10  H1  UNL     1     -31.698 -17.103 -21.244  1.00  0.00     0.314 HD
HETATM   11  H2  UNL     1     -31.166 -16.229 -20.015  1.00  0.00     0.314 HD
ENDBRANCH   1   9
TORSDOF 5
ENDMDL
MODEL 2
REMARK VINA RESULT:      -4.4      1.916      3.029
REMARK  5 active torsions:
REMARK  status: ('A' for Active; 'I' for Inactive)
REMARK    1  A    between atoms: C_1  and  CA_2 
REMARK    2  A    between atoms: C_1  and  O_7 
REMARK    3  A    between atoms: CA_2  and  C_3 
REMARK    4  A    between atoms: CA_2  and  N_6 
REMARK    5  A    between atoms: C_3  and  O_5 
ROOT
HETATM    1  CA  UNL     1     -29.468 -14.740 -20.835  1.00  0.00     0.337 C 
ENDROOT
BRANCH   1   2
HETATM    2  C   UNL     1     -29.462 -14.111 -19.438  1.00  0.00     0.210 C 
BRANCH   2   3
HETATM    3  O   UNL     1     -30.798 -13.724 -19.077  1.00  0.00    -0.398 OA
HETATM    4  H   UNL     1     -30.839 -13.774 -18.102  1.00  0.00     0.209 HD
ENDBRANCH   2   3
ENDBRANCH   1   2
BRANCH   1   5
HETATM    5  C   UNL     1     -30.916 -14.953 -21.298  1.00  0.00     0.176 C 
HETATM    6  O   UNL     1     -31.574 -14.114 -21.907  1.00  0.00    -0.648 OA
BRANCH   5   7
HETATM    7  O   UNL     1     -31.408 -16.184 -21.020  1.00  0.00    -0.775 OA
HETATM    8  H   UNL     1     -31.365 -16.366 -20.049  1.00  0.00     0.167 HD
ENDBRANCH   5   7
ENDBRANCH   1   5
BRANCH   1   9
HETATM    9  N   UNL     1     -28.737 -13.888 -21.799  1.00  0.00     0.095 N 
HETATM   10  H1  UNL     1     -27.735 -14.063 -21.686  1.00  0.00     0.314 HD
HETATM   11  H2  UNL     1     -28.829 -12.916 -21.476  1.00  0.00     0.314 HD
ENDBRANCH   1   9
TORSDOF 5
ENDMDL
MODEL 3
REMARK VINA RESULT:      -4.3     15.524     15.933
REMARK  5 active torsions:
REMARK  status: ('A' for Active; 'I' for Inactive)
REMARK    1  A    between atoms: C_1  and  CA_2 
REMARK    2  A    between atoms: C_1  and  O_7 
REMARK    3  A    between atoms: CA_2  and  C_3 
REMARK    4  A    between atoms: CA_2  and  N_6 
REMARK    5  A    between atoms: C_3  and  O_5 
ROOT
HETATM    1  CA  UNL     1     -22.728  -2.931 -12.856  1.00  0.00     0.337 C 
ENDROOT
BRANCH   1   2
HETATM    2  C   UNL     1     -23.011  -2.754 -14.352  1.00  0.00     0.210 C 
BRANCH   2   3
HETATM    3  O   UNL     1     -23.870  -3.811 -14.809  1.00  0.00    -0.398 OA
HETATM    4  H   UNL     1     -23.511  -4.095 -15.673  1.00  0.00     0.209 HD
ENDBRANCH   2   3
ENDBRANCH   1   2
BRANCH   1   5
HETATM    5  C   UNL     1     -23.895  -3.681 -12.197  1.00  0.00     0.176 C 
HETATM    6  O   UNL     1     -24.944  -3.149 -11.848  1.00  0.00    -0.648 OA
BRANCH   5   7
HETATM    7  O   UNL     1     -23.692  -5.015 -12.072  1.00  0.00    -0.775 OA
HETATM    8  H   UNL     1     -24.023  -5.495 -12.870  1.00  0.00     0.167 HD
ENDBRANCH   5   7
ENDBRANCH   1   5
BRANCH   1   9
HETATM    9  N   UNL     1     -21.459  -3.659 -12.643  1.00  0.00     0.095 N 
HETATM   10  H1  UNL     1     -21.671  -4.545 -12.177  1.00  0.00     0.314 HD
HETATM   11  H2  UNL     1     -20.933  -3.149 -11.920  1.00  0.00     0.314 HD
ENDBRANCH   1   9
TORSDOF 5
ENDMDL
MODEL 4
REMARK VINA RESULT:      -4.3     16.020     16.389
REMARK  5 active torsions:
REMARK  status: ('A' for Active; 'I' for Inactive)
REMARK    1  A    between atoms: C_1  and  CA_2 
REMARK    2  A    between atoms: C_1  and  O_7 
REMARK    3  A    between atoms: CA_2  and  C_3 
REMARK    4  A    between atoms: CA_2  and  N_6 
REMARK    5  A    between atoms: C_3  and  O_5 
ROOT
HETATM    1  CA  UNL     1     -23.061  -3.472 -12.894  1.00  0.00     0.337 C 
ENDROOT
BRANCH   1   2
HETATM    2  C   UNL     1     -23.635  -2.813 -11.635  1.00  0.00     0.210 C 
BRANCH   2   3
HETATM    3  O   UNL     1     -25.026  -3.150 -11.506  1.00  0.00    -0.398 OA
HETATM    4  H   UNL     1     -25.061  -4.123 -11.425  1.00  0.00     0.209 HD
ENDBRANCH   2   3
ENDBRANCH   1   2
BRANCH   1   5
HETATM    5  C   UNL     1     -23.327  -2.574 -14.112  1.00  0.00     0.176 C 
HETATM    6  O   UNL     1     -22.737  -2.677 -15.183  1.00  0.00    -0.648 OA
BRANCH   5   7
HETATM    7  O   UNL     1     -24.318  -1.671 -13.924  1.00  0.00    -0.775 OA
HETATM    8  H   UNL     1     -24.779  -1.831 -13.065  1.00  0.00     0.167 HD
ENDBRANCH   5   7
ENDBRANCH   1   5
BRANCH   1   9
HETATM    9  N   UNL     1     -21.612  -3.723 -12.742  1.00  0.00     0.095 N 
HETATM   10  H1  UNL     1     -21.237  -4.003 -13.652  1.00  0.00     0.314 HD
HETATM   11  H2  UNL     1     -21.508  -4.583 -12.187  1.00  0.00     0.314 HD
ENDBRANCH   1   9
TORSDOF 5
ENDMDL
MODEL 5
REMARK VINA RESULT:      -4.0     16.225     16.919
REMARK  5 active torsions:
REMARK  status: ('A' for Active; 'I' for Inactive)
REMARK    1  A    between atoms: C_1  and  CA_2 
REMARK    2  A    between atoms: C_1  and  O_7 
REMARK    3  A    between atoms: CA_2  and  C_3 
REMARK    4  A    between atoms: CA_2  and  N_6 
REMARK    5  A    between atoms: C_3  and  O_5 
ROOT
HETATM    1  CA  UNL     1     -22.859  -3.638 -12.337  1.00  0.00     0.337 C 
ENDROOT
BRANCH   1   2
HETATM    2  C   UNL     1     -21.983  -3.165 -11.172  1.00  0.00     0.210 C 
BRANCH   2   3
HETATM    3  O   UNL     1     -20.650  -2.909 -11.643  1.00  0.00    -0.398 OA
HETATM    4  H   UNL     1     -20.749  -2.355 -12.442  1.00  0.00     0.209 HD
ENDBRANCH   2   3
ENDBRANCH   1   2
BRANCH   1   5
HETATM    5  C   UNL     1     -24.262  -3.026 -12.208  1.00  0.00     0.176 C 
HETATM    6  O   UNL     1     -24.980  -3.153 -11.221  1.00  0.00    -0.648 OA
BRANCH   5   7
HETATM    7  O   UNL     1     -24.636  -2.276 -13.273  1.00  0.00    -0.775 OA
HETATM    8  H   UNL     1     -24.028  -2.428 -14.037  1.00  0.00     0.167 HD
ENDBRANCH   5   7
ENDBRANCH   1   5
BRANCH   1   9
HETATM    9  N   UNL     1     -22.252  -3.272 -13.635  1.00  0.00     0.095 N 
HETATM   10  H1  UNL     1     -22.316  -2.257 -13.744  1.00  0.00     0.314 HD
HETATM   11  H2  UNL     1     -22.882  -3.614 -14.372  1.00  0.00     0.314 HD
ENDBRANCH   1   9
TORSDOF 5
ENDMDL
MODEL 6
REMARK VINA RESULT:      -4.0     15.459     16.368
REMARK  5 active torsions:
REMARK  status: ('A' for Active; 'I' for Inactive)
REMARK    1  A    between atoms: C_1  and  CA_2 
REMARK    2  A    between atoms: C_1  and  O_7 
REMARK    3  A    between atoms: CA_2  and  C_3 
REMARK    4  A    between atoms: CA_2  and  N_6 
REMARK    5  A    between atoms: C_3  and  O_5 
ROOT
HETATM    1  CA  UNL     1     -23.586  -2.798 -11.976  1.00  0.00     0.337 C 
ENDROOT
BRANCH   1   2
HETATM    2  C   UNL     1     -22.217  -3.416 -11.675  1.00  0.00     0.210 C 
BRANCH   2   3
HETATM    3  O   UNL     1     -21.530  -3.692 -12.906  1.00  0.00    -0.398 OA
HETATM    4  H   UNL     1     -22.198  -3.602 -13.613  1.00  0.00     0.209 HD
ENDBRANCH   2   3
ENDBRANCH   1   2
BRANCH   1   5
HETATM    5  C   UNL     1     -23.896  -2.939 -13.474  1.00  0.00     0.176 C 
HETATM    6  O   UNL     1     -23.816  -2.017 -14.281  1.00  0.00    -0.648 OA
BRANCH   5   7
HETATM    7  O   UNL     1     -24.223  -4.197 -13.854  1.00  0.00    -0.775 OA
HETATM    8  H   UNL     1     -23.521  -4.837 -13.585  1.00  0.00     0.167 HD
ENDBRANCH   5   7
ENDBRANCH   1   5
BRANCH   1   9
HETATM    9  N   UNL     1     -24.644  -3.442 -11.167  1.00  0.00     0.095 N 
HETATM   10  H1  UNL     1     -24.494  -3.192 -10.186  1.00  0.00     0.314 HD
HETATM   11  H2  UNL     1     -24.455  -4.453 -11.169  1.00  0.00     0.314 HD
ENDBRANCH   1   9
TORSDOF 5
ENDMDL
MODEL 7
REMARK VINA RESULT:      -3.9     16.705     17.465
REMARK  5 active torsions:
REMARK  status: ('A' for Active; 'I' for Inactive)
REMARK    1  A    between atoms: C_1  and  CA_2 
REMARK    2  A    between atoms: C_1  and  O_7 
REMARK    3  A    between atoms: CA_2  and  C_3 
REMARK    4  A    between atoms: CA_2  and  N_6 
REMARK    5  A    between atoms: C_3  and  O_5 
ROOT
HETATM    1  CA  UNL     1     -23.501  -4.418 -10.085  1.00  0.00     0.337 C 
ENDROOT
BRANCH   1   2
HETATM    2  C   UNL     1     -22.912  -3.894  -8.771  1.00  0.00     0.210 C 
BRANCH   2   3
HETATM    3  O   UNL     1     -23.825  -4.159  -7.694  1.00  0.00    -0.398 OA
HETATM    4  H   UNL     1     -23.742  -5.113  -7.499  1.00  0.00     0.209 HD
ENDBRANCH   2   3
ENDBRANCH   1   2
BRANCH   1   5
HETATM    5  C   UNL     1     -24.584  -3.451 -10.586  1.00  0.00     0.176 C 
HETATM    6  O   UNL     1     -24.564  -2.906 -11.685  1.00  0.00    -0.648 OA
BRANCH   5   7
HETATM    7  O   UNL     1     -25.611  -3.279  -9.720  1.00  0.00    -0.775 OA
HETATM    8  H   UNL     1     -26.063  -4.139  -9.539  1.00  0.00     0.167 HD
ENDBRANCH   5   7
ENDBRANCH   1   5
BRANCH   1   9
HETATM    9  N   UNL     1     -22.443  -4.584 -11.106  1.00  0.00     0.095 N 
HETATM   10  H1  UNL     1     -22.848  -4.381 -12.023  1.00  0.00     0.314 HD
HETATM   11  H2  UNL     1     -22.240  -5.590 -11.173  1.00  0.00     0.314 HD
ENDBRANCH   1   9
TORSDOF 5
ENDMDL
MODEL 8
REMARK VINA RESULT:      -3.9     16.427     16.898
REMARK  5 active torsions:
REMARK  status: ('A' for Active; 'I' for Inactive)
REMARK    1  A    between atoms: C_1  and  CA_2 
REMARK    2  A    between atoms: C_1  and  O_7 
REMARK    3  A    between atoms: CA_2  and  C_3 
REMARK    4  A    between atoms: CA_2  and  N_6 
REMARK    5  A    between atoms: C_3  and  O_5 
ROOT
HETATM    1  CA  UNL     1     -35.705   0.466 -15.325  1.00  0.00     0.337 C 
ENDROOT
BRANCH   1   2
HETATM    2  C   UNL     1     -36.269   0.225 -13.921  1.00  0.00     0.210 C 
BRANCH   2   3
HETATM    3  O   UNL     1     -37.226  -0.846 -13.962  1.00  0.00    -0.398 OA
HETATM    4  H   UNL     1     -37.408  -1.007 -14.909  1.00  0.00     0.209 HD
ENDBRANCH   2   3
ENDBRANCH   1   2
BRANCH   1   5
HETATM    5  C   UNL     1     -36.019  -0.742 -16.220  1.00  0.00     0.176 C 
HETATM    6  O   UNL     1     -36.907  -0.757 -17.067  1.00  0.00    -0.648 OA
BRANCH   5   7
HETATM    7  O   UNL     1     -35.190  -1.797 -16.033  1.00  0.00    -0.775 OA
HETATM    8  H   UNL     1     -34.404  -1.733 -16.628  1.00  0.00     0.167 HD
ENDBRANCH   5   7
ENDBRANCH   1   5
BRANCH   1   9
HETATM    9  N   UNL     1     -36.264   1.704 -15.911  1.00  0.00     0.095 N 
HETATM   10  H1  UNL     1     -36.176   2.454 -15.221  1.00  0.00     0.314 HD
HETATM   11  H2  UNL     1     -37.283   1.578 -15.973  1.00  0.00     0.314 HD
ENDBRANCH   1   9
TORSDOF 5
ENDMDL
MODEL 9
REMARK VINA RESULT:      -3.8     16.641     17.046
REMARK  5 active torsions:
REMARK  status: ('A' for Active; 'I' for Inactive)
REMARK    1  A    between atoms: C_1  and  CA_2 
REMARK    2  A    between atoms: C_1  and  O_7 
REMARK    3  A    between atoms: CA_2  and  C_3 
REMARK    4  A    between atoms: CA_2  and  N_6 
REMARK    5  A    between atoms: C_3  and  O_5 
ROOT
HETATM    1  CA  UNL     1     -23.104  -4.050 -10.861  1.00  0.00     0.337 C 
ENDROOT
BRANCH   1   2
HETATM    2  C   UNL     1     -22.399  -2.851 -11.504  1.00  0.00     0.210 C 
BRANCH   2   3
HETATM    3  O   UNL     1     -23.304  -2.181 -12.397  1.00  0.00    -0.398 OA
HETATM    4  H   UNL     1     -22.811  -1.418 -12.757  1.00  0.00     0.209 HD
ENDBRANCH   2   3
ENDBRANCH   1   2
BRANCH   1   5
HETATM    5  C   UNL     1     -24.319  -3.564 -10.058  1.00  0.00     0.176 C 
HETATM    6  O   UNL     1     -25.369  -3.179 -10.565  1.00  0.00    -0.648 OA
BRANCH   5   7
HETATM    7  O   UNL     1     -24.158  -3.639  -8.715  1.00  0.00    -0.775 OA
HETATM    8  H   UNL     1     -23.577  -4.401  -8.475  1.00  0.00     0.167 HD
ENDBRANCH   5   7
ENDBRANCH   1   5
BRANCH   1   9
HETATM    9  N   UNL     1     -23.521  -5.029 -11.890  1.00  0.00     0.095 N 
HETATM   10  H1  UNL     1     -24.032  -5.784 -11.425  1.00  0.00     0.314 HD
HETATM   11  H2  UNL     1     -22.671  -5.506 -12.218  1.00  0.00     0.314 HD
ENDBRANCH   1   9
TORSDOF 5
ENDMDL
