MODEL 1
REMARK VINA RESULT:      -7.3      0.000      0.000
REMARK  15 active torsions:
REMARK  status: ('A' for Active; 'I' for Inactive)
REMARK    1  A    between atoms: C_2  and  C_3 
REMARK    2  A    between atoms: C_3  and  C_4 
REMARK    3  A    between atoms: C_4  and  C_5 
REMARK    4  A    between atoms: C_5  and  C_6 
REMARK    5  A    between atoms: C_6  and  C_7 
REMARK    6  A    between atoms: C_7  and  C_8 
REMARK    7  A    between atoms: C_8  and  C_9 
REMARK    8  A    between atoms: C_9  and  C_10 
REMARK    9  A    between atoms: C_10  and  C_11 
REMARK   10  A    between atoms: C_11  and  C_12 
REMARK   11  A    between atoms: C_12  and  C_13 
REMARK   12  A    between atoms: C_13  and  C_14 
REMARK   13  A    between atoms: C_14  and  O_15 
REMARK   14  A    between atoms: O_15  and  C_16 
REMARK   15  A    between atoms: C_16  and  C_18 
ROOT
HETATM    1  C   UNL     1     -20.507  -5.379  -5.343  1.00  0.00     0.002 C 
ENDROOT
BRANCH   1   2
HETATM    2  C   UNL     1     -21.339  -6.608  -5.696  1.00  0.00     0.000 C 
BRANCH   2   3
HETATM    3  C   UNL     1     -21.632  -7.451  -4.461  1.00  0.00     0.000 C 
BRANCH   3   4
HETATM    4  C   UNL     1     -21.911  -6.574  -3.260  1.00  0.00     0.000 C 
BRANCH   4   5
HETATM    5  C   UNL     1     -21.493  -7.298  -1.993  1.00  0.00     0.000 C 
BRANCH   5   6
HETATM    6  C   UNL     1     -22.331  -6.811  -0.827  1.00  0.00     0.000 C 
BRANCH   6   7
HETATM    7  C   UNL     1     -22.820  -7.993  -0.010  1.00  0.00     0.000 C 
BRANCH   7   8
HETATM    8  C   UNL     1     -21.669  -8.941   0.263  1.00  0.00     0.000 C 
BRANCH   8   9
HETATM    9  C   UNL     1     -22.161 -10.379   0.225  1.00  0.00     0.000 C 
BRANCH   9  10
HETATM   10  C   UNL     1     -23.602 -10.423  -0.250  1.00  0.00    -0.000 C 
BRANCH  10  11
HETATM   11  C   UNL     1     -23.768 -11.471  -1.344  1.00  0.00    -0.005 C 
HETATM   12  C   UNL     1     -23.012 -11.053  -2.592  1.00  0.00     0.005 C 
ENDBRANCH  10  11
ENDBRANCH   9  10
ENDBRANCH   8   9
ENDBRANCH   7   8
ENDBRANCH   6   7
ENDBRANCH   5   6
ENDBRANCH   4   5
ENDBRANCH   3   4
ENDBRANCH   2   3
ENDBRANCH   1   2
BRANCH   1  13
HETATM   13  C   UNL     1     -19.724  -4.870  -6.553  1.00  0.00     0.027 C 
BRANCH  13  14
HETATM   14  C   UNL     1     -20.452  -5.118  -7.865  1.00  0.00     0.179 C 
BRANCH  14  15
HETATM   15  O   UNL     1     -21.051  -3.892  -8.344  1.00  0.00    -0.317 OA
BRANCH  15  16
HETATM   16  C   UNL     1     -22.400  -3.960  -8.513  1.00  0.00     0.294 C 
HETATM   17  O   UNL     1     -23.195  -4.268  -7.633  1.00  0.00    -0.259 OA
BRANCH  16  18
HETATM   18  C   UNL     1     -22.844  -3.632  -9.884  1.00  0.00     0.054 A 
HETATM   19  C   UNL     1     -24.216  -3.537 -10.107  1.00  0.00     0.105 A 
HETATM   20  N   UNL     1     -24.785  -3.324 -11.320  1.00  0.00    -0.374 N 
HETATM   21  C   UNL     1     -23.943  -3.199 -12.365  1.00  0.00     0.087 A 
ATOM     22  HN  UNL     1     -25.796  -3.262 -11.435  1.00  0.00     0.164 HD
HETATM   23  C   UNL     1     -22.559  -3.246 -12.247  1.00  0.00     0.018 A 
HETATM   24  C   UNL     1     -22.001  -3.459 -10.982  1.00  0.00     0.020 A 
ENDBRANCH  16  18
ENDBRANCH  15  16
ENDBRANCH  14  15
ENDBRANCH  13  14
ENDBRANCH   1  13
TORSDOF 15
ENDMDL
MODEL 2
REMARK VINA RESULT:      -6.8      1.369      2.375
REMARK  15 active torsions:
REMARK  status: ('A' for Active; 'I' for Inactive)
REMARK    1  A    between atoms: C_2  and  C_3 
REMARK    2  A    between atoms: C_3  and  C_4 
REMARK    3  A    between atoms: C_4  and  C_5 
REMARK    4  A    between atoms: C_5  and  C_6 
REMARK    5  A    between atoms: C_6  and  C_7 
REMARK    6  A    between atoms: C_7  and  C_8 
REMARK    7  A    between atoms: C_8  and  C_9 
REMARK    8  A    between atoms: C_9  and  C_10 
REMARK    9  A    between atoms: C_10  and  C_11 
REMARK   10  A    between atoms: C_11  and  C_12 
REMARK   11  A    between atoms: C_12  and  C_13 
REMARK   12  A    between atoms: C_13  and  C_14 
REMARK   13  A    between atoms: C_14  and  O_15 
REMARK   14  A    between atoms: O_15  and  C_16 
REMARK   15  A    between atoms: C_16  and  C_18 
ROOT
HETATM    1  C   UNL     1     -22.150  -6.649  -4.661  1.00  0.00     0.002 C 
ENDROOT
BRANCH   1   2
HETATM    2  C   UNL     1     -21.442  -6.222  -3.378  1.00  0.00     0.000 C 
BRANCH   2   3
HETATM    3  C   UNL     1     -21.562  -7.291  -2.298  1.00  0.00     0.000 C 
BRANCH   3   4
HETATM    4  C   UNL     1     -22.332  -6.769  -1.105  1.00  0.00     0.000 C 
BRANCH   4   5
HETATM    5  C   UNL     1     -22.056  -7.648   0.102  1.00  0.00     0.000 C 
BRANCH   5   6
HETATM    6  C   UNL     1     -23.248  -8.548   0.362  1.00  0.00     0.000 C 
BRANCH   6   7
HETATM    7  C   UNL     1     -22.855 -10.000   0.159  1.00  0.00     0.000 C 
BRANCH   7   8
HETATM    8  C   UNL     1     -24.075 -10.814  -0.223  1.00  0.00     0.000 C 
BRANCH   8   9
HETATM    9  C   UNL     1     -23.729 -11.766  -1.356  1.00  0.00     0.000 C 
BRANCH   9  10
HETATM   10  C   UNL     1     -22.494 -11.274  -2.090  1.00  0.00    -0.000 C 
BRANCH  10  11
HETATM   11  C   UNL     1     -22.833 -10.942  -3.538  1.00  0.00    -0.005 C 
HETATM   12  C   UNL     1     -21.580 -10.539  -4.293  1.00  0.00     0.005 C 
ENDBRANCH  10  11
ENDBRANCH   9  10
ENDBRANCH   8   9
ENDBRANCH   7   8
ENDBRANCH   6   7
ENDBRANCH   5   6
ENDBRANCH   4   5
ENDBRANCH   3   4
ENDBRANCH   2   3
ENDBRANCH   1   2
BRANCH   1  13
HETATM   13  C   UNL     1     -21.155  -7.176  -5.697  1.00  0.00     0.027 C 
BRANCH  13  14
HETATM   14  C   UNL     1     -20.494  -6.059  -6.489  1.00  0.00     0.179 C 
BRANCH  14  15
HETATM   15  O   UNL     1     -21.244  -5.790  -7.696  1.00  0.00    -0.317 OA
BRANCH  15  16
HETATM   16  C   UNL     1     -21.269  -4.477  -8.055  1.00  0.00     0.294 C 
HETATM   17  O   UNL     1     -21.054  -3.545  -7.291  1.00  0.00    -0.259 OA
BRANCH  16  18
HETATM   18  C   UNL     1     -21.597  -4.258  -9.480  1.00  0.00     0.054 A 
HETATM   19  C   UNL     1     -20.549  -3.914 -10.332  1.00  0.00     0.105 A 
HETATM   20  N   UNL     1     -20.696  -3.603 -11.643  1.00  0.00    -0.374 N 
HETATM   21  C   UNL     1     -21.952  -3.636 -12.133  1.00  0.00     0.087 A 
ATOM     22  HN  UNL     1     -19.899  -3.357 -12.229  1.00  0.00     0.164 HD
HETATM   23  C   UNL     1     -23.062  -3.996 -11.377  1.00  0.00     0.018 A 
HETATM   24  C   UNL     1     -22.878  -4.320 -10.029  1.00  0.00     0.020 A 
ENDBRANCH  16  18
ENDBRANCH  15  16
ENDBRANCH  14  15
ENDBRANCH  13  14
ENDBRANCH   1  13
TORSDOF 15
ENDMDL
MODEL 3
REMARK VINA RESULT:      -6.5      1.565      2.184
REMARK  15 active torsions:
REMARK  status: ('A' for Active; 'I' for Inactive)
REMARK    1  A    between atoms: C_2  and  C_3 
REMARK    2  A    between atoms: C_3  and  C_4 
REMARK    3  A    between atoms: C_4  and  C_5 
REMARK    4  A    between atoms: C_5  and  C_6 
REMARK    5  A    between atoms: C_6  and  C_7 
REMARK    6  A    between atoms: C_7  and  C_8 
REMARK    7  A    between atoms: C_8  and  C_9 
REMARK    8  A    between atoms: C_9  and  C_10 
REMARK    9  A    between atoms: C_10  and  C_11 
REMARK   10  A    between atoms: C_11  and  C_12 
REMARK   11  A    between atoms: C_12  and  C_13 
REMARK   12  A    between atoms: C_13  and  C_14 
REMARK   13  A    between atoms: C_14  and  O_15 
REMARK   14  A    between atoms: O_15  and  C_16 
REMARK   15  A    between atoms: C_16  and  C_18 
ROOT
HETATM    1  C   UNL     1     -21.015  -7.478  -4.816  1.00  0.00     0.002 C 
ENDROOT
BRANCH   1   2
HETATM    2  C   UNL     1     -21.640  -6.242  -4.176  1.00  0.00     0.000 C 
BRANCH   2   3
HETATM    3  C   UNL     1     -21.236  -6.112  -2.712  1.00  0.00     0.000 C 
BRANCH   3   4
HETATM    4  C   UNL     1     -22.370  -6.528  -1.800  1.00  0.00     0.000 C 
BRANCH   4   5
HETATM    5  C   UNL     1     -21.856  -7.518  -0.770  1.00  0.00     0.000 C 
BRANCH   5   6
HETATM    6  C   UNL     1     -22.303  -8.919  -1.142  1.00  0.00     0.000 C 
BRANCH   6   7
HETATM    7  C   UNL     1     -22.821  -9.641   0.089  1.00  0.00     0.000 C 
BRANCH   7   8
HETATM    8  C   UNL     1     -23.826 -10.700  -0.321  1.00  0.00     0.000 C 
BRANCH   8   9
HETATM    9  C   UNL     1     -23.159 -12.066  -0.342  1.00  0.00     0.000 C 
BRANCH   9  10
HETATM   10  C   UNL     1     -22.051 -12.120   0.693  1.00  0.00    -0.000 C 
BRANCH  10  11
HETATM   11  C   UNL     1     -22.072 -13.457   1.425  1.00  0.00    -0.005 C 
HETATM   12  C   UNL     1     -23.458 -13.733   1.977  1.00  0.00     0.005 C 
ENDBRANCH  10  11
ENDBRANCH   9  10
ENDBRANCH   8   9
ENDBRANCH   7   8
ENDBRANCH   6   7
ENDBRANCH   5   6
ENDBRANCH   4   5
ENDBRANCH   3   4
ENDBRANCH   2   3
ENDBRANCH   1   2
BRANCH   1  13
HETATM   13  C   UNL     1     -20.155  -7.105  -6.025  1.00  0.00     0.027 C 
BRANCH  13  14
HETATM   14  C   UNL     1     -20.332  -5.652  -6.439  1.00  0.00     0.179 C 
BRANCH  14  15
HETATM   15  O   UNL     1     -21.220  -5.562  -7.576  1.00  0.00    -0.317 OA
BRANCH  15  16
HETATM   16  C   UNL     1     -21.636  -4.297  -7.859  1.00  0.00     0.294 C 
HETATM   17  O   UNL     1     -21.474  -3.332  -7.121  1.00  0.00    -0.259 OA
BRANCH  16  18
HETATM   18  C   UNL     1     -22.329  -4.175  -9.159  1.00  0.00     0.054 A 
HETATM   19  C   UNL     1     -23.721  -4.108  -9.138  1.00  0.00     0.105 A 
HETATM   20  N   UNL     1     -24.505  -4.075 -10.244  1.00  0.00    -0.374 N 
HETATM   21  C   UNL     1     -23.870  -4.112 -11.433  1.00  0.00     0.087 A 
ATOM     22  HN  UNL     1     -25.522  -4.025 -10.180  1.00  0.00     0.164 HD
HETATM   23  C   UNL     1     -22.487  -4.148 -11.565  1.00  0.00     0.018 A 
HETATM   24  C   UNL     1     -21.704  -4.172 -10.406  1.00  0.00     0.020 A 
ENDBRANCH  16  18
ENDBRANCH  15  16
ENDBRANCH  14  15
ENDBRANCH  13  14
ENDBRANCH   1  13
TORSDOF 15
ENDMDL
MODEL 4
REMARK VINA RESULT:      -6.4      1.394      2.572
REMARK  15 active torsions:
REMARK  status: ('A' for Active; 'I' for Inactive)
REMARK    1  A    between atoms: C_2  and  C_3 
REMARK    2  A    between atoms: C_3  and  C_4 
REMARK    3  A    between atoms: C_4  and  C_5 
REMARK    4  A    between atoms: C_5  and  C_6 
REMARK    5  A    between atoms: C_6  and  C_7 
REMARK    6  A    between atoms: C_7  and  C_8 
REMARK    7  A    between atoms: C_8  and  C_9 
REMARK    8  A    between atoms: C_9  and  C_10 
REMARK    9  A    between atoms: C_10  and  C_11 
REMARK   10  A    between atoms: C_11  and  C_12 
REMARK   11  A    between atoms: C_12  and  C_13 
REMARK   12  A    between atoms: C_13  and  C_14 
REMARK   13  A    between atoms: C_14  and  O_15 
REMARK   14  A    between atoms: O_15  and  C_16 
REMARK   15  A    between atoms: C_16  and  C_18 
ROOT
HETATM    1  C   UNL     1     -20.177  -4.801  -5.746  1.00  0.00     0.002 C 
ENDROOT
BRANCH   1   2
HETATM    2  C   UNL     1     -20.977  -6.033  -5.331  1.00  0.00     0.000 C 
BRANCH   2   3
HETATM    3  C   UNL     1     -20.155  -7.306  -5.490  1.00  0.00     0.000 C 
BRANCH   3   4
HETATM    4  C   UNL     1     -20.933  -8.515  -5.017  1.00  0.00     0.000 C 
BRANCH   4   5
HETATM    5  C   UNL     1     -20.394  -8.973  -3.674  1.00  0.00     0.000 C 
BRANCH   5   6
HETATM    6  C   UNL     1     -20.821 -10.405  -3.414  1.00  0.00     0.000 C 
BRANCH   6   7
HETATM    7  C   UNL     1     -22.225 -10.431  -2.836  1.00  0.00     0.000 C 
BRANCH   7   8
HETATM    8  C   UNL     1     -22.162 -10.694  -1.345  1.00  0.00     0.000 C 
BRANCH   8   9
HETATM    9  C   UNL     1     -22.911  -9.605  -0.594  1.00  0.00     0.000 C 
BRANCH   9  10
HETATM   10  C   UNL     1     -22.002  -8.410  -0.366  1.00  0.00    -0.000 C 
BRANCH  10  11
HETATM   11  C   UNL     1     -21.893  -8.102   1.122  1.00  0.00    -0.005 C 
HETATM   12  C   UNL     1     -20.709  -8.835   1.726  1.00  0.00     0.005 C 
ENDBRANCH  10  11
ENDBRANCH   9  10
ENDBRANCH   8   9
ENDBRANCH   7   8
ENDBRANCH   6   7
ENDBRANCH   5   6
ENDBRANCH   4   5
ENDBRANCH   3   4
ENDBRANCH   2   3
ENDBRANCH   1   2
BRANCH   1  13
HETATM   13  C   UNL     1     -19.703  -4.907  -7.196  1.00  0.00     0.027 C 
BRANCH  13  14
HETATM   14  C   UNL     1     -20.488  -4.003  -8.133  1.00  0.00     0.179 C 
BRANCH  14  15
HETATM   15  O   UNL     1     -21.329  -4.795  -9.004  1.00  0.00    -0.317 OA
BRANCH  15  16
HETATM   16  C   UNL     1     -22.565  -4.266  -9.216  1.00  0.00     0.294 C 
HETATM   17  O   UNL     1     -23.420  -4.131  -8.350  1.00  0.00    -0.259 OA
BRANCH  16  18
HETATM   18  C   UNL     1     -22.807  -3.866 -10.619  1.00  0.00     0.054 A 
HETATM   19  C   UNL     1     -21.745  -3.992 -11.512  1.00  0.00     0.105 A 
HETATM   20  N   UNL     1     -21.780  -3.595 -12.808  1.00  0.00    -0.374 N 
HETATM   21  C   UNL     1     -22.934  -3.045 -13.238  1.00  0.00     0.087 A 
ATOM     22  HN  UNL     1     -20.977  -3.708 -13.426  1.00  0.00     0.164 HD
HETATM   23  C   UNL     1     -24.061  -2.902 -12.438  1.00  0.00     0.018 A 
HETATM   24  C   UNL     1     -23.997  -3.328 -11.107  1.00  0.00     0.020 A 
ENDBRANCH  16  18
ENDBRANCH  15  16
ENDBRANCH  14  15
ENDBRANCH  13  14
ENDBRANCH   1  13
TORSDOF 15
ENDMDL
MODEL 5
REMARK VINA RESULT:      -6.3      1.688      2.193
REMARK  15 active torsions:
REMARK  status: ('A' for Active; 'I' for Inactive)
REMARK    1  A    between atoms: C_2  and  C_3 
REMARK    2  A    between atoms: C_3  and  C_4 
REMARK    3  A    between atoms: C_4  and  C_5 
REMARK    4  A    between atoms: C_5  and  C_6 
REMARK    5  A    between atoms: C_6  and  C_7 
REMARK    6  A    between atoms: C_7  and  C_8 
REMARK    7  A    between atoms: C_8  and  C_9 
REMARK    8  A    between atoms: C_9  and  C_10 
REMARK    9  A    between atoms: C_10  and  C_11 
REMARK   10  A    between atoms: C_11  and  C_12 
REMARK   11  A    between atoms: C_12  and  C_13 
REMARK   12  A    between atoms: C_13  and  C_14 
REMARK   13  A    between atoms: C_14  and  O_15 
REMARK   14  A    between atoms: O_15  and  C_16 
REMARK   15  A    between atoms: C_16  and  C_18 
ROOT
HETATM    1  C   UNL     1     -19.909  -4.685  -5.985  1.00  0.00     0.002 C 
ENDROOT
BRANCH   1   2
HETATM    2  C   UNL     1     -21.247  -5.392  -5.784  1.00  0.00     0.000 C 
BRANCH   2   3
HETATM    3  C   UNL     1     -21.054  -6.788  -5.205  1.00  0.00     0.000 C 
BRANCH   3   4
HETATM    4  C   UNL     1     -21.968  -7.014  -4.022  1.00  0.00     0.000 C 
BRANCH   4   5
HETATM    5  C   UNL     1     -21.499  -6.173  -2.848  1.00  0.00     0.000 C 
BRANCH   5   6
HETATM    6  C   UNL     1     -22.239  -6.590  -1.592  1.00  0.00     0.000 C 
BRANCH   6   7
HETATM    7  C   UNL     1     -21.453  -7.662  -0.859  1.00  0.00     0.000 C 
BRANCH   7   8
HETATM    8  C   UNL     1     -21.949  -9.034  -1.269  1.00  0.00     0.000 C 
BRANCH   8   9
HETATM    9  C   UNL     1     -20.770  -9.967  -1.490  1.00  0.00     0.000 C 
BRANCH   9  10
HETATM   10  C   UNL     1     -19.640  -9.223  -2.179  1.00  0.00    -0.000 C 
BRANCH  10  11
HETATM   11  C   UNL     1     -18.926 -10.137  -3.166  1.00  0.00    -0.005 C 
HETATM   12  C   UNL     1     -18.495  -9.353  -4.393  1.00  0.00     0.005 C 
ENDBRANCH  10  11
ENDBRANCH   9  10
ENDBRANCH   8   9
ENDBRANCH   7   8
ENDBRANCH   6   7
ENDBRANCH   5   6
ENDBRANCH   4   5
ENDBRANCH   3   4
ENDBRANCH   2   3
ENDBRANCH   1   2
BRANCH   1  13
HETATM   13  C   UNL     1     -19.403  -4.850  -7.419  1.00  0.00     0.027 C 
BRANCH  13  14
HETATM   14  C   UNL     1     -20.137  -3.953  -8.403  1.00  0.00     0.179 C 
BRANCH  14  15
HETATM   15  O   UNL     1     -21.050  -4.735  -9.207  1.00  0.00    -0.317 OA
BRANCH  15  16
HETATM   16  C   UNL     1     -22.305  -4.215  -9.289  1.00  0.00     0.294 C 
HETATM   17  O   UNL     1     -23.047  -4.038  -8.331  1.00  0.00    -0.259 OA
BRANCH  16  18
HETATM   18  C   UNL     1     -22.721  -3.881 -10.668  1.00  0.00     0.054 A 
HETATM   19  C   UNL     1     -23.483  -4.825 -11.353  1.00  0.00     0.105 A 
HETATM   20  N   UNL     1     -23.874  -4.705 -12.646  1.00  0.00    -0.374 N 
HETATM   21  C   UNL     1     -23.486  -3.586 -13.291  1.00  0.00     0.087 A 
ATOM     22  HN  UNL     1     -24.432  -5.424 -13.107  1.00  0.00     0.164 HD
HETATM   23  C   UNL     1     -22.752  -2.570 -12.691  1.00  0.00     0.018 A 
HETATM   24  C   UNL     1     -22.370  -2.718 -11.354  1.00  0.00     0.020 A 
ENDBRANCH  16  18
ENDBRANCH  15  16
ENDBRANCH  14  15
ENDBRANCH  13  14
ENDBRANCH   1  13
TORSDOF 15
ENDMDL
MODEL 6
REMARK VINA RESULT:      -6.2      1.967      4.262
REMARK  15 active torsions:
REMARK  status: ('A' for Active; 'I' for Inactive)
REMARK    1  A    between atoms: C_2  and  C_3 
REMARK    2  A    between atoms: C_3  and  C_4 
REMARK    3  A    between atoms: C_4  and  C_5 
REMARK    4  A    between atoms: C_5  and  C_6 
REMARK    5  A    between atoms: C_6  and  C_7 
REMARK    6  A    between atoms: C_7  and  C_8 
REMARK    7  A    between atoms: C_8  and  C_9 
REMARK    8  A    between atoms: C_9  and  C_10 
REMARK    9  A    between atoms: C_10  and  C_11 
REMARK   10  A    between atoms: C_11  and  C_12 
REMARK   11  A    between atoms: C_12  and  C_13 
REMARK   12  A    between atoms: C_13  and  C_14 
REMARK   13  A    between atoms: C_14  and  O_15 
REMARK   14  A    between atoms: O_15  and  C_16 
REMARK   15  A    between atoms: C_16  and  C_18 
ROOT
HETATM    1  C   UNL     1     -21.482  -7.269  -1.568  1.00  0.00     0.002 C 
ENDROOT
BRANCH   1   2
HETATM    2  C   UNL     1     -22.523  -7.506  -0.477  1.00  0.00     0.000 C 
BRANCH   2   3
HETATM    3  C   UNL     1     -21.892  -8.125   0.764  1.00  0.00     0.000 C 
BRANCH   3   4
HETATM    4  C   UNL     1     -21.542  -9.577   0.526  1.00  0.00     0.000 C 
BRANCH   4   5
HETATM    5  C   UNL     1     -22.678 -10.259  -0.217  1.00  0.00     0.000 C 
BRANCH   5   6
HETATM    6  C   UNL     1     -22.114 -11.136  -1.318  1.00  0.00     0.000 C 
BRANCH   6   7
HETATM    7  C   UNL     1     -22.644 -10.680  -2.665  1.00  0.00     0.000 C 
BRANCH   7   8
HETATM    8  C   UNL     1     -22.141 -11.605  -3.756  1.00  0.00     0.000 C 
BRANCH   8   9
HETATM    9  C   UNL     1     -20.655 -11.378  -3.983  1.00  0.00     0.000 C 
BRANCH   9  10
HETATM   10  C   UNL     1     -20.423  -9.994  -4.562  1.00  0.00    -0.000 C 
BRANCH  10  11
HETATM   11  C   UNL     1     -19.014  -9.513  -4.239  1.00  0.00    -0.005 C 
HETATM   12  C   UNL     1     -18.832  -9.387  -2.737  1.00  0.00     0.005 C 
ENDBRANCH  10  11
ENDBRANCH   9  10
ENDBRANCH   8   9
ENDBRANCH   7   8
ENDBRANCH   6   7
ENDBRANCH   5   6
ENDBRANCH   4   5
ENDBRANCH   3   4
ENDBRANCH   2   3
ENDBRANCH   1   2
BRANCH   1  13
HETATM   13  C   UNL     1     -22.015  -6.332  -2.652  1.00  0.00     0.027 C 
BRANCH  13  14
HETATM   14  C   UNL     1     -21.549  -6.727  -4.045  1.00  0.00     0.179 C 
BRANCH  14  15
HETATM   15  O   UNL     1     -21.955  -5.728  -5.009  1.00  0.00    -0.317 OA
BRANCH  15  16
HETATM   16  C   UNL     1     -21.117  -5.612  -6.076  1.00  0.00     0.294 C 
HETATM   17  O   UNL     1     -19.963  -6.023  -6.101  1.00  0.00    -0.259 OA
BRANCH  16  18
HETATM   18  C   UNL     1     -21.723  -4.921  -7.234  1.00  0.00     0.054 A 
HETATM   19  C   UNL     1     -23.063  -4.555  -7.131  1.00  0.00     0.105 A 
HETATM   20  N   UNL     1     -23.784  -3.989  -8.131  1.00  0.00    -0.374 N 
HETATM   21  C   UNL     1     -23.136  -3.775  -9.294  1.00  0.00     0.087 A 
ATOM     22  HN  UNL     1     -24.765  -3.737  -8.010  1.00  0.00     0.164 HD
HETATM   23  C   UNL     1     -21.792  -4.073  -9.490  1.00  0.00     0.018 A 
HETATM   24  C   UNL     1     -21.073  -4.649  -8.438  1.00  0.00     0.020 A 
ENDBRANCH  16  18
ENDBRANCH  15  16
ENDBRANCH  14  15
ENDBRANCH  13  14
ENDBRANCH   1  13
TORSDOF 15
ENDMDL
MODEL 7
REMARK VINA RESULT:      -6.2      3.805      9.606
REMARK  15 active torsions:
REMARK  status: ('A' for Active; 'I' for Inactive)
REMARK    1  A    between atoms: C_2  and  C_3 
REMARK    2  A    between atoms: C_3  and  C_4 
REMARK    3  A    between atoms: C_4  and  C_5 
REMARK    4  A    between atoms: C_5  and  C_6 
REMARK    5  A    between atoms: C_6  and  C_7 
REMARK    6  A    between atoms: C_7  and  C_8 
REMARK    7  A    between atoms: C_8  and  C_9 
REMARK    8  A    between atoms: C_9  and  C_10 
REMARK    9  A    between atoms: C_10  and  C_11 
REMARK   10  A    between atoms: C_11  and  C_12 
REMARK   11  A    between atoms: C_12  and  C_13 
REMARK   12  A    between atoms: C_13  and  C_14 
REMARK   13  A    between atoms: C_14  and  O_15 
REMARK   14  A    between atoms: O_15  and  C_16 
REMARK   15  A    between atoms: C_16  and  C_18 
ROOT
HETATM    1  C   UNL     1     -20.778  -8.251  -5.206  1.00  0.00     0.002 C 
ENDROOT
BRANCH   1   2
HETATM    2  C   UNL     1     -20.868  -6.739  -5.021  1.00  0.00     0.000 C 
BRANCH   2   3
HETATM    3  C   UNL     1     -20.111  -6.001  -6.118  1.00  0.00     0.000 C 
BRANCH   3   4
HETATM    4  C   UNL     1     -20.353  -4.510  -6.034  1.00  0.00     0.000 C 
BRANCH   4   5
HETATM    5  C   UNL     1     -21.166  -4.059  -7.234  1.00  0.00     0.000 C 
BRANCH   5   6
HETATM    6  C   UNL     1     -21.036  -5.075  -8.351  1.00  0.00     0.000 C 
BRANCH   6   7
HETATM    7  C   UNL     1     -20.158  -4.519  -9.458  1.00  0.00     0.000 C 
BRANCH   7   8
HETATM    8  C   UNL     1     -20.980  -3.626 -10.367  1.00  0.00     0.000 C 
BRANCH   8   9
HETATM    9  C   UNL     1     -21.614  -4.454 -11.471  1.00  0.00     0.000 C 
BRANCH   9  10
HETATM   10  C   UNL     1     -23.077  -4.081 -11.627  1.00  0.00    -0.000 C 
BRANCH  10  11
HETATM   11  C   UNL     1     -23.891  -4.621 -10.458  1.00  0.00    -0.005 C 
HETATM   12  C   UNL     1     -24.600  -3.486  -9.741  1.00  0.00     0.005 C 
ENDBRANCH  10  11
ENDBRANCH   9  10
ENDBRANCH   8   9
ENDBRANCH   7   8
ENDBRANCH   6   7
ENDBRANCH   5   6
ENDBRANCH   4   5
ENDBRANCH   3   4
ENDBRANCH   2   3
ENDBRANCH   1   2
BRANCH   1  13
HETATM   13  C   UNL     1     -19.397  -8.779  -4.813  1.00  0.00     0.027 C 
BRANCH  13  14
HETATM   14  C   UNL     1     -19.459 -10.167  -4.196  1.00  0.00     0.179 C 
BRANCH  14  15
HETATM   15  O   UNL     1     -20.636 -10.293  -3.365  1.00  0.00    -0.317 OA
BRANCH  15  16
HETATM   16  C   UNL     1     -20.388 -10.200  -2.030  1.00  0.00     0.294 C 
HETATM   17  O   UNL     1     -19.466 -10.765  -1.454  1.00  0.00    -0.259 OA
BRANCH  16  18
HETATM   18  C   UNL     1     -21.353  -9.347  -1.305  1.00  0.00     0.054 A 
HETATM   19  C   UNL     1     -21.316  -7.978  -1.562  1.00  0.00     0.105 A 
HETATM   20  N   UNL     1     -22.077  -7.055  -0.923  1.00  0.00    -0.374 N 
HETATM   21  C   UNL     1     -22.920  -7.520   0.021  1.00  0.00     0.087 A 
ATOM     22  HN  UNL     1     -22.016  -6.062  -1.145  1.00  0.00     0.164 HD
HETATM   23  C   UNL     1     -23.057  -8.867   0.332  1.00  0.00     0.018 A 
HETATM   24  C   UNL     1     -22.265  -9.797  -0.349  1.00  0.00     0.020 A 
ENDBRANCH  16  18
ENDBRANCH  15  16
ENDBRANCH  14  15
ENDBRANCH  13  14
ENDBRANCH   1  13
TORSDOF 15
ENDMDL
MODEL 8
REMARK VINA RESULT:      -6.1     13.843     16.278
REMARK  15 active torsions:
REMARK  status: ('A' for Active; 'I' for Inactive)
REMARK    1  A    between atoms: C_2  and  C_3 
REMARK    2  A    between atoms: C_3  and  C_4 
REMARK    3  A    between atoms: C_4  and  C_5 
REMARK    4  A    between atoms: C_5  and  C_6 
REMARK    5  A    between atoms: C_6  and  C_7 
REMARK    6  A    between atoms: C_7  and  C_8 
REMARK    7  A    between atoms: C_8  and  C_9 
REMARK    8  A    between atoms: C_9  and  C_10 
REMARK    9  A    between atoms: C_10  and  C_11 
REMARK   10  A    between atoms: C_11  and  C_12 
REMARK   11  A    between atoms: C_12  and  C_13 
REMARK   12  A    between atoms: C_13  and  C_14 
REMARK   13  A    between atoms: C_14  and  O_15 
REMARK   14  A    between atoms: O_15  and  C_16 
REMARK   15  A    between atoms: C_16  and  C_18 
ROOT
HETATM    1  C   UNL     1     -33.100  -3.307 -11.328  1.00  0.00     0.002 C 
ENDROOT
BRANCH   1   2
HETATM    2  C   UNL     1     -34.009  -4.530 -11.245  1.00  0.00     0.000 C 
BRANCH   2   3
HETATM    3  C   UNL     1     -34.492  -4.955 -12.626  1.00  0.00     0.000 C 
BRANCH   3   4
HETATM    4  C   UNL     1     -34.187  -3.891 -13.657  1.00  0.00     0.000 C 
BRANCH   4   5
HETATM    5  C   UNL     1     -34.189  -4.510 -15.044  1.00  0.00     0.000 C 
BRANCH   5   6
HETATM    6  C   UNL     1     -34.146  -3.416 -16.092  1.00  0.00     0.000 C 
BRANCH   6   7
HETATM    7  C   UNL     1     -33.078  -3.729 -17.124  1.00  0.00     0.000 C 
BRANCH   7   8
HETATM    8  C   UNL     1     -31.967  -4.538 -16.485  1.00  0.00     0.000 C 
BRANCH   8   9
HETATM    9  C   UNL     1     -31.669  -5.767 -17.330  1.00  0.00     0.000 C 
BRANCH   9  10
HETATM   10  C   UNL     1     -30.316  -6.341 -16.954  1.00  0.00    -0.000 C 
BRANCH  10  11
HETATM   11  C   UNL     1     -29.485  -6.605 -18.204  1.00  0.00    -0.005 C 
HETATM   12  C   UNL     1     -29.790  -7.985 -18.757  1.00  0.00     0.005 C 
ENDBRANCH  10  11
ENDBRANCH   9  10
ENDBRANCH   8   9
ENDBRANCH   7   8
ENDBRANCH   6   7
ENDBRANCH   5   6
ENDBRANCH   4   5
ENDBRANCH   3   4
ENDBRANCH   2   3
ENDBRANCH   1   2
BRANCH   1  13
HETATM   13  C   UNL     1     -33.638  -2.154 -10.480  1.00  0.00     0.027 C 
BRANCH  13  14
HETATM   14  C   UNL     1     -35.157  -2.133 -10.423  1.00  0.00     0.179 C 
BRANCH  14  15
HETATM   15  O   UNL     1     -35.643  -0.775 -10.525  1.00  0.00    -0.317 OA
BRANCH  15  16
HETATM   16  C   UNL     1     -36.678  -0.617 -11.395  1.00  0.00     0.294 C 
HETATM   17  O   UNL     1     -37.839  -0.930 -11.157  1.00  0.00    -0.259 OA
BRANCH  16  18
HETATM   18  C   UNL     1     -36.280  -0.031 -12.692  1.00  0.00     0.054 A 
HETATM   19  C   UNL     1     -37.235  -0.014 -13.706  1.00  0.00     0.105 A 
HETATM   20  N   UNL     1     -37.004   0.415 -14.972  1.00  0.00    -0.374 N 
HETATM   21  C   UNL     1     -35.756   0.849 -15.242  1.00  0.00     0.087 A 
ATOM     22  HN  UNL     1     -37.735   0.409 -15.683  1.00  0.00     0.164 HD
HETATM   23  C   UNL     1     -34.740   0.903 -14.295  1.00  0.00     0.018 A 
HETATM   24  C   UNL     1     -35.011   0.462 -12.996  1.00  0.00     0.020 A 
ENDBRANCH  16  18
ENDBRANCH  15  16
ENDBRANCH  14  15
ENDBRANCH  13  14
ENDBRANCH   1  13
TORSDOF 15
ENDMDL
MODEL 9
REMARK VINA RESULT:      -5.9      1.554      2.188
REMARK  15 active torsions:
REMARK  status: ('A' for Active; 'I' for Inactive)
REMARK    1  A    between atoms: C_2  and  C_3 
REMARK    2  A    between atoms: C_3  and  C_4 
REMARK    3  A    between atoms: C_4  and  C_5 
REMARK    4  A    between atoms: C_5  and  C_6 
REMARK    5  A    between atoms: C_6  and  C_7 
REMARK    6  A    between atoms: C_7  and  C_8 
REMARK    7  A    between atoms: C_8  and  C_9 
REMARK    8  A    between atoms: C_9  and  C_10 
REMARK    9  A    between atoms: C_10  and  C_11 
REMARK   10  A    between atoms: C_11  and  C_12 
REMARK   11  A    between atoms: C_12  and  C_13 
REMARK   12  A    between atoms: C_13  and  C_14 
REMARK   13  A    between atoms: C_14  and  O_15 
REMARK   14  A    between atoms: O_15  and  C_16 
REMARK   15  A    between atoms: C_16  and  C_18 
ROOT
HETATM    1  C   UNL     1     -19.742  -4.794  -5.826  1.00  0.00     0.002 C 
ENDROOT
BRANCH   1   2
HETATM    2  C   UNL     1     -21.054  -5.381  -5.315  1.00  0.00     0.000 C 
BRANCH   2   3
HETATM    3  C   UNL     1     -21.356  -6.721  -5.975  1.00  0.00     0.000 C 
BRANCH   3   4
HETATM    4  C   UNL     1     -21.524  -7.809  -4.938  1.00  0.00     0.000 C 
BRANCH   4   5
HETATM    5  C   UNL     1     -21.850  -7.184  -3.593  1.00  0.00     0.000 C 
BRANCH   5   6
HETATM    6  C   UNL     1     -21.122  -7.932  -2.493  1.00  0.00     0.000 C 
BRANCH   6   7
HETATM    7  C   UNL     1     -22.010  -9.033  -1.941  1.00  0.00     0.000 C 
BRANCH   7   8
HETATM    8  C   UNL     1     -21.551 -10.377  -2.471  1.00  0.00     0.000 C 
BRANCH   8   9
HETATM    9  C   UNL     1     -20.691 -11.078  -1.431  1.00  0.00     0.000 C 
BRANCH   9  10
HETATM   10  C   UNL     1     -21.511 -12.123  -0.696  1.00  0.00    -0.000 C 
BRANCH  10  11
HETATM   11  C   UNL     1     -21.515 -11.839   0.801  1.00  0.00    -0.005 C 
HETATM   12  C   UNL     1     -20.413 -10.855   1.153  1.00  0.00     0.005 C 
ENDBRANCH  10  11
ENDBRANCH   9  10
ENDBRANCH   8   9
ENDBRANCH   7   8
ENDBRANCH   6   7
ENDBRANCH   5   6
ENDBRANCH   4   5
ENDBRANCH   3   4
ENDBRANCH   2   3
ENDBRANCH   1   2
BRANCH   1  13
HETATM   13  C   UNL     1     -19.527  -5.116  -7.306  1.00  0.00     0.027 C 
BRANCH  13  14
HETATM   14  C   UNL     1     -20.044  -4.018  -8.222  1.00  0.00     0.179 C 
BRANCH  14  15
HETATM   15  O   UNL     1     -20.779  -4.594  -9.326  1.00  0.00    -0.317 OA
BRANCH  15  16
HETATM   16  C   UNL     1     -22.107  -4.292  -9.329  1.00  0.00     0.294 C 
HETATM   17  O   UNL     1     -22.832  -4.344  -8.343  1.00  0.00    -0.259 OA
BRANCH  16  18
HETATM   18  C   UNL     1     -22.624  -3.896 -10.656  1.00  0.00     0.054 A 
HETATM   19  C   UNL     1     -21.712  -3.848 -11.708  1.00  0.00     0.105 A 
HETATM   20  N   UNL     1     -22.010  -3.429 -12.963  1.00  0.00    -0.374 N 
HETATM   21  C   UNL     1     -23.281  -3.037 -13.182  1.00  0.00     0.087 A 
ATOM     22  HN  UNL     1     -21.308  -3.411 -13.704  1.00  0.00     0.164 HD
HETATM   23  C   UNL     1     -24.274  -3.076 -12.210  1.00  0.00     0.018 A 
HETATM   24  C   UNL     1     -23.940  -3.521 -10.927  1.00  0.00     0.020 A 
ENDBRANCH  16  18
ENDBRANCH  15  16
ENDBRANCH  14  15
ENDBRANCH  13  14
ENDBRANCH   1  13
TORSDOF 15
ENDMDL
