MODEL 1
REMARK VINA RESULT:      -6.5      0.000      0.000
REMARK  22 active torsions:
REMARK  status: ('A' for Active; 'I' for Inactive)
REMARK    1  A    between atoms: C_1  and  C_2 
REMARK    2  A    between atoms: C_1  and  O_34 
REMARK    3  A    between atoms: C_3  and  O_33 
REMARK    4  A    between atoms: C_4  and  O_32 
REMARK    5  A    between atoms: C_5  and  O_31 
REMARK    6  A    between atoms: C_6  and  O_8 
REMARK    7  A    between atoms: O_8  and  C_9 
REMARK    8  A    between atoms: C_9  and  C_10 
REMARK    9  A    between atoms: C_11  and  O_30 
REMARK   10  A    between atoms: C_12  and  O_29 
REMARK   11  A    between atoms: C_13  and  O_28 
REMARK   12  A    between atoms: C_14  and  O_16 
REMARK   13  A    between atoms: O_16  and  C_17 
REMARK   14  A    between atoms: C_17  and  C_18 
REMARK   15  A    between atoms: C_18  and  C_19 
REMARK   16  A    between atoms: C_18  and  O_27 
REMARK   17  A    between atoms: C_19  and  C_20 
REMARK   18  A    between atoms: C_19  and  O_26 
REMARK   19  A    between atoms: C_20  and  C_21 
REMARK   20  A    between atoms: C_20  and  O_25 
REMARK   21  A    between atoms: C_21  and  C_22 
REMARK   22  A    between atoms: C_21  and  O_24 
ROOT
HETATM    1  C   UNL     1     -20.938 -10.904  -4.782  1.00  0.00     0.180 C 
HETATM    2  C   UNL     1     -19.430 -11.074  -4.550  1.00  0.00     0.180 C 
HETATM    3  C   UNL     1     -18.762  -9.734  -4.189  1.00  0.00     0.183 C 
HETATM    4  C   UNL     1     -19.086  -8.626  -5.199  1.00  0.00     0.204 C 
HETATM    5  C   UNL     1     -20.621  -8.565  -5.371  1.00  0.00     0.291 C 
HETATM    6  O   UNL     1     -21.190  -9.830  -5.699  1.00  0.00    -0.348 OA
ENDROOT
BRANCH   1   7
HETATM    7  C   UNL     1     -21.761 -10.736  -3.504  1.00  0.00     0.205 C 
BRANCH   7   8
HETATM    8  O   UNL     1     -20.847 -10.707  -2.397  1.00  0.00    -0.356 OA
BRANCH   8   9
HETATM    9  C   UNL     1     -20.939  -9.467  -1.691  1.00  0.00     0.291 C 
HETATM   10  C   UNL     1     -20.922  -9.767  -0.184  1.00  0.00     0.204 C 
HETATM   11  C   UNL     1     -21.018  -8.442   0.576  1.00  0.00     0.183 C 
HETATM   12  C   UNL     1     -22.270  -7.658   0.135  1.00  0.00     0.180 C 
HETATM   13  C   UNL     1     -22.405  -7.573  -1.400  1.00  0.00     0.179 C 
HETATM   14  O   UNL     1     -22.173  -8.841  -2.040  1.00  0.00    -0.348 OA
BRANCH  10  15
HETATM   15  O   UNL     1     -22.067 -10.587   0.169  1.00  0.00    -0.388 OA
HETATM   16  H   UNL     1     -22.155 -11.235  -0.561  1.00  0.00     0.210 HD
ENDBRANCH  10  15
BRANCH  11  17
HETATM   17  O   UNL     1     -21.060  -8.696   1.986  1.00  0.00    -0.390 OA
HETATM   18  H   UNL     1     -22.004  -8.615   2.232  1.00  0.00     0.210 HD
ENDBRANCH  11  17
BRANCH  12  19
HETATM   19  O   UNL     1     -23.447  -8.313   0.653  1.00  0.00    -0.390 OA
HETATM   20  H   UNL     1     -23.593  -9.106   0.095  1.00  0.00     0.210 HD
ENDBRANCH  12  19
BRANCH  13  21
HETATM   21  C   UNL     1     -21.549  -6.472  -2.046  1.00  0.00     0.198 C 
BRANCH  21  22
HETATM   22  O   UNL     1     -22.123  -6.005  -3.260  1.00  0.00    -0.398 OA
HETATM   23  H   UNL     1     -22.918  -5.493  -3.028  1.00  0.00     0.209 HD
ENDBRANCH  21  22
ENDBRANCH  13  21
ENDBRANCH   8   9
ENDBRANCH   7   8
ENDBRANCH   1   7
BRANCH   2  24
HETATM   24  O   UNL     1     -18.822 -11.610  -5.739  1.00  0.00    -0.390 OA
HETATM   25  H   UNL     1     -18.210 -10.955  -6.112  1.00  0.00     0.210 HD
ENDBRANCH   2  24
BRANCH   3  26
HETATM   26  O   UNL     1     -17.343  -9.913  -4.113  1.00  0.00    -0.390 OA
HETATM   27  H   UNL     1     -16.964  -9.117  -4.546  1.00  0.00     0.210 HD
ENDBRANCH   3  26
BRANCH   5  28
HETATM   28  O   UNL     1     -21.092  -7.610  -6.320  1.00  0.00    -0.356 OA
BRANCH  28  29
HETATM   29  C   UNL     1     -20.558  -6.293  -6.291  1.00  0.00     0.205 C 
BRANCH  29  30
HETATM   30  C   UNL     1     -21.500  -5.141  -6.719  1.00  0.00     0.173 C 
BRANCH  30  31
HETATM   31  C   UNL     1     -21.675  -5.073  -8.262  1.00  0.00     0.180 C 
BRANCH  31  32
HETATM   32  C   UNL     1     -22.650  -3.968  -8.729  1.00  0.00     0.184 C 
BRANCH  32  33
HETATM   33  C   UNL     1     -22.869  -3.996 -10.262  1.00  0.00     0.210 C 
BRANCH  33  34
HETATM   34  C   UNL     1     -24.288  -3.576 -10.612  1.00  0.00     0.265 C 
HETATM   35  O   UNL     1     -24.558  -2.883 -11.594  1.00  0.00    -0.304 OA
ENDBRANCH  33  34
BRANCH  33  36
HETATM   36  O   UNL     1     -21.963  -3.096 -10.900  1.00  0.00    -0.386 OA
HETATM   37  H   UNL     1     -21.658  -2.477 -10.206  1.00  0.00     0.210 HD
ENDBRANCH  33  36
ENDBRANCH  32  33
BRANCH  32  38
HETATM   38  O   UNL     1     -23.917  -4.040  -8.063  1.00  0.00    -0.390 OA
HETATM   39  H   UNL     1     -24.586  -4.294  -8.734  1.00  0.00     0.210 HD
ENDBRANCH  32  38
ENDBRANCH  31  32
BRANCH  31  40
HETATM   40  O   UNL     1     -20.438  -4.867  -8.953  1.00  0.00    -0.390 OA
HETATM   41  H   UNL     1     -19.752  -4.703  -8.274  1.00  0.00     0.210 HD
ENDBRANCH  31  40
ENDBRANCH  30  31
BRANCH  30  42
HETATM   42  O   UNL     1     -22.725  -5.301  -5.997  1.00  0.00    -0.391 OA
HETATM   43  H   UNL     1     -22.720  -4.714  -5.222  1.00  0.00     0.210 HD
ENDBRANCH  30  42
ENDBRANCH  29  30
ENDBRANCH  28  29
ENDBRANCH   5  28
BRANCH   4  44
HETATM   44  O   UNL     1     -18.341  -8.878  -6.407  1.00  0.00    -0.388 OA
HETATM   45  H   UNL     1     -18.447  -9.804  -6.676  1.00  0.00     0.210 HD
ENDBRANCH   4  44
TORSDOF 22
ENDMDL
MODEL 2
REMARK VINA RESULT:      -6.5      1.805      3.098
REMARK  22 active torsions:
REMARK  status: ('A' for Active; 'I' for Inactive)
REMARK    1  A    between atoms: C_1  and  C_2 
REMARK    2  A    between atoms: C_1  and  O_34 
REMARK    3  A    between atoms: C_3  and  O_33 
REMARK    4  A    between atoms: C_4  and  O_32 
REMARK    5  A    between atoms: C_5  and  O_31 
REMARK    6  A    between atoms: C_6  and  O_8 
REMARK    7  A    between atoms: O_8  and  C_9 
REMARK    8  A    between atoms: C_9  and  C_10 
REMARK    9  A    between atoms: C_11  and  O_30 
REMARK   10  A    between atoms: C_12  and  O_29 
REMARK   11  A    between atoms: C_13  and  O_28 
REMARK   12  A    between atoms: C_14  and  O_16 
REMARK   13  A    between atoms: O_16  and  C_17 
REMARK   14  A    between atoms: C_17  and  C_18 
REMARK   15  A    between atoms: C_18  and  C_19 
REMARK   16  A    between atoms: C_18  and  O_27 
REMARK   17  A    between atoms: C_19  and  C_20 
REMARK   18  A    between atoms: C_19  and  O_26 
REMARK   19  A    between atoms: C_20  and  C_21 
REMARK   20  A    between atoms: C_20  and  O_25 
REMARK   21  A    between atoms: C_21  and  C_22 
REMARK   22  A    between atoms: C_21  and  O_24 
ROOT
HETATM    1  C   UNL     1     -21.935  -6.973  -4.507  1.00  0.00     0.180 C 
HETATM    2  C   UNL     1     -20.959  -7.950  -5.181  1.00  0.00     0.180 C 
HETATM    3  C   UNL     1     -19.648  -7.249  -5.581  1.00  0.00     0.183 C 
HETATM    4  C   UNL     1     -19.890  -5.983  -6.414  1.00  0.00     0.204 C 
HETATM    5  C   UNL     1     -20.901  -5.093  -5.655  1.00  0.00     0.291 C 
HETATM    6  O   UNL     1     -22.093  -5.790  -5.303  1.00  0.00    -0.348 OA
ENDROOT
BRANCH   1   7
HETATM    7  C   UNL     1     -21.580  -6.617  -3.063  1.00  0.00     0.205 C 
BRANCH   7   8
HETATM    8  O   UNL     1     -20.481  -7.451  -2.666  1.00  0.00    -0.356 OA
BRANCH   8   9
HETATM    9  C   UNL     1     -20.824  -8.237  -1.523  1.00  0.00     0.291 C 
HETATM   10  C   UNL     1     -20.033  -9.554  -1.588  1.00  0.00     0.204 C 
HETATM   11  C   UNL     1     -20.396 -10.399  -0.364  1.00  0.00     0.183 C 
HETATM   12  C   UNL     1     -21.920 -10.617  -0.294  1.00  0.00     0.180 C 
HETATM   13  C   UNL     1     -22.716  -9.307  -0.475  1.00  0.00     0.179 C 
HETATM   14  O   UNL     1     -22.222  -8.517  -1.571  1.00  0.00    -0.348 OA
BRANCH  10  15
HETATM   15  O   UNL     1     -20.400 -10.291  -2.784  1.00  0.00    -0.388 OA
HETATM   16  H   UNL     1     -21.341 -10.068  -2.946  1.00  0.00     0.210 HD
ENDBRANCH  10  15
BRANCH  11  17
HETATM   17  O   UNL     1     -19.715 -11.659  -0.428  1.00  0.00    -0.390 OA
HETATM   18  H   UNL     1     -19.465 -11.766  -1.368  1.00  0.00     0.210 HD
ENDBRANCH  11  17
BRANCH  12  19
HETATM   19  O   UNL     1     -22.318 -11.531  -1.337  1.00  0.00    -0.390 OA
HETATM   20  H   UNL     1     -21.499 -11.782  -1.816  1.00  0.00     0.210 HD
ENDBRANCH  12  19
BRANCH  13  21
HETATM   21  C   UNL     1     -22.827  -8.459   0.801  1.00  0.00     0.198 C 
BRANCH  21  22
HETATM   22  O   UNL     1     -23.871  -7.498   0.704  1.00  0.00    -0.398 OA
HETATM   23  H   UNL     1     -24.043  -7.350  -0.243  1.00  0.00     0.209 HD
ENDBRANCH  21  22
ENDBRANCH  13  21
ENDBRANCH   8   9
ENDBRANCH   7   8
ENDBRANCH   1   7
BRANCH   2  24
HETATM   24  O   UNL     1     -21.580  -8.514  -6.350  1.00  0.00    -0.390 OA
HETATM   25  H   UNL     1     -21.630  -9.480  -6.255  1.00  0.00     0.210 HD
ENDBRANCH   2  24
BRANCH   3  26
HETATM   26  O   UNL     1     -18.826  -8.159  -6.321  1.00  0.00    -0.390 OA
HETATM   27  H   UNL     1     -17.918  -7.791  -6.254  1.00  0.00     0.210 HD
ENDBRANCH   3  26
BRANCH   5  28
HETATM   28  O   UNL     1     -21.274  -3.889  -6.321  1.00  0.00    -0.356 OA
BRANCH  28  29
HETATM   29  C   UNL     1     -21.392  -3.896  -7.737  1.00  0.00     0.205 C 
BRANCH  29  30
HETATM   30  C   UNL     1     -22.806  -3.669  -8.328  1.00  0.00     0.173 C 
BRANCH  30  31
HETATM   31  C   UNL     1     -22.901  -4.129  -9.809  1.00  0.00     0.180 C 
BRANCH  31  32
HETATM   32  C   UNL     1     -23.934  -3.337 -10.642  1.00  0.00     0.184 C 
BRANCH  32  33
HETATM   33  C   UNL     1     -24.176  -3.977 -12.030  1.00  0.00     0.210 C 
BRANCH  33  34
HETATM   34  C   UNL     1     -23.632  -3.089 -13.138  1.00  0.00     0.265 C 
HETATM   35  O   UNL     1     -22.476  -2.663 -13.148  1.00  0.00    -0.304 OA
ENDBRANCH  33  34
BRANCH  33  36
HETATM   36  O   UNL     1     -23.518  -5.243 -12.104  1.00  0.00    -0.386 OA
HETATM   37  H   UNL     1     -23.981  -5.751 -12.801  1.00  0.00     0.210 HD
ENDBRANCH  33  36
ENDBRANCH  32  33
BRANCH  32  38
HETATM   38  O   UNL     1     -25.186  -3.186  -9.959  1.00  0.00    -0.390 OA
HETATM   39  H   UNL     1     -25.891  -3.183 -10.641  1.00  0.00     0.210 HD
ENDBRANCH  32  38
ENDBRANCH  31  32
BRANCH  31  40
HETATM   40  O   UNL     1     -21.648  -4.046 -10.498  1.00  0.00    -0.390 OA
HETATM   41  H   UNL     1     -21.604  -3.160 -10.910  1.00  0.00     0.210 HD
ENDBRANCH  31  40
ENDBRANCH  30  31
BRANCH  30  42
HETATM   42  O   UNL     1     -23.742  -4.308  -7.454  1.00  0.00    -0.391 OA
HETATM   43  H   UNL     1     -23.581  -5.266  -7.455  1.00  0.00     0.210 HD
ENDBRANCH  30  42
ENDBRANCH  29  30
ENDBRANCH  28  29
ENDBRANCH   5  28
BRANCH   4  44
HETATM   44  O   UNL     1     -20.293  -6.379  -7.739  1.00  0.00    -0.388 OA
HETATM   45  H   UNL     1     -19.836  -5.838  -8.402  1.00  0.00     0.210 HD
ENDBRANCH   4  44
TORSDOF 22
ENDMDL
MODEL 3
REMARK VINA RESULT:      -6.5      1.587      3.368
REMARK  22 active torsions:
REMARK  status: ('A' for Active; 'I' for Inactive)
REMARK    1  A    between atoms: C_1  and  C_2 
REMARK    2  A    between atoms: C_1  and  O_34 
REMARK    3  A    between atoms: C_3  and  O_33 
REMARK    4  A    between atoms: C_4  and  O_32 
REMARK    5  A    between atoms: C_5  and  O_31 
REMARK    6  A    between atoms: C_6  and  O_8 
REMARK    7  A    between atoms: O_8  and  C_9 
REMARK    8  A    between atoms: C_9  and  C_10 
REMARK    9  A    between atoms: C_11  and  O_30 
REMARK   10  A    between atoms: C_12  and  O_29 
REMARK   11  A    between atoms: C_13  and  O_28 
REMARK   12  A    between atoms: C_14  and  O_16 
REMARK   13  A    between atoms: O_16  and  C_17 
REMARK   14  A    between atoms: C_17  and  C_18 
REMARK   15  A    between atoms: C_18  and  C_19 
REMARK   16  A    between atoms: C_18  and  O_27 
REMARK   17  A    between atoms: C_19  and  C_20 
REMARK   18  A    between atoms: C_19  and  O_26 
REMARK   19  A    between atoms: C_20  and  C_21 
REMARK   20  A    between atoms: C_20  and  O_25 
REMARK   21  A    between atoms: C_21  and  C_22 
REMARK   22  A    between atoms: C_21  and  O_24 
ROOT
HETATM    1  C   UNL     1     -21.934  -6.843  -4.246  1.00  0.00     0.180 C 
HETATM    2  C   UNL     1     -21.014  -7.935  -4.809  1.00  0.00     0.180 C 
HETATM    3  C   UNL     1     -19.679  -7.346  -5.304  1.00  0.00     0.183 C 
HETATM    4  C   UNL     1     -19.879  -6.178  -6.278  1.00  0.00     0.204 C 
HETATM    5  C   UNL     1     -20.838  -5.160  -5.618  1.00  0.00     0.291 C 
HETATM    6  O   UNL     1     -22.054  -5.755  -5.174  1.00  0.00    -0.348 OA
ENDROOT
BRANCH   1   7
HETATM    7  C   UNL     1     -21.541  -6.336  -2.858  1.00  0.00     0.205 C 
BRANCH   7   8
HETATM    8  O   UNL     1     -22.297  -7.081  -1.891  1.00  0.00    -0.356 OA
BRANCH   8   9
HETATM    9  C   UNL     1     -21.821  -8.426  -1.797  1.00  0.00     0.291 C 
HETATM   10  C   UNL     1     -22.701  -9.181  -0.787  1.00  0.00     0.204 C 
HETATM   11  C   UNL     1     -22.196 -10.621  -0.685  1.00  0.00     0.183 C 
HETATM   12  C   UNL     1     -20.701 -10.642  -0.309  1.00  0.00     0.180 C 
HETATM   13  C   UNL     1     -19.858  -9.687  -1.180  1.00  0.00     0.179 C 
HETATM   14  O   UNL     1     -20.474  -8.395  -1.326  1.00  0.00    -0.348 OA
BRANCH  10  15
HETATM   15  O   UNL     1     -22.596  -8.559   0.521  1.00  0.00    -0.388 OA
HETATM   16  H   UNL     1     -23.362  -7.950   0.579  1.00  0.00     0.210 HD
ENDBRANCH  10  15
BRANCH  11  17
HETATM   17  O   UNL     1     -22.965 -11.334   0.293  1.00  0.00    -0.390 OA
HETATM   18  H   UNL     1     -22.426 -11.309   1.109  1.00  0.00     0.210 HD
ENDBRANCH  11  17
BRANCH  12  19
HETATM   19  O   UNL     1     -20.552 -10.241   1.069  1.00  0.00    -0.390 OA
HETATM   20  H   UNL     1     -20.750 -11.033   1.613  1.00  0.00     0.210 HD
ENDBRANCH  12  19
BRANCH  13  21
HETATM   21  C   UNL     1     -19.472 -10.263  -2.551  1.00  0.00     0.198 C 
BRANCH  21  22
HETATM   22  O   UNL     1     -18.348  -9.592  -3.105  1.00  0.00    -0.398 OA
HETATM   23  H   UNL     1     -18.485  -9.539  -4.068  1.00  0.00     0.209 HD
ENDBRANCH  21  22
ENDBRANCH  13  21
ENDBRANCH   8   9
ENDBRANCH   7   8
ENDBRANCH   1   7
BRANCH   2  24
HETATM   24  O   UNL     1     -21.678  -8.604  -5.897  1.00  0.00    -0.390 OA
HETATM   25  H   UNL     1     -22.469  -9.057  -5.562  1.00  0.00     0.210 HD
ENDBRANCH   2  24
BRANCH   3  26
HETATM   26  O   UNL     1     -18.910  -8.373  -5.940  1.00  0.00    -0.390 OA
HETATM   27  H   UNL     1     -19.383  -9.208  -5.733  1.00  0.00     0.210 HD
ENDBRANCH   3  26
BRANCH   5  28
HETATM   28  O   UNL     1     -21.169  -4.026  -6.418  1.00  0.00    -0.356 OA
BRANCH  28  29
HETATM   29  C   UNL     1     -22.324  -4.083  -7.243  1.00  0.00     0.205 C 
BRANCH  29  30
HETATM   30  C   UNL     1     -22.098  -4.312  -8.758  1.00  0.00     0.173 C 
BRANCH  30  31
HETATM   31  C   UNL     1     -23.093  -3.494  -9.627  1.00  0.00     0.180 C 
BRANCH  31  32
HETATM   32  C   UNL     1     -23.278  -4.055 -11.056  1.00  0.00     0.184 C 
BRANCH  32  33
HETATM   33  C   UNL     1     -23.941  -3.025 -12.004  1.00  0.00     0.210 C 
BRANCH  33  34
HETATM   34  C   UNL     1     -23.647  -3.361 -13.457  1.00  0.00     0.265 C 
HETATM   35  O   UNL     1     -22.713  -2.859 -14.085  1.00  0.00    -0.304 OA
ENDBRANCH  33  34
BRANCH  33  36
HETATM   36  O   UNL     1     -25.357  -3.034 -11.817  1.00  0.00    -0.386 OA
HETATM   37  H   UNL     1     -25.661  -2.121 -11.997  1.00  0.00     0.210 HD
ENDBRANCH  33  36
ENDBRANCH  32  33
BRANCH  32  38
HETATM   38  O   UNL     1     -22.044  -4.507 -11.629  1.00  0.00    -0.390 OA
HETATM   39  H   UNL     1     -21.978  -4.117 -12.526  1.00  0.00     0.210 HD
ENDBRANCH  32  38
ENDBRANCH  31  32
BRANCH  31  40
HETATM   40  O   UNL     1     -24.395  -3.396  -9.039  1.00  0.00    -0.390 OA
HETATM   41  H   UNL     1     -24.293  -2.918  -8.191  1.00  0.00     0.210 HD
ENDBRANCH  31  40
ENDBRANCH  30  31
BRANCH  30  42
HETATM   42  O   UNL     1     -20.720  -4.038  -9.030  1.00  0.00    -0.391 OA
HETATM   43  H   UNL     1     -20.478  -3.185  -8.636  1.00  0.00     0.210 HD
ENDBRANCH  30  42
ENDBRANCH  29  30
ENDBRANCH  28  29
ENDBRANCH   5  28
BRANCH   4  44
HETATM   44  O   UNL     1     -20.320  -6.708  -7.543  1.00  0.00    -0.388 OA
HETATM   45  H   UNL     1     -20.701  -6.000  -8.087  1.00  0.00     0.210 HD
ENDBRANCH   4  44
TORSDOF 22
ENDMDL
MODEL 4
REMARK VINA RESULT:      -6.3      1.628      2.784
REMARK  22 active torsions:
REMARK  status: ('A' for Active; 'I' for Inactive)
REMARK    1  A    between atoms: C_1  and  C_2 
REMARK    2  A    between atoms: C_1  and  O_34 
REMARK    3  A    between atoms: C_3  and  O_33 
REMARK    4  A    between atoms: C_4  and  O_32 
REMARK    5  A    between atoms: C_5  and  O_31 
REMARK    6  A    between atoms: C_6  and  O_8 
REMARK    7  A    between atoms: O_8  and  C_9 
REMARK    8  A    between atoms: C_9  and  C_10 
REMARK    9  A    between atoms: C_11  and  O_30 
REMARK   10  A    between atoms: C_12  and  O_29 
REMARK   11  A    between atoms: C_13  and  O_28 
REMARK   12  A    between atoms: C_14  and  O_16 
REMARK   13  A    between atoms: O_16  and  C_17 
REMARK   14  A    between atoms: C_17  and  C_18 
REMARK   15  A    between atoms: C_18  and  C_19 
REMARK   16  A    between atoms: C_18  and  O_27 
REMARK   17  A    between atoms: C_19  and  C_20 
REMARK   18  A    between atoms: C_19  and  O_26 
REMARK   19  A    between atoms: C_20  and  C_21 
REMARK   20  A    between atoms: C_20  and  O_25 
REMARK   21  A    between atoms: C_21  and  C_22 
REMARK   22  A    between atoms: C_21  and  O_24 
ROOT
HETATM    1  C   UNL     1     -20.925 -11.024  -5.484  1.00  0.00     0.180 C 
HETATM    2  C   UNL     1     -19.562 -11.585  -5.915  1.00  0.00     0.180 C 
HETATM    3  C   UNL     1     -18.406 -10.884  -5.178  1.00  0.00     0.183 C 
HETATM    4  C   UNL     1     -18.480  -9.355  -5.292  1.00  0.00     0.204 C 
HETATM    5  C   UNL     1     -19.896  -8.909  -4.860  1.00  0.00     0.291 C 
HETATM    6  O   UNL     1     -20.929  -9.591  -5.566  1.00  0.00    -0.348 OA
ENDROOT
BRANCH   1   7
HETATM    7  C   UNL     1     -21.398 -11.493  -4.108  1.00  0.00     0.205 C 
BRANCH   7   8
HETATM    8  O   UNL     1     -22.233 -10.463  -3.559  1.00  0.00    -0.356 OA
BRANCH   8   9
HETATM    9  C   UNL     1     -22.443 -10.666  -2.160  1.00  0.00     0.291 C 
HETATM   10  C   UNL     1     -21.825  -9.480  -1.401  1.00  0.00     0.204 C 
HETATM   11  C   UNL     1     -22.050  -9.694   0.098  1.00  0.00     0.183 C 
HETATM   12  C   UNL     1     -21.475 -11.053   0.540  1.00  0.00     0.180 C 
HETATM   13  C   UNL     1     -21.911 -12.210  -0.383  1.00  0.00     0.179 C 
HETATM   14  O   UNL     1     -21.785 -11.873  -1.777  1.00  0.00    -0.348 OA
BRANCH  10  15
HETATM   15  O   UNL     1     -20.397  -9.425  -1.651  1.00  0.00    -0.388 OA
HETATM   16  H   UNL     1     -20.041 -10.269  -1.302  1.00  0.00     0.210 HD
ENDBRANCH  10  15
BRANCH  11  17
HETATM   17  O   UNL     1     -21.434  -8.629   0.835  1.00  0.00    -0.390 OA
HETATM   18  H   UNL     1     -21.845  -8.662   1.722  1.00  0.00     0.210 HD
ENDBRANCH  11  17
BRANCH  12  19
HETATM   19  O   UNL     1     -20.034 -10.988   0.525  1.00  0.00    -0.390 OA
HETATM   20  H   UNL     1     -19.799 -10.041   0.420  1.00  0.00     0.210 HD
ENDBRANCH  12  19
BRANCH  13  21
HETATM   21  C   UNL     1     -23.314 -12.761  -0.081  1.00  0.00     0.198 C 
BRANCH  21  22
HETATM   22  O   UNL     1     -23.436 -13.174   1.273  1.00  0.00    -0.398 OA
HETATM   23  H   UNL     1     -23.233 -12.403   1.833  1.00  0.00     0.209 HD
ENDBRANCH  21  22
ENDBRANCH  13  21
ENDBRANCH   8   9
ENDBRANCH   7   8
ENDBRANCH   1   7
BRANCH   2  24
HETATM   24  O   UNL     1     -19.403 -11.414  -7.335  1.00  0.00    -0.390 OA
HETATM   25  H   UNL     1     -18.961 -10.567  -7.511  1.00  0.00     0.210 HD
ENDBRANCH   2  24
BRANCH   3  26
HETATM   26  O   UNL     1     -17.155 -11.342  -5.706  1.00  0.00    -0.390 OA
HETATM   27  H   UNL     1     -16.498 -11.148  -5.003  1.00  0.00     0.210 HD
ENDBRANCH   3  26
BRANCH   5  28
HETATM   28  O   UNL     1     -20.150  -7.509  -4.952  1.00  0.00    -0.356 OA
BRANCH  28  29
HETATM   29  C   UNL     1     -21.483  -7.066  -5.170  1.00  0.00     0.205 C 
BRANCH  29  30
HETATM   30  C   UNL     1     -21.667  -5.728  -5.926  1.00  0.00     0.173 C 
BRANCH  30  31
HETATM   31  C   UNL     1     -21.026  -5.764  -7.342  1.00  0.00     0.180 C 
BRANCH  31  32
HETATM   32  C   UNL     1     -20.946  -4.380  -8.024  1.00  0.00     0.184 C 
BRANCH  32  33
HETATM   33  C   UNL     1     -21.595  -4.386  -9.430  1.00  0.00     0.210 C 
BRANCH  33  34
HETATM   34  C   UNL     1     -22.976  -3.751  -9.391  1.00  0.00     0.265 C 
HETATM   35  O   UNL     1     -23.840  -4.076  -8.575  1.00  0.00    -0.304 OA
ENDBRANCH  33  34
BRANCH  33  36
HETATM   36  O   UNL     1     -20.785  -3.645 -10.344  1.00  0.00    -0.386 OA
HETATM   37  H   UNL     1     -21.383  -3.010 -10.787  1.00  0.00     0.210 HD
ENDBRANCH  33  36
ENDBRANCH  32  33
BRANCH  32  38
HETATM   38  O   UNL     1     -21.537  -3.344  -7.229  1.00  0.00    -0.390 OA
HETATM   39  H   UNL     1     -21.446  -2.504  -7.729  1.00  0.00     0.210 HD
ENDBRANCH  32  38
ENDBRANCH  31  32
BRANCH  31  40
HETATM   40  O   UNL     1     -19.704  -6.313  -7.340  1.00  0.00    -0.390 OA
HETATM   41  H   UNL     1     -19.120  -5.659  -7.776  1.00  0.00     0.210 HD
ENDBRANCH  31  40
ENDBRANCH  30  31
BRANCH  30  42
HETATM   42  O   UNL     1     -23.065  -5.424  -5.923  1.00  0.00    -0.391 OA
HETATM   43  H   UNL     1     -23.495  -5.880  -6.665  1.00  0.00     0.210 HD
ENDBRANCH  30  42
ENDBRANCH  29  30
ENDBRANCH  28  29
ENDBRANCH   5  28
BRANCH   4  44
HETATM   44  O   UNL     1     -18.097  -8.977  -6.628  1.00  0.00    -0.388 OA
HETATM   45  H   UNL     1     -17.146  -8.785  -6.660  1.00  0.00     0.210 HD
ENDBRANCH   4  44
TORSDOF 22
ENDMDL
MODEL 5
REMARK VINA RESULT:      -6.3      1.703      2.290
REMARK  22 active torsions:
REMARK  status: ('A' for Active; 'I' for Inactive)
REMARK    1  A    between atoms: C_1  and  C_2 
REMARK    2  A    between atoms: C_1  and  O_34 
REMARK    3  A    between atoms: C_3  and  O_33 
REMARK    4  A    between atoms: C_4  and  O_32 
REMARK    5  A    between atoms: C_5  and  O_31 
REMARK    6  A    between atoms: C_6  and  O_8 
REMARK    7  A    between atoms: O_8  and  C_9 
REMARK    8  A    between atoms: C_9  and  C_10 
REMARK    9  A    between atoms: C_11  and  O_30 
REMARK   10  A    between atoms: C_12  and  O_29 
REMARK   11  A    between atoms: C_13  and  O_28 
REMARK   12  A    between atoms: C_14  and  O_16 
REMARK   13  A    between atoms: O_16  and  C_17 
REMARK   14  A    between atoms: C_17  and  C_18 
REMARK   15  A    between atoms: C_18  and  C_19 
REMARK   16  A    between atoms: C_18  and  O_27 
REMARK   17  A    between atoms: C_19  and  C_20 
REMARK   18  A    between atoms: C_19  and  O_26 
REMARK   19  A    between atoms: C_20  and  C_21 
REMARK   20  A    between atoms: C_20  and  O_25 
REMARK   21  A    between atoms: C_21  and  C_22 
REMARK   22  A    between atoms: C_21  and  O_24 
ROOT
HETATM    1  C   UNL     1     -20.199 -11.586  -5.473  1.00  0.00     0.180 C 
HETATM    2  C   UNL     1     -18.853 -11.788  -6.185  1.00  0.00     0.180 C 
HETATM    3  C   UNL     1     -17.736 -10.961  -5.522  1.00  0.00     0.183 C 
HETATM    4  C   UNL     1     -18.111  -9.481  -5.373  1.00  0.00     0.204 C 
HETATM    5  C   UNL     1     -19.487  -9.402  -4.671  1.00  0.00     0.291 C 
HETATM    6  O   UNL     1     -20.483 -10.188  -5.320  1.00  0.00    -0.348 OA
ENDROOT
BRANCH   1   7
HETATM    7  C   UNL     1     -20.326 -12.319  -4.138  1.00  0.00     0.205 C 
BRANCH   7   8
HETATM    8  O   UNL     1     -21.630 -12.034  -3.607  1.00  0.00    -0.356 OA
BRANCH   8   9
HETATM    9  C   UNL     1     -21.536 -11.461  -2.301  1.00  0.00     0.291 C 
HETATM   10  C   UNL     1     -22.218 -12.414  -1.305  1.00  0.00     0.204 C 
HETATM   11  C   UNL     1     -22.118 -11.804   0.095  1.00  0.00     0.183 C 
HETATM   12  C   UNL     1     -22.724 -10.387   0.110  1.00  0.00     0.180 C 
HETATM   13  C   UNL     1     -22.209  -9.510  -1.050  1.00  0.00     0.179 C 
HETATM   14  O   UNL     1     -22.220 -10.209  -2.308  1.00  0.00    -0.348 OA
BRANCH  10  15
HETATM   15  O   UNL     1     -23.621 -12.562  -1.646  1.00  0.00    -0.388 OA
HETATM   16  H   UNL     1     -23.652 -12.541  -2.625  1.00  0.00     0.210 HD
ENDBRANCH  10  15
BRANCH  11  17
HETATM   17  O   UNL     1     -22.795 -12.646   1.038  1.00  0.00    -0.390 OA
HETATM   18  H   UNL     1     -22.839 -12.122   1.862  1.00  0.00     0.210 HD
ENDBRANCH  11  17
BRANCH  12  19
HETATM   19  O   UNL     1     -24.159 -10.483  -0.003  1.00  0.00    -0.390 OA
HETATM   20  H   UNL     1     -24.492 -10.749   0.882  1.00  0.00     0.210 HD
ENDBRANCH  12  19
BRANCH  13  21
HETATM   21  C   UNL     1     -20.835  -8.872  -0.794  1.00  0.00     0.198 C 
BRANCH  21  22
HETATM   22  O   UNL     1     -20.639  -7.710  -1.589  1.00  0.00    -0.398 OA
HETATM   23  H   UNL     1     -19.941  -7.914  -2.237  1.00  0.00     0.209 HD
ENDBRANCH  21  22
ENDBRANCH  13  21
ENDBRANCH   8   9
ENDBRANCH   7   8
ENDBRANCH   1   7
BRANCH   2  24
HETATM   24  O   UNL     1     -18.982 -11.405  -7.566  1.00  0.00    -0.390 OA
HETATM   25  H   UNL     1     -18.165 -10.965  -7.856  1.00  0.00     0.210 HD
ENDBRANCH   2  24
BRANCH   3  26
HETATM   26  O   UNL     1     -16.535 -11.075  -6.294  1.00  0.00    -0.390 OA
HETATM   27  H   UNL     1     -16.838 -11.284  -7.204  1.00  0.00     0.210 HD
ENDBRANCH   3  26
BRANCH   5  28
HETATM   28  O   UNL     1     -20.008  -8.086  -4.497  1.00  0.00    -0.356 OA
BRANCH  28  29
HETATM   29  C   UNL     1     -21.362  -7.832  -4.849  1.00  0.00     0.205 C 
BRANCH  29  30
HETATM   30  C   UNL     1     -21.707  -6.404  -5.338  1.00  0.00     0.173 C 
BRANCH  30  31
HETATM   31  C   UNL     1     -21.327  -6.190  -6.829  1.00  0.00     0.180 C 
BRANCH  31  32
HETATM   32  C   UNL     1     -21.627  -4.766  -7.349  1.00  0.00     0.184 C 
BRANCH  32  33
HETATM   33  C   UNL     1     -21.340  -4.627  -8.864  1.00  0.00     0.210 C 
BRANCH  33  34
HETATM   34  C   UNL     1     -22.353  -3.705  -9.524  1.00  0.00     0.265 C 
HETATM   35  O   UNL     1     -23.449  -4.094  -9.929  1.00  0.00    -0.304 OA
ENDBRANCH  33  34
BRANCH  33  36
HETATM   36  O   UNL     1     -20.035  -4.080  -9.065  1.00  0.00    -0.386 OA
HETATM   37  H   UNL     1     -19.718  -3.801  -8.183  1.00  0.00     0.210 HD
ENDBRANCH  33  36
ENDBRANCH  32  33
BRANCH  32  38
HETATM   38  O   UNL     1     -22.974  -4.357  -7.078  1.00  0.00    -0.390 OA
HETATM   39  H   UNL     1     -23.441  -5.129  -6.692  1.00  0.00     0.210 HD
ENDBRANCH  32  38
ENDBRANCH  31  32
BRANCH  31  40
HETATM   40  O   UNL     1     -19.946  -6.456  -7.095  1.00  0.00    -0.390 OA
HETATM   41  H   UNL     1     -19.897  -7.343  -7.508  1.00  0.00     0.210 HD
ENDBRANCH  31  40
ENDBRANCH  30  31
BRANCH  30  42
HETATM   42  O   UNL     1     -23.090  -6.176  -5.046  1.00  0.00    -0.391 OA
HETATM   43  H   UNL     1     -23.627  -6.861  -5.476  1.00  0.00     0.210 HD
ENDBRANCH  30  42
ENDBRANCH  29  30
ENDBRANCH  28  29
ENDBRANCH   5  28
BRANCH   4  44
HETATM   44  O   UNL     1     -18.047  -8.861  -6.672  1.00  0.00    -0.388 OA
HETATM   45  H   UNL     1     -17.430  -9.346  -7.243  1.00  0.00     0.210 HD
ENDBRANCH   4  44
TORSDOF 22
ENDMDL
MODEL 6
REMARK VINA RESULT:      -6.2      1.734      5.173
REMARK  22 active torsions:
REMARK  status: ('A' for Active; 'I' for Inactive)
REMARK    1  A    between atoms: C_1  and  C_2 
REMARK    2  A    between atoms: C_1  and  O_34 
REMARK    3  A    between atoms: C_3  and  O_33 
REMARK    4  A    between atoms: C_4  and  O_32 
REMARK    5  A    between atoms: C_5  and  O_31 
REMARK    6  A    between atoms: C_6  and  O_8 
REMARK    7  A    between atoms: O_8  and  C_9 
REMARK    8  A    between atoms: C_9  and  C_10 
REMARK    9  A    between atoms: C_11  and  O_30 
REMARK   10  A    between atoms: C_12  and  O_29 
REMARK   11  A    between atoms: C_13  and  O_28 
REMARK   12  A    between atoms: C_14  and  O_16 
REMARK   13  A    between atoms: O_16  and  C_17 
REMARK   14  A    between atoms: C_17  and  C_18 
REMARK   15  A    between atoms: C_18  and  C_19 
REMARK   16  A    between atoms: C_18  and  O_27 
REMARK   17  A    between atoms: C_19  and  C_20 
REMARK   18  A    between atoms: C_19  and  O_26 
REMARK   19  A    between atoms: C_20  and  C_21 
REMARK   20  A    between atoms: C_20  and  O_25 
REMARK   21  A    between atoms: C_21  and  C_22 
REMARK   22  A    between atoms: C_21  and  O_24 
ROOT
HETATM    1  C   UNL     1     -20.384  -9.869  -0.620  1.00  0.00     0.180 C 
HETATM    2  C   UNL     1     -21.446  -9.468   0.414  1.00  0.00     0.180 C 
HETATM    3  C   UNL     1     -22.760  -9.040  -0.265  1.00  0.00     0.183 C 
HETATM    4  C   UNL     1     -22.543  -7.966  -1.340  1.00  0.00     0.204 C 
HETATM    5  C   UNL     1     -21.442  -8.466  -2.303  1.00  0.00     0.291 C 
HETATM    6  O   UNL     1     -20.249  -8.854  -1.625  1.00  0.00    -0.348 OA
ENDROOT
BRANCH   1   7
HETATM    7  C   UNL     1     -20.606 -11.242  -1.257  1.00  0.00     0.205 C 
BRANCH   7   8
HETATM    8  O   UNL     1     -19.463 -11.532  -2.076  1.00  0.00    -0.356 OA
BRANCH   8   9
HETATM    9  C   UNL     1     -19.865 -11.950  -3.383  1.00  0.00     0.291 C 
HETATM   10  C   UNL     1     -18.982 -11.228  -4.414  1.00  0.00     0.204 C 
HETATM   11  C   UNL     1     -19.408 -11.674  -5.815  1.00  0.00     0.183 C 
HETATM   12  C   UNL     1     -20.911 -11.415  -6.028  1.00  0.00     0.180 C 
HETATM   13  C   UNL     1     -21.774 -11.935  -4.858  1.00  0.00     0.179 C 
HETATM   14  O   UNL     1     -21.228 -11.576  -3.576  1.00  0.00    -0.348 OA
BRANCH  10  15
HETATM   15  O   UNL     1     -19.173  -9.792  -4.308  1.00  0.00    -0.388 OA
HETATM   16  H   UNL     1     -19.571  -9.650  -3.423  1.00  0.00     0.210 HD
ENDBRANCH  10  15
BRANCH  11  17
HETATM   17  O   UNL     1     -18.636 -10.972  -6.799  1.00  0.00    -0.390 OA
HETATM   18  H   UNL     1     -19.289 -10.453  -7.312  1.00  0.00     0.210 HD
ENDBRANCH  11  17
BRANCH  12  19
HETATM   19  O   UNL     1     -21.137  -9.996  -6.155  1.00  0.00    -0.390 OA
HETATM   20  H   UNL     1     -20.753  -9.728  -7.017  1.00  0.00     0.210 HD
ENDBRANCH  12  19
BRANCH  13  21
HETATM   21  C   UNL     1     -22.074 -13.441  -4.920  1.00  0.00     0.198 C 
BRANCH  21  22
HETATM   22  O   UNL     1     -22.860 -13.865  -3.814  1.00  0.00    -0.398 OA
HETATM   23  H   UNL     1     -22.363 -14.566  -3.355  1.00  0.00     0.209 HD
ENDBRANCH  21  22
ENDBRANCH  13  21
ENDBRANCH   8   9
ENDBRANCH   7   8
ENDBRANCH   1   7
BRANCH   2  24
HETATM   24  O   UNL     1     -20.943  -8.384   1.217  1.00  0.00    -0.390 OA
HETATM   25  H   UNL     1     -21.570  -8.196   1.935  1.00  0.00     0.210 HD
ENDBRANCH   2  24
BRANCH   3  26
HETATM   26  O   UNL     1     -23.672  -8.549   0.724  1.00  0.00    -0.390 OA
HETATM   27  H   UNL     1     -23.126  -8.426   1.531  1.00  0.00     0.210 HD
ENDBRANCH   3  26
BRANCH   5  28
HETATM   28  O   UNL     1     -21.082  -7.559  -3.343  1.00  0.00    -0.356 OA
BRANCH  28  29
HETATM   29  C   UNL     1     -22.015  -7.303  -4.384  1.00  0.00     0.205 C 
BRANCH  29  30
HETATM   30  C   UNL     1     -21.750  -6.069  -5.281  1.00  0.00     0.173 C 
BRANCH  30  31
HETATM   31  C   UNL     1     -20.836  -6.411  -6.491  1.00  0.00     0.180 C 
BRANCH  31  32
HETATM   32  C   UNL     1     -20.179  -5.174  -7.144  1.00  0.00     0.184 C 
BRANCH  32  33
HETATM   33  C   UNL     1     -20.562  -5.033  -8.637  1.00  0.00     0.210 C 
BRANCH  33  34
HETATM   34  C   UNL     1     -22.062  -4.839  -8.795  1.00  0.00     0.265 C 
HETATM   35  O   UNL     1     -22.688  -3.953  -8.210  1.00  0.00    -0.304 OA
ENDBRANCH  33  34
BRANCH  33  36
HETATM   36  O   UNL     1     -19.900  -3.901  -9.205  1.00  0.00    -0.386 OA
HETATM   37  H   UNL     1     -20.584  -3.404  -9.697  1.00  0.00     0.210 HD
ENDBRANCH  33  36
ENDBRANCH  32  33
BRANCH  32  38
HETATM   38  O   UNL     1     -20.494  -3.959  -6.452  1.00  0.00    -0.390 OA
HETATM   39  H   UNL     1     -19.689  -3.398  -6.467  1.00  0.00     0.210 HD
ENDBRANCH  32  38
ENDBRANCH  31  32
BRANCH  31  40
HETATM   40  O   UNL     1     -19.784  -7.321  -6.152  1.00  0.00    -0.390 OA
HETATM   41  H   UNL     1     -20.092  -8.220  -6.389  1.00  0.00     0.210 HD
ENDBRANCH  31  40
ENDBRANCH  30  31
BRANCH  30  42
HETATM   42  O   UNL     1     -23.023  -5.524  -5.643  1.00  0.00    -0.391 OA
HETATM   43  H   UNL     1     -23.528  -5.325  -4.838  1.00  0.00     0.210 HD
ENDBRANCH  30  42
ENDBRANCH  29  30
ENDBRANCH  28  29
ENDBRANCH   5  28
BRANCH   4  44
HETATM   44  O   UNL     1     -22.264  -6.714  -0.684  1.00  0.00    -0.388 OA
HETATM   45  H   UNL     1     -21.432  -6.776  -0.188  1.00  0.00     0.210 HD
ENDBRANCH   4  44
TORSDOF 22
ENDMDL
MODEL 7
REMARK VINA RESULT:      -6.1      1.926      9.150
REMARK  22 active torsions:
REMARK  status: ('A' for Active; 'I' for Inactive)
REMARK    1  A    between atoms: C_1  and  C_2 
REMARK    2  A    between atoms: C_1  and  O_34 
REMARK    3  A    between atoms: C_3  and  O_33 
REMARK    4  A    between atoms: C_4  and  O_32 
REMARK    5  A    between atoms: C_5  and  O_31 
REMARK    6  A    between atoms: C_6  and  O_8 
REMARK    7  A    between atoms: O_8  and  C_9 
REMARK    8  A    between atoms: C_9  and  C_10 
REMARK    9  A    between atoms: C_11  and  O_30 
REMARK   10  A    between atoms: C_12  and  O_29 
REMARK   11  A    between atoms: C_13  and  O_28 
REMARK   12  A    between atoms: C_14  and  O_16 
REMARK   13  A    between atoms: O_16  and  C_17 
REMARK   14  A    between atoms: C_17  and  C_18 
REMARK   15  A    between atoms: C_18  and  C_19 
REMARK   16  A    between atoms: C_18  and  O_27 
REMARK   17  A    between atoms: C_19  and  C_20 
REMARK   18  A    between atoms: C_19  and  O_26 
REMARK   19  A    between atoms: C_20  and  C_21 
REMARK   20  A    between atoms: C_20  and  O_25 
REMARK   21  A    between atoms: C_21  and  C_22 
REMARK   22  A    between atoms: C_21  and  O_24 
ROOT
HETATM    1  C   UNL     1     -21.507  -6.131  -6.490  1.00  0.00     0.180 C 
HETATM    2  C   UNL     1     -22.172  -5.795  -5.146  1.00  0.00     0.180 C 
HETATM    3  C   UNL     1     -21.214  -6.045  -3.967  1.00  0.00     0.183 C 
HETATM    4  C   UNL     1     -20.607  -7.454  -3.992  1.00  0.00     0.204 C 
HETATM    5  C   UNL     1     -19.994  -7.688  -5.392  1.00  0.00     0.291 C 
HETATM    6  O   UNL     1     -20.918  -7.439  -6.448  1.00  0.00    -0.348 OA
ENDROOT
BRANCH   1   7
HETATM    7  C   UNL     1     -20.496  -5.092  -6.974  1.00  0.00     0.205 C 
BRANCH   7   8
HETATM    8  O   UNL     1     -21.182  -3.836  -7.088  1.00  0.00    -0.356 OA
BRANCH   8   9
HETATM    9  C   UNL     1     -21.644  -3.625  -8.425  1.00  0.00     0.291 C 
HETATM   10  C   UNL     1     -23.148  -3.314  -8.373  1.00  0.00     0.204 C 
HETATM   11  C   UNL     1     -23.645  -3.085  -9.803  1.00  0.00     0.183 C 
HETATM   12  C   UNL     1     -23.315  -4.302 -10.689  1.00  0.00     0.180 C 
HETATM   13  C   UNL     1     -21.848  -4.759 -10.545  1.00  0.00     0.179 C 
HETATM   14  O   UNL     1     -21.428  -4.822  -9.170  1.00  0.00    -0.348 OA
BRANCH  10  15
HETATM   15  O   UNL     1     -23.866  -4.442  -7.809  1.00  0.00    -0.388 OA
HETATM   16  H   UNL     1     -23.982  -4.226  -6.860  1.00  0.00     0.210 HD
ENDBRANCH  10  15
BRANCH  11  17
HETATM   17  O   UNL     1     -25.060  -2.848  -9.790  1.00  0.00    -0.390 OA
HETATM   18  H   UNL     1     -25.374  -3.134 -10.671  1.00  0.00     0.210 HD
ENDBRANCH  11  17
BRANCH  12  19
HETATM   19  O   UNL     1     -24.166  -5.406 -10.317  1.00  0.00    -0.390 OA
HETATM   20  H   UNL     1     -23.988  -5.590  -9.370  1.00  0.00     0.210 HD
ENDBRANCH  12  19
BRANCH  13  21
HETATM   21  C   UNL     1     -20.850  -3.941 -11.380  1.00  0.00     0.198 C 
BRANCH  21  22
HETATM   22  O   UNL     1     -21.363  -3.650 -12.674  1.00  0.00    -0.398 OA
HETATM   23  H   UNL     1     -21.618  -2.710 -12.682  1.00  0.00     0.209 HD
ENDBRANCH  21  22
ENDBRANCH  13  21
ENDBRANCH   8   9
ENDBRANCH   7   8
ENDBRANCH   1   7
BRANCH   2  24
HETATM   24  O   UNL     1     -23.354  -6.599  -4.986  1.00  0.00    -0.390 OA
HETATM   25  H   UNL     1     -23.126  -7.418  -4.514  1.00  0.00     0.210 HD
ENDBRANCH   2  24
BRANCH   3  26
HETATM   26  O   UNL     1     -21.914  -5.848  -2.733  1.00  0.00    -0.390 OA
HETATM   27  H   UNL     1     -22.736  -6.378  -2.821  1.00  0.00     0.210 HD
ENDBRANCH   3  26
BRANCH   5  28
HETATM   28  O   UNL     1     -19.424  -8.979  -5.601  1.00  0.00    -0.356 OA
BRANCH  28  29
HETATM   29  C   UNL     1     -18.506  -9.487  -4.643  1.00  0.00     0.205 C 
BRANCH  29  30
HETATM   30  C   UNL     1     -18.950 -10.726  -3.828  1.00  0.00     0.173 C 
BRANCH  30  31
HETATM   31  C   UNL     1     -18.845 -10.486  -2.296  1.00  0.00     0.180 C 
BRANCH  31  32
HETATM   32  C   UNL     1     -20.088 -10.957  -1.506  1.00  0.00     0.184 C 
BRANCH  32  33
HETATM   33  C   UNL     1     -19.727 -11.408  -0.069  1.00  0.00     0.210 C 
BRANCH  33  34
HETATM   34  C   UNL     1     -20.934 -11.303   0.849  1.00  0.00     0.265 C 
HETATM   35  O   UNL     1     -22.063 -11.667   0.516  1.00  0.00    -0.304 OA
ENDBRANCH  33  34
BRANCH  33  36
HETATM   36  O   UNL     1     -19.286 -12.767  -0.081  1.00  0.00    -0.386 OA
HETATM   37  H   UNL     1     -19.389 -13.079  -1.002  1.00  0.00     0.210 HD
ENDBRANCH  33  36
ENDBRANCH  32  33
BRANCH  32  38
HETATM   38  O   UNL     1     -21.112  -9.956  -1.451  1.00  0.00    -0.390 OA
HETATM   39  H   UNL     1     -21.598 -10.082  -0.608  1.00  0.00     0.210 HD
ENDBRANCH  32  38
ENDBRANCH  31  32
BRANCH  31  40
HETATM   40  O   UNL     1     -17.704 -11.123  -1.711  1.00  0.00    -0.390 OA
HETATM   41  H   UNL     1     -16.910 -10.710  -2.106  1.00  0.00     0.210 HD
ENDBRANCH  31  40
ENDBRANCH  30  31
BRANCH  30  42
HETATM   42  O   UNL     1     -20.261 -11.085  -4.277  1.00  0.00    -0.391 OA
HETATM   43  H   UNL     1     -20.851 -11.173  -3.511  1.00  0.00     0.210 HD
ENDBRANCH  30  42
ENDBRANCH  29  30
ENDBRANCH  28  29
ENDBRANCH   5  28
BRANCH   4  44
HETATM   44  O   UNL     1     -21.623  -8.396  -3.600  1.00  0.00    -0.388 OA
HETATM   45  H   UNL     1     -21.375  -8.827  -2.767  1.00  0.00     0.210 HD
ENDBRANCH   4  44
TORSDOF 22
ENDMDL
MODEL 8
REMARK VINA RESULT:      -6.1      1.891      5.264
REMARK  22 active torsions:
REMARK  status: ('A' for Active; 'I' for Inactive)
REMARK    1  A    between atoms: C_1  and  C_2 
REMARK    2  A    between atoms: C_1  and  O_34 
REMARK    3  A    between atoms: C_3  and  O_33 
REMARK    4  A    between atoms: C_4  and  O_32 
REMARK    5  A    between atoms: C_5  and  O_31 
REMARK    6  A    between atoms: C_6  and  O_8 
REMARK    7  A    between atoms: O_8  and  C_9 
REMARK    8  A    between atoms: C_9  and  C_10 
REMARK    9  A    between atoms: C_11  and  O_30 
REMARK   10  A    between atoms: C_12  and  O_29 
REMARK   11  A    between atoms: C_13  and  O_28 
REMARK   12  A    between atoms: C_14  and  O_16 
REMARK   13  A    between atoms: O_16  and  C_17 
REMARK   14  A    between atoms: C_17  and  C_18 
REMARK   15  A    between atoms: C_18  and  C_19 
REMARK   16  A    between atoms: C_18  and  O_27 
REMARK   17  A    between atoms: C_19  and  C_20 
REMARK   18  A    between atoms: C_19  and  O_26 
REMARK   19  A    between atoms: C_20  and  C_21 
REMARK   20  A    between atoms: C_20  and  O_25 
REMARK   21  A    between atoms: C_21  and  C_22 
REMARK   22  A    between atoms: C_21  and  O_24 
ROOT
HETATM    1  C   UNL     1     -20.071  -8.538  -4.195  1.00  0.00     0.180 C 
HETATM    2  C   UNL     1     -20.418  -8.613  -2.701  1.00  0.00     0.180 C 
HETATM    3  C   UNL     1     -21.884  -8.218  -2.443  1.00  0.00     0.183 C 
HETATM    4  C   UNL     1     -22.245  -6.864  -3.069  1.00  0.00     0.204 C 
HETATM    5  C   UNL     1     -21.829  -6.896  -4.558  1.00  0.00     0.291 C 
HETATM    6  O   UNL     1     -20.466  -7.272  -4.742  1.00  0.00    -0.348 OA
ENDROOT
BRANCH   1   7
HETATM    7  C   UNL     1     -20.623  -9.692  -5.033  1.00  0.00     0.205 C 
BRANCH   7   8
HETATM    8  O   UNL     1     -20.392 -10.908  -4.305  1.00  0.00    -0.356 OA
BRANCH   8   9
HETATM    9  C   UNL     1     -19.652 -11.843  -5.093  1.00  0.00     0.291 C 
HETATM   10  C   UNL     1     -18.334 -12.153  -4.364  1.00  0.00     0.204 C 
HETATM   11  C   UNL     1     -17.539 -13.155  -5.204  1.00  0.00     0.183 C 
HETATM   12  C   UNL     1     -17.321 -12.610  -6.628  1.00  0.00     0.180 C 
HETATM   13  C   UNL     1     -18.621 -12.073  -7.263  1.00  0.00     0.179 C 
HETATM   14  O   UNL     1     -19.368 -11.242  -6.356  1.00  0.00    -0.348 OA
BRANCH  10  15
HETATM   15  O   UNL     1     -17.549 -10.940  -4.225  1.00  0.00    -0.388 OA
HETATM   16  H   UNL     1     -16.897 -11.134  -3.520  1.00  0.00     0.210 HD
ENDBRANCH  10  15
BRANCH  11  17
HETATM   17  O   UNL     1     -16.279 -13.421  -4.573  1.00  0.00    -0.390 OA
HETATM   18  H   UNL     1     -16.505 -13.747  -3.679  1.00  0.00     0.210 HD
ENDBRANCH  11  17
BRANCH  12  19
HETATM   19  O   UNL     1     -16.365 -11.530  -6.583  1.00  0.00    -0.390 OA
HETATM   20  H   UNL     1     -15.676 -11.739  -7.250  1.00  0.00     0.210 HD
ENDBRANCH  12  19
BRANCH  13  21
HETATM   21  C   UNL     1     -19.520 -13.161  -7.870  1.00  0.00     0.198 C 
BRANCH  21  22
HETATM   22  O   UNL     1     -20.887 -12.771  -7.875  1.00  0.00    -0.398 OA
HETATM   23  H   UNL     1     -21.104 -12.481  -8.780  1.00  0.00     0.209 HD
ENDBRANCH  21  22
ENDBRANCH  13  21
ENDBRANCH   8   9
ENDBRANCH   7   8
ENDBRANCH   1   7
BRANCH   2  24
HETATM   24  O   UNL     1     -19.546  -7.736  -1.964  1.00  0.00    -0.390 OA
HETATM   25  H   UNL     1     -20.065  -7.238  -1.312  1.00  0.00     0.210 HD
ENDBRANCH   2  24
BRANCH   3  26
HETATM   26  O   UNL     1     -22.126  -8.172  -1.032  1.00  0.00    -0.390 OA
HETATM   27  H   UNL     1     -21.596  -7.410  -0.710  1.00  0.00     0.210 HD
ENDBRANCH   3  26
BRANCH   5  28
HETATM   28  O   UNL     1     -22.053  -5.688  -5.281  1.00  0.00    -0.356 OA
BRANCH  28  29
HETATM   29  C   UNL     1     -21.042  -5.217  -6.161  1.00  0.00     0.205 C 
BRANCH  29  30
HETATM   30  C   UNL     1     -21.333  -5.300  -7.680  1.00  0.00     0.173 C 
BRANCH  30  31
HETATM   31  C   UNL     1     -22.442  -4.303  -8.117  1.00  0.00     0.180 C 
BRANCH  31  32
HETATM   32  C   UNL     1     -22.977  -4.554  -9.546  1.00  0.00     0.184 C 
BRANCH  32  33
HETATM   33  C   UNL     1     -24.062  -3.527  -9.950  1.00  0.00     0.210 C 
BRANCH  33  34
HETATM   34  C   UNL     1     -24.059  -3.300 -11.453  1.00  0.00     0.265 C 
HETATM   35  O   UNL     1     -25.070  -2.995 -12.087  1.00  0.00    -0.304 OA
ENDBRANCH  33  34
BRANCH  33  36
HETATM   36  O   UNL     1     -25.353  -4.007  -9.570  1.00  0.00    -0.386 OA
HETATM   37  H   UNL     1     -25.999  -3.505 -10.106  1.00  0.00     0.210 HD
ENDBRANCH  33  36
ENDBRANCH  32  33
BRANCH  32  38
HETATM   38  O   UNL     1     -21.932  -4.557 -10.527  1.00  0.00    -0.390 OA
HETATM   39  H   UNL     1     -21.764  -5.492 -10.773  1.00  0.00     0.210 HD
ENDBRANCH  32  38
ENDBRANCH  31  32
BRANCH  31  40
HETATM   40  O   UNL     1     -23.571  -4.306  -7.236  1.00  0.00    -0.390 OA
HETATM   41  H   UNL     1     -24.184  -5.000  -7.555  1.00  0.00     0.210 HD
ENDBRANCH  31  40
ENDBRANCH  30  31
BRANCH  30  42
HETATM   42  O   UNL     1     -20.088  -5.128  -8.364  1.00  0.00    -0.391 OA
HETATM   43  H   UNL     1     -19.983  -5.834  -9.023  1.00  0.00     0.210 HD
ENDBRANCH  30  42
ENDBRANCH  29  30
ENDBRANCH  28  29
ENDBRANCH   5  28
BRANCH   4  44
HETATM   44  O   UNL     1     -21.637  -5.821  -2.283  1.00  0.00    -0.388 OA
HETATM   45  H   UNL     1     -21.623  -4.990  -2.786  1.00  0.00     0.210 HD
ENDBRANCH   4  44
TORSDOF 22
ENDMDL
MODEL 9
REMARK VINA RESULT:      -6.0      2.520      8.430
REMARK  22 active torsions:
REMARK  status: ('A' for Active; 'I' for Inactive)
REMARK    1  A    between atoms: C_1  and  C_2 
REMARK    2  A    between atoms: C_1  and  O_34 
REMARK    3  A    between atoms: C_3  and  O_33 
REMARK    4  A    between atoms: C_4  and  O_32 
REMARK    5  A    between atoms: C_5  and  O_31 
REMARK    6  A    between atoms: C_6  and  O_8 
REMARK    7  A    between atoms: O_8  and  C_9 
REMARK    8  A    between atoms: C_9  and  C_10 
REMARK    9  A    between atoms: C_11  and  O_30 
REMARK   10  A    between atoms: C_12  and  O_29 
REMARK   11  A    between atoms: C_13  and  O_28 
REMARK   12  A    between atoms: C_14  and  O_16 
REMARK   13  A    between atoms: O_16  and  C_17 
REMARK   14  A    between atoms: C_17  and  C_18 
REMARK   15  A    between atoms: C_18  and  C_19 
REMARK   16  A    between atoms: C_18  and  O_27 
REMARK   17  A    between atoms: C_19  and  C_20 
REMARK   18  A    between atoms: C_19  and  O_26 
REMARK   19  A    between atoms: C_20  and  C_21 
REMARK   20  A    between atoms: C_20  and  O_25 
REMARK   21  A    between atoms: C_21  and  C_22 
REMARK   22  A    between atoms: C_21  and  O_24 
ROOT
HETATM    1  C   UNL     1     -21.693  -6.274  -6.501  1.00  0.00     0.180 C 
HETATM    2  C   UNL     1     -22.229  -5.882  -5.116  1.00  0.00     0.180 C 
HETATM    3  C   UNL     1     -21.140  -6.010  -4.034  1.00  0.00     0.183 C 
HETATM    4  C   UNL     1     -20.466  -7.389  -4.041  1.00  0.00     0.204 C 
HETATM    5  C   UNL     1     -19.992  -7.686  -5.483  1.00  0.00     0.291 C 
HETATM    6  O   UNL     1     -21.035  -7.548  -6.445  1.00  0.00    -0.348 OA
ENDROOT
BRANCH   1   7
HETATM    7  C   UNL     1     -20.794  -5.223  -7.154  1.00  0.00     0.205 C 
BRANCH   7   8
HETATM    8  O   UNL     1     -21.493  -3.969  -7.117  1.00  0.00    -0.356 OA
BRANCH   8   9
HETATM    9  C   UNL     1     -21.985  -3.620  -8.413  1.00  0.00     0.291 C 
HETATM   10  C   UNL     1     -23.520  -3.575  -8.350  1.00  0.00     0.204 C 
HETATM   11  C   UNL     1     -24.051  -3.200  -9.736  1.00  0.00     0.183 C 
HETATM   12  C   UNL     1     -23.523  -4.183 -10.799  1.00  0.00     0.180 C 
HETATM   13  C   UNL     1     -22.000  -4.408 -10.693  1.00  0.00     0.179 C 
HETATM   14  O   UNL     1     -21.574  -4.627  -9.337  1.00  0.00    -0.348 OA
BRANCH  10  15
HETATM   15  O   UNL     1     -24.038  -4.884  -7.996  1.00  0.00    -0.388 OA
HETATM   16  H   UNL     1     -24.203  -5.336  -8.850  1.00  0.00     0.210 HD
ENDBRANCH  10  15
BRANCH  11  17
HETATM   17  O   UNL     1     -25.485  -3.205  -9.721  1.00  0.00    -0.390 OA
HETATM   18  H   UNL     1     -25.748  -2.385 -10.184  1.00  0.00     0.210 HD
ENDBRANCH  11  17
BRANCH  12  19
HETATM   19  O   UNL     1     -24.177  -5.458 -10.634  1.00  0.00    -0.390 OA
HETATM   20  H   UNL     1     -23.716  -6.087 -11.229  1.00  0.00     0.210 HD
ENDBRANCH  12  19
BRANCH  13  21
HETATM   21  C   UNL     1     -21.155  -3.310 -11.359  1.00  0.00     0.198 C 
BRANCH  21  22
HETATM   22  O   UNL     1     -19.891  -3.804 -11.781  1.00  0.00    -0.398 OA
HETATM   23  H   UNL     1     -19.642  -3.317 -12.587  1.00  0.00     0.209 HD
ENDBRANCH  21  22
ENDBRANCH  13  21
ENDBRANCH   8   9
ENDBRANCH   7   8
ENDBRANCH   1   7
BRANCH   2  24
HETATM   24  O   UNL     1     -23.344  -6.727  -4.780  1.00  0.00    -0.390 OA
HETATM   25  H   UNL     1     -23.916  -6.832  -5.558  1.00  0.00     0.210 HD
ENDBRANCH   2  24
BRANCH   3  26
HETATM   26  O   UNL     1     -21.715  -5.766  -2.746  1.00  0.00    -0.390 OA
HETATM   27  H   UNL     1     -22.578  -5.336  -2.931  1.00  0.00     0.210 HD
ENDBRANCH   3  26
BRANCH   5  28
HETATM   28  O   UNL     1     -19.381  -8.960  -5.675  1.00  0.00    -0.356 OA
BRANCH  28  29
HETATM   29  C   UNL     1     -18.176  -9.254  -4.982  1.00  0.00     0.205 C 
BRANCH  29  30
HETATM   30  C   UNL     1     -17.939 -10.729  -4.574  1.00  0.00     0.173 C 
BRANCH  30  31
HETATM   31  C   UNL     1     -18.511 -11.724  -5.622  1.00  0.00     0.180 C 
BRANCH  31  32
HETATM   32  C   UNL     1     -19.940 -12.216  -5.297  1.00  0.00     0.184 C 
BRANCH  32  33
HETATM   33  C   UNL     1     -20.901 -12.044  -6.498  1.00  0.00     0.210 C 
BRANCH  33  34
HETATM   34  C   UNL     1     -22.091 -12.983  -6.376  1.00  0.00     0.265 C 
HETATM   35  O   UNL     1     -22.862 -12.967  -5.415  1.00  0.00    -0.304 OA
ENDBRANCH  33  34
BRANCH  33  36
HETATM   36  O   UNL     1     -21.390 -10.702  -6.543  1.00  0.00    -0.386 OA
HETATM   37  H   UNL     1     -21.691 -10.552  -7.461  1.00  0.00     0.210 HD
ENDBRANCH  33  36
ENDBRANCH  32  33
BRANCH  32  38
HETATM   38  O   UNL     1     -19.960 -13.581  -4.859  1.00  0.00    -0.390 OA
HETATM   39  H   UNL     1     -20.493 -14.088  -5.508  1.00  0.00     0.210 HD
ENDBRANCH  32  38
ENDBRANCH  31  32
BRANCH  31  40
HETATM   40  O   UNL     1     -18.541 -11.180  -6.946  1.00  0.00    -0.390 OA
HETATM   41  H   UNL     1     -18.905 -11.873  -7.534  1.00  0.00     0.210 HD
ENDBRANCH  31  40
ENDBRANCH  30  31
BRANCH  30  42
HETATM   42  O   UNL     1     -16.538 -10.883  -4.322  1.00  0.00    -0.391 OA
HETATM   43  H   UNL     1     -16.412 -11.398  -3.509  1.00  0.00     0.210 HD
ENDBRANCH  30  42
ENDBRANCH  29  30
ENDBRANCH  28  29
ENDBRANCH   5  28
BRANCH   4  44
HETATM   44  O   UNL     1     -21.384  -8.349  -3.486  1.00  0.00    -0.388 OA
HETATM   45  H   UNL     1     -20.911  -8.964  -2.902  1.00  0.00     0.210 HD
ENDBRANCH   4  44
TORSDOF 22
ENDMDL
