MODEL 1
REMARK VINA RESULT:      -7.2      0.000      0.000
REMARK  21 active torsions:
REMARK  status: ('A' for Active; 'I' for Inactive)
REMARK    1  A    between atoms: C_2  and  C_4 
REMARK    2  A    between atoms: C_4  and  C_5 
REMARK    3  A    between atoms: C_5  and  C_6 
REMARK    4  A    between atoms: C_6  and  C_7 
REMARK    5  A    between atoms: C_7  and  C_8 
REMARK    6  A    between atoms: C_8  and  C_9 
REMARK    7  A    between atoms: C_9  and  C_10 
REMARK    8  A    between atoms: C_10  and  C_11 
REMARK    9  A    between atoms: C_11  and  C_12 
REMARK   10  A    between atoms: C_12  and  C_13 
REMARK   11  A    between atoms: C_13  and  C_14 
REMARK   12  A    between atoms: C_14  and  C_15 
REMARK   13  A    between atoms: C_15  and  C_16 
REMARK   14  A    between atoms: C_16  and  C_17 
REMARK   15  A    between atoms: C_17  and  C_18 
REMARK   16  A    between atoms: C_18  and  O_20 
REMARK   17  A    between atoms: O_20  and  C_21 
REMARK   18  A    between atoms: C_21  and  C_22 
REMARK   19  A    between atoms: C_22  and  C_23 
REMARK   20  A    between atoms: C_22  and  O_25 
REMARK   21  A    between atoms: C_23  and  O_24 
ROOT
HETATM    1  C   UNL     1     -20.479  -4.752  -8.472  1.00  0.00     0.000 C 
ENDROOT
BRANCH   1   2
HETATM    2  C   UNL     1     -20.785  -5.725  -7.345  1.00  0.00     0.000 C 
BRANCH   2   3
HETATM    3  C   UNL     1     -21.001  -4.968  -6.042  1.00  0.00     0.000 C 
BRANCH   3   4
HETATM    4  C   UNL     1     -20.895  -5.917  -4.859  1.00  0.00     0.000 C 
BRANCH   4   5
HETATM    5  C   UNL     1     -22.046  -6.909  -4.876  1.00  0.00     0.000 C 
BRANCH   5   6
HETATM    6  C   UNL     1     -21.520  -8.325  -4.713  1.00  0.00     0.000 C 
BRANCH   6   7
HETATM    7  C   UNL     1     -20.166  -8.303  -4.021  1.00  0.00     0.000 C 
BRANCH   7   8
HETATM    8  C   UNL     1     -20.276  -8.925  -2.640  1.00  0.00     0.000 C 
BRANCH   8   9
HETATM    9  C   UNL     1     -20.696  -7.880  -1.616  1.00  0.00     0.000 C 
BRANCH   9  10
HETATM   10  C   UNL     1     -22.018  -8.285  -0.983  1.00  0.00     0.000 C 
BRANCH  10  11
HETATM   11  C   UNL     1     -22.010  -9.756  -0.578  1.00  0.00     0.004 C 
BRANCH  11  12
HETATM   12  C   UNL     1     -23.313 -10.479  -0.954  1.00  0.00    -0.023 C 
HETATM   13  C   UNL     1     -23.138 -11.188  -2.296  1.00  0.00     0.009 C 
HETATM   14  C   UNL     1     -23.747 -11.488   0.113  1.00  0.00     0.009 C 
ENDBRANCH  11  12
ENDBRANCH  10  11
ENDBRANCH   9  10
ENDBRANCH   8   9
ENDBRANCH   7   8
ENDBRANCH   6   7
ENDBRANCH   5   6
ENDBRANCH   4   5
ENDBRANCH   3   4
ENDBRANCH   2   3
ENDBRANCH   1   2
BRANCH   1  15
HETATM   15  C   UNL     1     -21.671  -3.841  -8.746  1.00  0.00     0.000 C 
BRANCH  15  16
HETATM   16  C   UNL     1     -22.765  -4.628  -9.454  1.00  0.00     0.010 C 
BRANCH  16  17
HETATM   17  C   UNL     1     -22.946  -4.176 -10.893  1.00  0.00     0.111 C 
BRANCH  17  18
HETATM   18  C   UNL     1     -24.182  -3.309 -11.007  1.00  0.00     0.258 C 
HETATM   19  O   UNL     1     -24.892  -2.970 -10.081  1.00  0.00    -0.265 OA
BRANCH  18  20
HETATM   20  O   UNL     1     -24.432  -3.062 -12.329  1.00  0.00    -0.319 OA
BRANCH  20  21
HETATM   21  C   UNL     1     -23.280  -2.562 -13.017  1.00  0.00     0.212 C 
BRANCH  21  22
HETATM   22  C   UNL     1     -23.472  -2.454 -14.529  1.00  0.00     0.166 C 
BRANCH  22  23
HETATM   23  C   UNL     1     -23.666  -1.016 -15.024  1.00  0.00     0.198 C 
BRANCH  23  24
HETATM   24  O   UNL     1     -24.949  -0.518 -14.664  1.00  0.00    -0.398 OA
HETATM   25  H   UNL     1     -25.524  -1.269 -14.438  1.00  0.00     0.209 HD
ENDBRANCH  23  24
ENDBRANCH  22  23
BRANCH  22  26
HETATM   26  O   UNL     1     -22.357  -3.069 -15.171  1.00  0.00    -0.391 OA
HETATM   27  H   UNL     1     -21.958  -3.708 -14.548  1.00  0.00     0.210 HD
ENDBRANCH  22  26
ENDBRANCH  21  22
ENDBRANCH  20  21
ENDBRANCH  18  20
ENDBRANCH  17  18
ENDBRANCH  16  17
ENDBRANCH  15  16
ENDBRANCH   1  15
TORSDOF 21
ENDMDL
MODEL 2
REMARK VINA RESULT:      -7.1      1.454      1.982
REMARK  21 active torsions:
REMARK  status: ('A' for Active; 'I' for Inactive)
REMARK    1  A    between atoms: C_2  and  C_4 
REMARK    2  A    between atoms: C_4  and  C_5 
REMARK    3  A    between atoms: C_5  and  C_6 
REMARK    4  A    between atoms: C_6  and  C_7 
REMARK    5  A    between atoms: C_7  and  C_8 
REMARK    6  A    between atoms: C_8  and  C_9 
REMARK    7  A    between atoms: C_9  and  C_10 
REMARK    8  A    between atoms: C_10  and  C_11 
REMARK    9  A    between atoms: C_11  and  C_12 
REMARK   10  A    between atoms: C_12  and  C_13 
REMARK   11  A    between atoms: C_13  and  C_14 
REMARK   12  A    between atoms: C_14  and  C_15 
REMARK   13  A    between atoms: C_15  and  C_16 
REMARK   14  A    between atoms: C_16  and  C_17 
REMARK   15  A    between atoms: C_17  and  C_18 
REMARK   16  A    between atoms: C_18  and  O_20 
REMARK   17  A    between atoms: O_20  and  C_21 
REMARK   18  A    between atoms: C_21  and  C_22 
REMARK   19  A    between atoms: C_22  and  C_23 
REMARK   20  A    between atoms: C_22  and  O_25 
REMARK   21  A    between atoms: C_23  and  O_24 
ROOT
HETATM    1  C   UNL     1     -19.623  -4.631  -7.876  1.00  0.00     0.000 C 
ENDROOT
BRANCH   1   2
HETATM    2  C   UNL     1     -20.312  -4.474  -6.530  1.00  0.00     0.000 C 
BRANCH   2   3
HETATM    3  C   UNL     1     -20.250  -5.781  -5.753  1.00  0.00     0.000 C 
BRANCH   3   4
HETATM    4  C   UNL     1     -21.626  -6.426  -5.699  1.00  0.00     0.000 C 
BRANCH   4   5
HETATM    5  C   UNL     1     -21.932  -6.895  -4.286  1.00  0.00     0.000 C 
BRANCH   5   6
HETATM    6  C   UNL     1     -21.255  -5.986  -3.274  1.00  0.00     0.000 C 
BRANCH   6   7
HETATM    7  C   UNL     1     -22.010  -6.019  -1.954  1.00  0.00     0.000 C 
BRANCH   7   8
HETATM    8  C   UNL     1     -22.116  -7.448  -1.450  1.00  0.00     0.000 C 
BRANCH   8   9
HETATM    9  C   UNL     1     -22.659  -7.473  -0.028  1.00  0.00     0.000 C 
BRANCH   9  10
HETATM   10  C   UNL     1     -23.028  -8.898   0.354  1.00  0.00     0.000 C 
BRANCH  10  11
HETATM   11  C   UNL     1     -22.057  -9.903  -0.256  1.00  0.00     0.004 C 
BRANCH  11  12
HETATM   12  C   UNL     1     -22.770 -11.133  -0.840  1.00  0.00    -0.023 C 
HETATM   13  C   UNL     1     -24.159 -11.265  -0.218  1.00  0.00     0.009 C 
HETATM   14  C   UNL     1     -22.888 -11.067  -2.365  1.00  0.00     0.009 C 
ENDBRANCH  11  12
ENDBRANCH  10  11
ENDBRANCH   9  10
ENDBRANCH   8   9
ENDBRANCH   7   8
ENDBRANCH   6   7
ENDBRANCH   5   6
ENDBRANCH   4   5
ENDBRANCH   3   4
ENDBRANCH   2   3
ENDBRANCH   1   2
BRANCH   1  15
HETATM   15  C   UNL     1     -20.498  -4.093  -9.004  1.00  0.00     0.000 C 
BRANCH  15  16
HETATM   16  C   UNL     1     -21.896  -4.684  -8.893  1.00  0.00     0.010 C 
BRANCH  16  17
HETATM   17  C   UNL     1     -22.973  -3.621  -9.024  1.00  0.00     0.111 C 
BRANCH  17  18
HETATM   18  C   UNL     1     -23.587  -3.680 -10.407  1.00  0.00     0.258 C 
HETATM   19  O   UNL     1     -24.439  -4.468 -10.766  1.00  0.00    -0.265 OA
BRANCH  18  20
HETATM   20  O   UNL     1     -22.952  -2.777 -11.215  1.00  0.00    -0.319 OA
BRANCH  20  21
HETATM   21  C   UNL     1     -22.609  -3.334 -12.488  1.00  0.00     0.212 C 
BRANCH  21  22
HETATM   22  C   UNL     1     -23.627  -3.022 -13.584  1.00  0.00     0.166 C 
BRANCH  22  23
HETATM   23  C   UNL     1     -23.018  -2.338 -14.815  1.00  0.00     0.198 C 
BRANCH  23  24
HETATM   24  O   UNL     1     -22.098  -3.197 -15.476  1.00  0.00    -0.398 OA
HETATM   25  H   UNL     1     -22.439  -4.107 -15.442  1.00  0.00     0.209 HD
ENDBRANCH  23  24
ENDBRANCH  22  23
BRANCH  22  26
HETATM   26  O   UNL     1     -24.287  -4.233 -13.947  1.00  0.00    -0.391 OA
HETATM   27  H   UNL     1     -23.620  -4.849 -14.311  1.00  0.00     0.210 HD
ENDBRANCH  22  26
ENDBRANCH  21  22
ENDBRANCH  20  21
ENDBRANCH  18  20
ENDBRANCH  17  18
ENDBRANCH  16  17
ENDBRANCH  15  16
ENDBRANCH   1  15
TORSDOF 21
ENDMDL
MODEL 3
REMARK VINA RESULT:      -6.9      1.937      3.322
REMARK  21 active torsions:
REMARK  status: ('A' for Active; 'I' for Inactive)
REMARK    1  A    between atoms: C_2  and  C_4 
REMARK    2  A    between atoms: C_4  and  C_5 
REMARK    3  A    between atoms: C_5  and  C_6 
REMARK    4  A    between atoms: C_6  and  C_7 
REMARK    5  A    between atoms: C_7  and  C_8 
REMARK    6  A    between atoms: C_8  and  C_9 
REMARK    7  A    between atoms: C_9  and  C_10 
REMARK    8  A    between atoms: C_10  and  C_11 
REMARK    9  A    between atoms: C_11  and  C_12 
REMARK   10  A    between atoms: C_12  and  C_13 
REMARK   11  A    between atoms: C_13  and  C_14 
REMARK   12  A    between atoms: C_14  and  C_15 
REMARK   13  A    between atoms: C_15  and  C_16 
REMARK   14  A    between atoms: C_16  and  C_17 
REMARK   15  A    between atoms: C_17  and  C_18 
REMARK   16  A    between atoms: C_18  and  O_20 
REMARK   17  A    between atoms: O_20  and  C_21 
REMARK   18  A    between atoms: C_21  and  C_22 
REMARK   19  A    between atoms: C_22  and  C_23 
REMARK   20  A    between atoms: C_22  and  O_25 
REMARK   21  A    between atoms: C_23  and  O_24 
ROOT
HETATM    1  C   UNL     1     -21.374  -3.661  -7.859  1.00  0.00     0.000 C 
ENDROOT
BRANCH   1   2
HETATM    2  C   UNL     1     -19.895  -4.010  -7.859  1.00  0.00     0.000 C 
BRANCH   2   3
HETATM    3  C   UNL     1     -19.507  -4.653  -6.535  1.00  0.00     0.000 C 
BRANCH   3   4
HETATM    4  C   UNL     1     -20.284  -5.945  -6.331  1.00  0.00     0.000 C 
BRANCH   4   5
HETATM    5  C   UNL     1     -21.068  -5.887  -5.030  1.00  0.00     0.000 C 
BRANCH   5   6
HETATM    6  C   UNL     1     -22.169  -6.934  -5.035  1.00  0.00     0.000 C 
BRANCH   6   7
HETATM    7  C   UNL     1     -21.707  -8.183  -4.301  1.00  0.00     0.000 C 
BRANCH   7   8
HETATM    8  C   UNL     1     -21.092  -7.805  -2.965  1.00  0.00     0.000 C 
BRANCH   8   9
HETATM    9  C   UNL     1     -19.937  -8.737  -2.627  1.00  0.00     0.000 C 
BRANCH   9  10
HETATM   10  C   UNL     1     -19.159  -9.069  -3.892  1.00  0.00     0.000 C 
BRANCH  10  11
HETATM   11  C   UNL     1     -18.112 -10.146  -3.630  1.00  0.00     0.004 C 
BRANCH  11  12
HETATM   12  C   UNL     1     -16.686  -9.675  -3.956  1.00  0.00    -0.023 C 
HETATM   13  C   UNL     1     -15.818  -9.760  -2.701  1.00  0.00     0.009 C 
HETATM   14  C   UNL     1     -16.048 -10.490  -5.085  1.00  0.00     0.009 C 
ENDBRANCH  11  12
ENDBRANCH  10  11
ENDBRANCH   9  10
ENDBRANCH   8   9
ENDBRANCH   7   8
ENDBRANCH   6   7
ENDBRANCH   5   6
ENDBRANCH   4   5
ENDBRANCH   3   4
ENDBRANCH   2   3
ENDBRANCH   1   2
BRANCH   1  15
HETATM   15  C   UNL     1     -21.989  -3.893  -9.236  1.00  0.00     0.000 C 
BRANCH  15  16
HETATM   16  C   UNL     1     -23.465  -4.233  -9.085  1.00  0.00     0.010 C 
BRANCH  16  17
HETATM   17  C   UNL     1     -24.329  -3.449 -10.059  1.00  0.00     0.111 C 
BRANCH  17  18
HETATM   18  C   UNL     1     -23.978  -3.834 -11.481  1.00  0.00     0.258 C 
HETATM   19  O   UNL     1     -23.750  -4.962 -11.869  1.00  0.00    -0.265 OA
BRANCH  18  20
HETATM   20  O   UNL     1     -23.850  -2.697 -12.231  1.00  0.00    -0.319 OA
BRANCH  20  21
HETATM   21  C   UNL     1     -22.768  -2.779 -13.164  1.00  0.00     0.212 C 
BRANCH  21  22
HETATM   22  C   UNL     1     -23.202  -2.602 -14.619  1.00  0.00     0.166 C 
BRANCH  22  23
HETATM   23  C   UNL     1     -23.575  -1.159 -14.980  1.00  0.00     0.198 C 
BRANCH  23  24
HETATM   24  O   UNL     1     -24.857  -0.817 -14.469  1.00  0.00    -0.398 OA
HETATM   25  H   UNL     1     -25.215  -1.581 -13.986  1.00  0.00     0.209 HD
ENDBRANCH  23  24
ENDBRANCH  22  23
BRANCH  22  26
HETATM   26  O   UNL     1     -22.161  -3.088 -15.464  1.00  0.00    -0.391 OA
HETATM   27  H   UNL     1     -22.041  -2.453 -16.198  1.00  0.00     0.210 HD
ENDBRANCH  22  26
ENDBRANCH  21  22
ENDBRANCH  20  21
ENDBRANCH  18  20
ENDBRANCH  17  18
ENDBRANCH  16  17
ENDBRANCH  15  16
ENDBRANCH   1  15
TORSDOF 21
ENDMDL
MODEL 4
REMARK VINA RESULT:      -6.9      1.873      3.645
REMARK  21 active torsions:
REMARK  status: ('A' for Active; 'I' for Inactive)
REMARK    1  A    between atoms: C_2  and  C_4 
REMARK    2  A    between atoms: C_4  and  C_5 
REMARK    3  A    between atoms: C_5  and  C_6 
REMARK    4  A    between atoms: C_6  and  C_7 
REMARK    5  A    between atoms: C_7  and  C_8 
REMARK    6  A    between atoms: C_8  and  C_9 
REMARK    7  A    between atoms: C_9  and  C_10 
REMARK    8  A    between atoms: C_10  and  C_11 
REMARK    9  A    between atoms: C_11  and  C_12 
REMARK   10  A    between atoms: C_12  and  C_13 
REMARK   11  A    between atoms: C_13  and  C_14 
REMARK   12  A    between atoms: C_14  and  C_15 
REMARK   13  A    between atoms: C_15  and  C_16 
REMARK   14  A    between atoms: C_16  and  C_17 
REMARK   15  A    between atoms: C_17  and  C_18 
REMARK   16  A    between atoms: C_18  and  O_20 
REMARK   17  A    between atoms: O_20  and  C_21 
REMARK   18  A    between atoms: C_21  and  C_22 
REMARK   19  A    between atoms: C_22  and  C_23 
REMARK   20  A    between atoms: C_22  and  O_25 
REMARK   21  A    between atoms: C_23  and  O_24 
ROOT
HETATM    1  C   UNL     1     -20.124  -6.752  -6.029  1.00  0.00     0.000 C 
ENDROOT
BRANCH   1   2
HETATM    2  C   UNL     1     -21.193  -7.289  -5.092  1.00  0.00     0.000 C 
BRANCH   2   3
HETATM    3  C   UNL     1     -21.850  -6.144  -4.334  1.00  0.00     0.000 C 
BRANCH   3   4
HETATM    4  C   UNL     1     -21.907  -6.462  -2.848  1.00  0.00     0.000 C 
BRANCH   4   5
HETATM    5  C   UNL     1     -21.007  -7.645  -2.529  1.00  0.00     0.000 C 
BRANCH   5   6
HETATM    6  C   UNL     1     -21.114  -8.002  -1.056  1.00  0.00     0.000 C 
BRANCH   6   7
HETATM    7  C   UNL     1     -22.303  -7.289  -0.430  1.00  0.00     0.000 C 
BRANCH   7   8
HETATM    8  C   UNL     1     -23.123  -8.267   0.392  1.00  0.00     0.000 C 
BRANCH   8   9
HETATM    9  C   UNL     1     -22.673  -9.697   0.127  1.00  0.00     0.000 C 
BRANCH   9  10
HETATM   10  C   UNL     1     -23.884 -10.568  -0.169  1.00  0.00     0.000 C 
BRANCH  10  11
HETATM   11  C   UNL     1     -23.484 -12.029  -0.347  1.00  0.00     0.004 C 
BRANCH  11  12
HETATM   12  C   UNL     1     -22.592 -12.541   0.795  1.00  0.00    -0.023 C 
HETATM   13  C   UNL     1     -23.381 -13.521   1.662  1.00  0.00     0.009 C 
HETATM   14  C   UNL     1     -21.316 -13.213   0.281  1.00  0.00     0.009 C 
ENDBRANCH  11  12
ENDBRANCH  10  11
ENDBRANCH   9  10
ENDBRANCH   8   9
ENDBRANCH   7   8
ENDBRANCH   6   7
ENDBRANCH   5   6
ENDBRANCH   4   5
ENDBRANCH   3   4
ENDBRANCH   2   3
ENDBRANCH   1   2
BRANCH   1  15
HETATM   15  C   UNL     1     -20.085  -5.227  -5.998  1.00  0.00     0.000 C 
BRANCH  15  16
HETATM   16  C   UNL     1     -19.998  -4.689  -7.419  1.00  0.00     0.010 C 
BRANCH  16  17
HETATM   17  C   UNL     1     -21.079  -3.660  -7.703  1.00  0.00     0.111 C 
BRANCH  17  18
HETATM   18  C   UNL     1     -22.394  -4.360  -7.978  1.00  0.00     0.258 C 
HETATM   19  O   UNL     1     -23.311  -4.469  -7.189  1.00  0.00    -0.265 OA
BRANCH  18  20
HETATM   20  O   UNL     1     -22.338  -4.942  -9.215  1.00  0.00    -0.319 OA
BRANCH  20  21
HETATM   21  C   UNL     1     -23.537  -4.733  -9.969  1.00  0.00     0.212 C 
BRANCH  21  22
HETATM   22  C   UNL     1     -23.634  -3.337 -10.583  1.00  0.00     0.166 C 
BRANCH  22  23
HETATM   23  C   UNL     1     -22.578  -3.061 -11.660  1.00  0.00     0.198 C 
BRANCH  23  24
HETATM   24  O   UNL     1     -21.952  -4.266 -12.084  1.00  0.00    -0.398 OA
HETATM   25  H   UNL     1     -22.268  -4.486 -12.977  1.00  0.00     0.209 HD
ENDBRANCH  23  24
ENDBRANCH  22  23
BRANCH  22  26
HETATM   26  O   UNL     1     -24.951  -3.162 -11.103  1.00  0.00    -0.391 OA
HETATM   27  H   UNL     1     -25.214  -2.230 -10.966  1.00  0.00     0.210 HD
ENDBRANCH  22  26
ENDBRANCH  21  22
ENDBRANCH  20  21
ENDBRANCH  18  20
ENDBRANCH  17  18
ENDBRANCH  16  17
ENDBRANCH  15  16
ENDBRANCH   1  15
TORSDOF 21
ENDMDL
MODEL 5
REMARK VINA RESULT:      -6.8      1.400      2.122
REMARK  21 active torsions:
REMARK  status: ('A' for Active; 'I' for Inactive)
REMARK    1  A    between atoms: C_2  and  C_4 
REMARK    2  A    between atoms: C_4  and  C_5 
REMARK    3  A    between atoms: C_5  and  C_6 
REMARK    4  A    between atoms: C_6  and  C_7 
REMARK    5  A    between atoms: C_7  and  C_8 
REMARK    6  A    between atoms: C_8  and  C_9 
REMARK    7  A    between atoms: C_9  and  C_10 
REMARK    8  A    between atoms: C_10  and  C_11 
REMARK    9  A    between atoms: C_11  and  C_12 
REMARK   10  A    between atoms: C_12  and  C_13 
REMARK   11  A    between atoms: C_13  and  C_14 
REMARK   12  A    between atoms: C_14  and  C_15 
REMARK   13  A    between atoms: C_15  and  C_16 
REMARK   14  A    between atoms: C_16  and  C_17 
REMARK   15  A    between atoms: C_17  and  C_18 
REMARK   16  A    between atoms: C_18  and  O_20 
REMARK   17  A    between atoms: O_20  and  C_21 
REMARK   18  A    between atoms: C_21  and  C_22 
REMARK   19  A    between atoms: C_22  and  C_23 
REMARK   20  A    between atoms: C_22  and  O_25 
REMARK   21  A    between atoms: C_23  and  O_24 
ROOT
HETATM    1  C   UNL     1     -19.683  -4.704  -7.298  1.00  0.00     0.000 C 
ENDROOT
BRANCH   1   2
HETATM    2  C   UNL     1     -20.588  -5.783  -6.725  1.00  0.00     0.000 C 
BRANCH   2   3
HETATM    3  C   UNL     1     -20.859  -5.514  -5.252  1.00  0.00     0.000 C 
BRANCH   3   4
HETATM    4  C   UNL     1     -21.499  -6.731  -4.604  1.00  0.00     0.000 C 
BRANCH   4   5
HETATM    5  C   UNL     1     -21.193  -6.756  -3.115  1.00  0.00     0.000 C 
BRANCH   5   6
HETATM    6  C   UNL     1     -22.436  -6.395  -2.319  1.00  0.00     0.000 C 
BRANCH   6   7
HETATM    7  C   UNL     1     -22.101  -6.302  -0.839  1.00  0.00     0.000 C 
BRANCH   7   8
HETATM    8  C   UNL     1     -21.921  -7.693  -0.256  1.00  0.00     0.000 C 
BRANCH   8   9
HETATM    9  C   UNL     1     -23.186  -8.136   0.466  1.00  0.00     0.000 C 
BRANCH   9  10
HETATM   10  C   UNL     1     -23.392  -9.630   0.269  1.00  0.00     0.000 C 
BRANCH  10  11
HETATM   11  C   UNL     1     -22.148 -10.287  -0.321  1.00  0.00     0.004 C 
BRANCH  11  12
HETATM   12  C   UNL     1     -22.465 -11.164  -1.541  1.00  0.00    -0.023 C 
HETATM   13  C   UNL     1     -23.926 -11.609  -1.488  1.00  0.00     0.009 C 
HETATM   14  C   UNL     1     -22.190 -10.443  -2.864  1.00  0.00     0.009 C 
ENDBRANCH  11  12
ENDBRANCH  10  11
ENDBRANCH   9  10
ENDBRANCH   8   9
ENDBRANCH   7   8
ENDBRANCH   6   7
ENDBRANCH   5   6
ENDBRANCH   4   5
ENDBRANCH   3   4
ENDBRANCH   2   3
ENDBRANCH   1   2
BRANCH   1  15
HETATM   15  C   UNL     1     -20.482  -3.710  -8.134  1.00  0.00     0.000 C 
BRANCH  15  16
HETATM   16  C   UNL     1     -21.117  -4.429  -9.316  1.00  0.00     0.010 C 
BRANCH  16  17
HETATM   17  C   UNL     1     -22.205  -3.593  -9.970  1.00  0.00     0.111 C 
BRANCH  17  18
HETATM   18  C   UNL     1     -22.006  -3.576 -11.471  1.00  0.00     0.258 C 
HETATM   19  O   UNL     1     -21.290  -4.333 -12.095  1.00  0.00    -0.265 OA
BRANCH  18  20
HETATM   20  O   UNL     1     -22.676  -2.505 -11.996  1.00  0.00    -0.319 OA
BRANCH  20  21
HETATM   21  C   UNL     1     -23.763  -2.903 -12.839  1.00  0.00     0.212 C 
BRANCH  21  22
HETATM   22  C   UNL     1     -23.515  -2.633 -14.322  1.00  0.00     0.166 C 
BRANCH  22  23
HETATM   23  C   UNL     1     -23.603  -1.149 -14.702  1.00  0.00     0.198 C 
BRANCH  23  24
HETATM   24  O   UNL     1     -24.948  -0.689 -14.663  1.00  0.00    -0.398 OA
HETATM   25  H   UNL     1     -24.950   0.255 -14.432  1.00  0.00     0.209 HD
ENDBRANCH  23  24
ENDBRANCH  22  23
BRANCH  22  26
HETATM   26  O   UNL     1     -22.244  -3.175 -14.674  1.00  0.00    -0.391 OA
HETATM   27  H   UNL     1     -21.844  -2.601 -15.358  1.00  0.00     0.210 HD
ENDBRANCH  22  26
ENDBRANCH  21  22
ENDBRANCH  20  21
ENDBRANCH  18  20
ENDBRANCH  17  18
ENDBRANCH  16  17
ENDBRANCH  15  16
ENDBRANCH   1  15
TORSDOF 21
ENDMDL
MODEL 6
REMARK VINA RESULT:      -6.6      1.368      2.075
REMARK  21 active torsions:
REMARK  status: ('A' for Active; 'I' for Inactive)
REMARK    1  A    between atoms: C_2  and  C_4 
REMARK    2  A    between atoms: C_4  and  C_5 
REMARK    3  A    between atoms: C_5  and  C_6 
REMARK    4  A    between atoms: C_6  and  C_7 
REMARK    5  A    between atoms: C_7  and  C_8 
REMARK    6  A    between atoms: C_8  and  C_9 
REMARK    7  A    between atoms: C_9  and  C_10 
REMARK    8  A    between atoms: C_10  and  C_11 
REMARK    9  A    between atoms: C_11  and  C_12 
REMARK   10  A    between atoms: C_12  and  C_13 
REMARK   11  A    between atoms: C_13  and  C_14 
REMARK   12  A    between atoms: C_14  and  C_15 
REMARK   13  A    between atoms: C_15  and  C_16 
REMARK   14  A    between atoms: C_16  and  C_17 
REMARK   15  A    between atoms: C_17  and  C_18 
REMARK   16  A    between atoms: C_18  and  O_20 
REMARK   17  A    between atoms: O_20  and  C_21 
REMARK   18  A    between atoms: C_21  and  C_22 
REMARK   19  A    between atoms: C_22  and  C_23 
REMARK   20  A    between atoms: C_22  and  O_25 
REMARK   21  A    between atoms: C_23  and  O_24 
ROOT
HETATM    1  C   UNL     1     -21.432  -3.642  -7.910  1.00  0.00     0.000 C 
ENDROOT
BRANCH   1   2
HETATM    2  C   UNL     1     -19.952  -3.607  -8.255  1.00  0.00     0.000 C 
BRANCH   2   3
HETATM    3  C   UNL     1     -19.205  -4.679  -7.475  1.00  0.00     0.000 C 
BRANCH   3   4
HETATM    4  C   UNL     1     -20.056  -5.935  -7.361  1.00  0.00     0.000 C 
BRANCH   4   5
HETATM    5  C   UNL     1     -19.968  -6.504  -5.954  1.00  0.00     0.000 C 
BRANCH   5   6
HETATM    6  C   UNL     1     -20.885  -5.732  -5.019  1.00  0.00     0.000 C 
BRANCH   6   7
HETATM    7  C   UNL     1     -22.063  -6.601  -4.608  1.00  0.00     0.000 C 
BRANCH   7   8
HETATM    8  C   UNL     1     -21.656  -8.064  -4.604  1.00  0.00     0.000 C 
BRANCH   8   9
HETATM    9  C   UNL     1     -20.907  -8.406  -3.324  1.00  0.00     0.000 C 
BRANCH   9  10
HETATM   10  C   UNL     1     -21.691  -7.904  -2.121  1.00  0.00     0.000 C 
BRANCH  10  11
HETATM   11  C   UNL     1     -20.953  -8.194  -0.819  1.00  0.00     0.004 C 
BRANCH  11  12
HETATM   12  C   UNL     1     -21.792  -9.028   0.162  1.00  0.00    -0.023 C 
HETATM   13  C   UNL     1     -20.874  -9.944   0.972  1.00  0.00     0.009 C 
HETATM   14  C   UNL     1     -22.620  -8.155   1.109  1.00  0.00     0.009 C 
ENDBRANCH  11  12
ENDBRANCH  10  11
ENDBRANCH   9  10
ENDBRANCH   8   9
ENDBRANCH   7   8
ENDBRANCH   6   7
ENDBRANCH   5   6
ENDBRANCH   4   5
ENDBRANCH   3   4
ENDBRANCH   2   3
ENDBRANCH   1   2
BRANCH   1  15
HETATM   15  C   UNL     1     -22.288  -3.631  -9.172  1.00  0.00     0.000 C 
BRANCH  15  16
HETATM   16  C   UNL     1     -23.695  -4.109  -8.840  1.00  0.00     0.010 C 
BRANCH  16  17
HETATM   17  C   UNL     1     -24.712  -3.629  -9.862  1.00  0.00     0.111 C 
BRANCH  17  18
HETATM   18  C   UNL     1     -24.170  -3.834 -11.261  1.00  0.00     0.258 C 
HETATM   19  O   UNL     1     -23.488  -4.773 -11.621  1.00  0.00    -0.265 OA
BRANCH  18  20
HETATM   20  O   UNL     1     -24.478  -2.741 -12.023  1.00  0.00    -0.319 OA
BRANCH  20  21
HETATM   21  C   UNL     1     -23.432  -2.405 -12.941  1.00  0.00     0.212 C 
BRANCH  21  22
HETATM   22  C   UNL     1     -23.891  -2.363 -14.398  1.00  0.00     0.166 C 
BRANCH  22  23
HETATM   23  C   UNL     1     -23.773  -0.976 -15.042  1.00  0.00     0.198 C 
BRANCH  23  24
HETATM   24  O   UNL     1     -24.986  -0.246 -14.912  1.00  0.00    -0.398 OA
HETATM   25  H   UNL     1     -25.732  -0.842 -15.096  1.00  0.00     0.209 HD
ENDBRANCH  23  24
ENDBRANCH  22  23
BRANCH  22  26
HETATM   26  O   UNL     1     -23.148  -3.332 -15.134  1.00  0.00    -0.391 OA
HETATM   27  H   UNL     1     -22.214  -3.287 -14.846  1.00  0.00     0.210 HD
ENDBRANCH  22  26
ENDBRANCH  21  22
ENDBRANCH  20  21
ENDBRANCH  18  20
ENDBRANCH  17  18
ENDBRANCH  16  17
ENDBRANCH  15  16
ENDBRANCH   1  15
TORSDOF 21
ENDMDL
MODEL 7
REMARK VINA RESULT:      -6.6      1.601      3.040
REMARK  21 active torsions:
REMARK  status: ('A' for Active; 'I' for Inactive)
REMARK    1  A    between atoms: C_2  and  C_4 
REMARK    2  A    between atoms: C_4  and  C_5 
REMARK    3  A    between atoms: C_5  and  C_6 
REMARK    4  A    between atoms: C_6  and  C_7 
REMARK    5  A    between atoms: C_7  and  C_8 
REMARK    6  A    between atoms: C_8  and  C_9 
REMARK    7  A    between atoms: C_9  and  C_10 
REMARK    8  A    between atoms: C_10  and  C_11 
REMARK    9  A    between atoms: C_11  and  C_12 
REMARK   10  A    between atoms: C_12  and  C_13 
REMARK   11  A    between atoms: C_13  and  C_14 
REMARK   12  A    between atoms: C_14  and  C_15 
REMARK   13  A    between atoms: C_15  and  C_16 
REMARK   14  A    between atoms: C_16  and  C_17 
REMARK   15  A    between atoms: C_17  and  C_18 
REMARK   16  A    between atoms: C_18  and  O_20 
REMARK   17  A    between atoms: O_20  and  C_21 
REMARK   18  A    between atoms: C_21  and  C_22 
REMARK   19  A    between atoms: C_22  and  C_23 
REMARK   20  A    between atoms: C_22  and  O_25 
REMARK   21  A    between atoms: C_23  and  O_24 
ROOT
HETATM    1  C   UNL     1     -21.630  -4.601  -7.084  1.00  0.00     0.000 C 
ENDROOT
BRANCH   1   2
HETATM    2  C   UNL     1     -22.012  -5.552  -5.961  1.00  0.00     0.000 C 
BRANCH   2   3
HETATM    3  C   UNL     1     -20.778  -5.937  -5.156  1.00  0.00     0.000 C 
BRANCH   3   4
HETATM    4  C   UNL     1     -21.124  -7.027  -4.154  1.00  0.00     0.000 C 
BRANCH   4   5
HETATM    5  C   UNL     1     -20.535  -8.356  -4.598  1.00  0.00     0.000 C 
BRANCH   5   6
HETATM    6  C   UNL     1     -20.737  -9.406  -3.519  1.00  0.00     0.000 C 
BRANCH   6   7
HETATM    7  C   UNL     1     -22.017 -10.185  -3.779  1.00  0.00     0.000 C 
BRANCH   7   8
HETATM    8  C   UNL     1     -22.513 -10.818  -2.491  1.00  0.00     0.000 C 
BRANCH   8   9
HETATM    9  C   UNL     1     -21.478 -10.663  -1.387  1.00  0.00     0.000 C 
BRANCH   9  10
HETATM   10  C   UNL     1     -22.178 -10.523  -0.044  1.00  0.00     0.000 C 
BRANCH  10  11
HETATM   11  C   UNL     1     -23.241  -9.431  -0.085  1.00  0.00     0.004 C 
BRANCH  11  12
HETATM   12  C   UNL     1     -22.710  -8.070   0.392  1.00  0.00    -0.023 C 
HETATM   13  C   UNL     1     -21.449  -8.277   1.230  1.00  0.00     0.009 C 
HETATM   14  C   UNL     1     -22.409  -7.122  -0.772  1.00  0.00     0.009 C 
ENDBRANCH  11  12
ENDBRANCH  10  11
ENDBRANCH   9  10
ENDBRANCH   8   9
ENDBRANCH   7   8
ENDBRANCH   6   7
ENDBRANCH   5   6
ENDBRANCH   4   5
ENDBRANCH   3   4
ENDBRANCH   2   3
ENDBRANCH   1   2
BRANCH   1  15
HETATM   15  C   UNL     1     -20.865  -5.333  -8.182  1.00  0.00     0.000 C 
BRANCH  15  16
HETATM   16  C   UNL     1     -20.066  -4.330  -9.003  1.00  0.00     0.010 C 
BRANCH  16  17
HETATM   17  C   UNL     1     -20.045  -4.695 -10.478  1.00  0.00     0.111 C 
BRANCH  17  18
HETATM   18  C   UNL     1     -20.970  -3.776 -11.247  1.00  0.00     0.258 C 
HETATM   19  O   UNL     1     -20.866  -2.567 -11.314  1.00  0.00    -0.265 OA
BRANCH  18  20
HETATM   20  O   UNL     1     -22.001  -4.513 -11.763  1.00  0.00    -0.319 OA
BRANCH  20  21
HETATM   21  C   UNL     1     -23.195  -4.400 -10.980  1.00  0.00     0.212 C 
BRANCH  21  22
HETATM   22  C   UNL     1     -24.024  -3.159 -11.308  1.00  0.00     0.166 C 
BRANCH  22  23
HETATM   23  C   UNL     1     -24.204  -2.917 -12.812  1.00  0.00     0.198 C 
BRANCH  23  24
HETATM   24  O   UNL     1     -24.166  -4.140 -13.536  1.00  0.00    -0.398 OA
HETATM   25  H   UNL     1     -24.173  -4.879 -12.904  1.00  0.00     0.209 HD
ENDBRANCH  23  24
ENDBRANCH  22  23
BRANCH  22  26
HETATM   26  O   UNL     1     -25.286  -3.273 -10.654  1.00  0.00    -0.391 OA
HETATM   27  H   UNL     1     -25.324  -2.604  -9.941  1.00  0.00     0.210 HD
ENDBRANCH  22  26
ENDBRANCH  21  22
ENDBRANCH  20  21
ENDBRANCH  18  20
ENDBRANCH  17  18
ENDBRANCH  16  17
ENDBRANCH  15  16
ENDBRANCH   1  15
TORSDOF 21
ENDMDL
MODEL 8
REMARK VINA RESULT:      -6.6      1.866      3.578
REMARK  21 active torsions:
REMARK  status: ('A' for Active; 'I' for Inactive)
REMARK    1  A    between atoms: C_2  and  C_4 
REMARK    2  A    between atoms: C_4  and  C_5 
REMARK    3  A    between atoms: C_5  and  C_6 
REMARK    4  A    between atoms: C_6  and  C_7 
REMARK    5  A    between atoms: C_7  and  C_8 
REMARK    6  A    between atoms: C_8  and  C_9 
REMARK    7  A    between atoms: C_9  and  C_10 
REMARK    8  A    between atoms: C_10  and  C_11 
REMARK    9  A    between atoms: C_11  and  C_12 
REMARK   10  A    between atoms: C_12  and  C_13 
REMARK   11  A    between atoms: C_13  and  C_14 
REMARK   12  A    between atoms: C_14  and  C_15 
REMARK   13  A    between atoms: C_15  and  C_16 
REMARK   14  A    between atoms: C_16  and  C_17 
REMARK   15  A    between atoms: C_17  and  C_18 
REMARK   16  A    between atoms: C_18  and  O_20 
REMARK   17  A    between atoms: O_20  and  C_21 
REMARK   18  A    between atoms: C_21  and  C_22 
REMARK   19  A    between atoms: C_22  and  C_23 
REMARK   20  A    between atoms: C_22  and  O_25 
REMARK   21  A    between atoms: C_23  and  O_24 
ROOT
HETATM    1  C   UNL     1     -21.171  -7.208  -5.151  1.00  0.00     0.000 C 
ENDROOT
BRANCH   1   2
HETATM    2  C   UNL     1     -22.060  -6.425  -4.198  1.00  0.00     0.000 C 
BRANCH   2   3
HETATM    3  C   UNL     1     -21.292  -6.075  -2.932  1.00  0.00     0.000 C 
BRANCH   3   4
HETATM    4  C   UNL     1     -22.184  -6.247  -1.712  1.00  0.00     0.000 C 
BRANCH   4   5
HETATM    5  C   UNL     1     -22.211  -7.705  -1.282  1.00  0.00     0.000 C 
BRANCH   5   6
HETATM    6  C   UNL     1     -22.838  -7.833   0.096  1.00  0.00     0.000 C 
BRANCH   6   7
HETATM    7  C   UNL     1     -21.779  -8.216   1.119  1.00  0.00     0.000 C 
BRANCH   7   8
HETATM    8  C   UNL     1     -20.755  -9.143   0.488  1.00  0.00     0.000 C 
BRANCH   8   9
HETATM    9  C   UNL     1     -20.710 -10.471   1.229  1.00  0.00     0.000 C 
BRANCH   9  10
HETATM   10  C   UNL     1     -21.515 -11.512   0.465  1.00  0.00     0.000 C 
BRANCH  10  11
HETATM   11  C   UNL     1     -21.487 -11.241  -1.035  1.00  0.00     0.004 C 
BRANCH  11  12
HETATM   12  C   UNL     1     -22.800 -11.634  -1.731  1.00  0.00    -0.023 C 
HETATM   13  C   UNL     1     -23.986 -11.209  -0.867  1.00  0.00     0.009 C 
HETATM   14  C   UNL     1     -22.925 -11.017  -3.127  1.00  0.00     0.009 C 
ENDBRANCH  11  12
ENDBRANCH  10  11
ENDBRANCH   9  10
ENDBRANCH   8   9
ENDBRANCH   7   8
ENDBRANCH   6   7
ENDBRANCH   5   6
ENDBRANCH   4   5
ENDBRANCH   3   4
ENDBRANCH   2   3
ENDBRANCH   1   2
BRANCH   1  15
HETATM   15  C   UNL     1     -21.210  -6.607  -6.552  1.00  0.00     0.000 C 
BRANCH  15  16
HETATM   16  C   UNL     1     -20.710  -5.169  -6.507  1.00  0.00     0.010 C 
BRANCH  16  17
HETATM   17  C   UNL     1     -21.532  -4.255  -7.399  1.00  0.00     0.111 C 
BRANCH  17  18
HETATM   18  C   UNL     1     -21.001  -4.308  -8.816  1.00  0.00     0.258 C 
HETATM   19  O   UNL     1     -19.914  -4.742  -9.145  1.00  0.00    -0.265 OA
BRANCH  18  20
HETATM   20  O   UNL     1     -21.892  -3.690  -9.650  1.00  0.00    -0.319 OA
BRANCH  20  21
HETATM   21  C   UNL     1     -21.453  -3.689 -11.012  1.00  0.00     0.212 C 
BRANCH  21  22
HETATM   22  C   UNL     1     -22.595  -3.811 -12.021  1.00  0.00     0.166 C 
BRANCH  22  23
HETATM   23  C   UNL     1     -23.861  -3.045 -11.615  1.00  0.00     0.198 C 
BRANCH  23  24
HETATM   24  O   UNL     1     -24.476  -2.437 -12.743  1.00  0.00    -0.398 OA
HETATM   25  H   UNL     1     -24.235  -1.495 -12.762  1.00  0.00     0.209 HD
ENDBRANCH  23  24
ENDBRANCH  22  23
BRANCH  22  26
HETATM   26  O   UNL     1     -22.122  -3.377 -13.294  1.00  0.00    -0.391 OA
HETATM   27  H   UNL     1     -22.590  -2.551 -13.530  1.00  0.00     0.210 HD
ENDBRANCH  22  26
ENDBRANCH  21  22
ENDBRANCH  20  21
ENDBRANCH  18  20
ENDBRANCH  17  18
ENDBRANCH  16  17
ENDBRANCH  15  16
ENDBRANCH   1  15
TORSDOF 21
ENDMDL
MODEL 9
REMARK VINA RESULT:      -6.4     11.980     15.480
REMARK  21 active torsions:
REMARK  status: ('A' for Active; 'I' for Inactive)
REMARK    1  A    between atoms: C_2  and  C_4 
REMARK    2  A    between atoms: C_4  and  C_5 
REMARK    3  A    between atoms: C_5  and  C_6 
REMARK    4  A    between atoms: C_6  and  C_7 
REMARK    5  A    between atoms: C_7  and  C_8 
REMARK    6  A    between atoms: C_8  and  C_9 
REMARK    7  A    between atoms: C_9  and  C_10 
REMARK    8  A    between atoms: C_10  and  C_11 
REMARK    9  A    between atoms: C_11  and  C_12 
REMARK   10  A    between atoms: C_12  and  C_13 
REMARK   11  A    between atoms: C_13  and  C_14 
REMARK   12  A    between atoms: C_14  and  C_15 
REMARK   13  A    between atoms: C_15  and  C_16 
REMARK   14  A    between atoms: C_16  and  C_17 
REMARK   15  A    between atoms: C_17  and  C_18 
REMARK   16  A    between atoms: C_18  and  O_20 
REMARK   17  A    between atoms: O_20  and  C_21 
REMARK   18  A    between atoms: C_21  and  C_22 
REMARK   19  A    between atoms: C_22  and  C_23 
REMARK   20  A    between atoms: C_22  and  O_25 
REMARK   21  A    between atoms: C_23  and  O_24 
ROOT
HETATM    1  C   UNL     1     -34.226  -4.114 -13.469  1.00  0.00     0.000 C 
ENDROOT
BRANCH   1   2
HETATM    2  C   UNL     1     -34.714  -5.034 -12.362  1.00  0.00     0.000 C 
BRANCH   2   3
HETATM    3  C   UNL     1     -34.468  -4.398 -11.002  1.00  0.00     0.000 C 
BRANCH   3   4
HETATM    4  C   UNL     1     -33.237  -3.506 -11.055  1.00  0.00     0.000 C 
BRANCH   4   5
HETATM    5  C   UNL     1     -33.618  -2.066 -10.754  1.00  0.00     0.000 C 
BRANCH   5   6
HETATM    6  C   UNL     1     -35.107  -1.966 -10.469  1.00  0.00     0.000 C 
BRANCH   6   7
HETATM    7  C   UNL     1     -35.725  -0.849 -11.297  1.00  0.00     0.000 C 
BRANCH   7   8
HETATM    8  C   UNL     1     -35.045  -0.767 -12.652  1.00  0.00     0.000 C 
BRANCH   8   9
HETATM    9  C   UNL     1     -34.891   0.684 -13.084  1.00  0.00     0.000 C 
BRANCH   9  10
HETATM   10  C   UNL     1     -34.603   0.746 -14.577  1.00  0.00     0.000 C 
BRANCH  10  11
HETATM   11  C   UNL     1     -35.787   1.325 -15.344  1.00  0.00     0.004 C 
BRANCH  11  12
HETATM   12  C   UNL     1     -36.656   0.239 -15.997  1.00  0.00    -0.023 C 
HETATM   13  C   UNL     1     -35.787  -0.962 -16.364  1.00  0.00     0.009 C 
HETATM   14  C   UNL     1     -37.806  -0.209 -15.090  1.00  0.00     0.009 C 
ENDBRANCH  11  12
ENDBRANCH  10  11
ENDBRANCH   9  10
ENDBRANCH   8   9
ENDBRANCH   7   8
ENDBRANCH   6   7
ENDBRANCH   5   6
ENDBRANCH   4   5
ENDBRANCH   3   4
ENDBRANCH   2   3
ENDBRANCH   1   2
BRANCH   1  15
HETATM   15  C   UNL     1     -34.491  -4.722 -14.842  1.00  0.00     0.000 C 
BRANCH  15  16
HETATM   16  C   UNL     1     -33.685  -3.976 -15.896  1.00  0.00     0.010 C 
BRANCH  16  17
HETATM   17  C   UNL     1     -32.848  -4.920 -16.742  1.00  0.00     0.111 C 
BRANCH  17  18
HETATM   18  C   UNL     1     -31.480  -4.317 -16.983  1.00  0.00     0.258 C 
HETATM   19  O   UNL     1     -31.268  -3.234 -17.492  1.00  0.00    -0.265 OA
BRANCH  18  20
HETATM   20  O   UNL     1     -30.523  -5.231 -16.638  1.00  0.00    -0.319 OA
BRANCH  20  21
HETATM   21  C   UNL     1     -30.207  -6.120 -17.715  1.00  0.00     0.212 C 
BRANCH  21  22
HETATM   22  C   UNL     1     -29.078  -7.097 -17.388  1.00  0.00     0.166 C 
BRANCH  22  23
HETATM   23  C   UNL     1     -28.524  -6.946 -15.965  1.00  0.00     0.198 C 
BRANCH  23  24
HETATM   24  O   UNL     1     -27.665  -5.817 -15.866  1.00  0.00    -0.398 OA
HETATM   25  H   UNL     1     -28.139  -5.101 -15.410  1.00  0.00     0.209 HD
ENDBRANCH  23  24
ENDBRANCH  22  23
BRANCH  22  26
HETATM   26  O   UNL     1     -29.547  -8.424 -17.615  1.00  0.00    -0.391 OA
HETATM   27  H   UNL     1     -30.061  -8.430 -18.447  1.00  0.00     0.210 HD
ENDBRANCH  22  26
ENDBRANCH  21  22
ENDBRANCH  20  21
ENDBRANCH  18  20
ENDBRANCH  17  18
ENDBRANCH  16  17
ENDBRANCH  15  16
ENDBRANCH   1  15
TORSDOF 21
ENDMDL
