MODEL 1
REMARK VINA RESULT:      -5.4      0.000      0.000
REMARK  13 active torsions:
REMARK  status: ('A' for Active; 'I' for Inactive)
REMARK    1  A    between atoms: C_2  and  C_3 
REMARK    2  A    between atoms: C_3  and  C_4 
REMARK    3  A    between atoms: C_4  and  O_5 
REMARK    4  A    between atoms: O_5  and  C_6 
REMARK    5  A    between atoms: C_6  and  C_7 
REMARK    6  A    between atoms: C_7  and  O_8 
REMARK    7  A    between atoms: O_8  and  C_9 
REMARK    8  A    between atoms: C_9  and  C_10 
REMARK    9  A    between atoms: C_10  and  O_12 
REMARK   10  A    between atoms: O_12  and  C_13 
REMARK   11  A    between atoms: C_13  and  C_14 
REMARK   12  A    between atoms: C_14  and  C_15 
REMARK   13  A    between atoms: C_15  and  O_16 
ROOT
HETATM    1  C   UNL     1     -36.011  -1.375 -11.081  1.00  0.00     0.199 C 
ENDROOT
BRANCH   1   2
HETATM    2  O   UNL     1     -34.671  -1.156 -10.653  1.00  0.00    -0.387 OA
BRANCH   2   3
HETATM    3  C   UNL     1     -34.017  -2.398 -10.402  1.00  0.00     0.193 C 
BRANCH   3   4
HETATM    4  C   UNL     1     -33.519  -2.959 -11.720  1.00  0.00     0.193 C 
BRANCH   4   5
HETATM    5  O   UNL     1     -33.170  -4.328 -11.544  1.00  0.00    -0.389 OA
BRANCH   5   6
HETATM    6  C   UNL     1     -33.963  -4.930 -10.528  1.00  0.00     0.167 C 
BRANCH   6   7
HETATM    7  C   UNL     1     -34.352  -6.327 -10.982  1.00  0.00     0.026 C 
BRANCH   7   8
HETATM    8  C   UNL     1     -34.812  -7.177  -9.804  1.00  0.00    -0.002 C 
HETATM    9  C   UNL     1     -34.167  -8.552  -9.827  1.00  0.00     0.005 C 
ENDBRANCH   7   8
ENDBRANCH   6   7
ENDBRANCH   5   6
ENDBRANCH   4   5
ENDBRANCH   3   4
ENDBRANCH   2   3
ENDBRANCH   1   2
BRANCH   1  10
HETATM   10  C   UNL     1     -36.436  -0.319 -12.111  1.00  0.00     0.141 C 
HETATM   11  C   UNL     1     -35.212   0.378 -12.705  1.00  0.00     0.042 C 
BRANCH  10  12
HETATM   12  O   UNL     1     -37.174  -0.912 -13.193  1.00  0.00    -0.384 OA
BRANCH  12  13
HETATM   13  C   UNL     1     -38.063   0.018 -13.818  1.00  0.00     0.170 C 
BRANCH  13  14
HETATM   14  C   UNL     1     -38.075  -0.200 -15.325  1.00  0.00     0.052 C 
BRANCH  14  15
HETATM   15  C   UNL     1     -36.706   0.118 -15.916  1.00  0.00     0.169 C 
BRANCH  15  16
HETATM   16  O   UNL     1     -36.419  -0.824 -16.948  1.00  0.00    -0.396 OA
HETATM   17  C   UNL     1     -35.255  -1.587 -16.666  1.00  0.00     0.201 C 
ENDBRANCH  15  16
ENDBRANCH  14  15
ENDBRANCH  13  14
ENDBRANCH  12  13
ENDBRANCH  10  12
ENDBRANCH   1  10
TORSDOF 13
ENDMDL
MODEL 2
REMARK VINA RESULT:      -5.4      1.442      2.002
REMARK  13 active torsions:
REMARK  status: ('A' for Active; 'I' for Inactive)
REMARK    1  A    between atoms: C_2  and  C_3 
REMARK    2  A    between atoms: C_3  and  C_4 
REMARK    3  A    between atoms: C_4  and  O_5 
REMARK    4  A    between atoms: O_5  and  C_6 
REMARK    5  A    between atoms: C_6  and  C_7 
REMARK    6  A    between atoms: C_7  and  O_8 
REMARK    7  A    between atoms: O_8  and  C_9 
REMARK    8  A    between atoms: C_9  and  C_10 
REMARK    9  A    between atoms: C_10  and  O_12 
REMARK   10  A    between atoms: O_12  and  C_13 
REMARK   11  A    between atoms: C_13  and  C_14 
REMARK   12  A    between atoms: C_14  and  C_15 
REMARK   13  A    between atoms: C_15  and  O_16 
ROOT
HETATM    1  C   UNL     1     -35.780  -1.864 -10.501  1.00  0.00     0.199 C 
ENDROOT
BRANCH   1   2
HETATM    2  O   UNL     1     -34.428  -1.580 -10.153  1.00  0.00    -0.387 OA
BRANCH   2   3
HETATM    3  C   UNL     1     -33.537  -2.430 -10.872  1.00  0.00     0.193 C 
BRANCH   3   4
HETATM    4  C   UNL     1     -34.194  -2.825 -12.181  1.00  0.00     0.193 C 
BRANCH   4   5
HETATM    5  O   UNL     1     -34.094  -4.236 -12.347  1.00  0.00    -0.389 OA
BRANCH   5   6
HETATM    6  C   UNL     1     -32.867  -4.725 -11.818  1.00  0.00     0.167 C 
BRANCH   6   7
HETATM    7  C   UNL     1     -33.144  -6.023 -11.076  1.00  0.00     0.026 C 
BRANCH   7   8
HETATM    8  C   UNL     1     -34.628  -6.165 -10.757  1.00  0.00    -0.002 C 
HETATM    9  C   UNL     1     -34.889  -7.359  -9.856  1.00  0.00     0.005 C 
ENDBRANCH   7   8
ENDBRANCH   6   7
ENDBRANCH   5   6
ENDBRANCH   4   5
ENDBRANCH   3   4
ENDBRANCH   2   3
ENDBRANCH   1   2
BRANCH   1  10
HETATM   10  C   UNL     1     -36.650  -0.604 -10.386  1.00  0.00     0.141 C 
HETATM   11  C   UNL     1     -36.703  -0.115  -8.939  1.00  0.00     0.042 C 
BRANCH  10  12
HETATM   12  O   UNL     1     -36.132   0.465 -11.195  1.00  0.00    -0.384 OA
BRANCH  12  13
HETATM   13  C   UNL     1     -36.205   0.174 -12.593  1.00  0.00     0.170 C 
BRANCH  13  14
HETATM   14  C   UNL     1     -34.920   0.604 -13.287  1.00  0.00     0.052 C 
BRANCH  14  15
HETATM   15  C   UNL     1     -35.105   0.583 -14.800  1.00  0.00     0.169 C 
BRANCH  15  16
HETATM   16  O   UNL     1     -35.057  -0.769 -15.253  1.00  0.00    -0.396 OA
HETATM   17  C   UNL     1     -35.841  -0.969 -16.420  1.00  0.00     0.201 C 
ENDBRANCH  15  16
ENDBRANCH  14  15
ENDBRANCH  13  14
ENDBRANCH  12  13
ENDBRANCH  10  12
ENDBRANCH   1  10
TORSDOF 13
ENDMDL
MODEL 3
REMARK VINA RESULT:      -5.1     13.146     15.314
REMARK  13 active torsions:
REMARK  status: ('A' for Active; 'I' for Inactive)
REMARK    1  A    between atoms: C_2  and  C_3 
REMARK    2  A    between atoms: C_3  and  C_4 
REMARK    3  A    between atoms: C_4  and  O_5 
REMARK    4  A    between atoms: O_5  and  C_6 
REMARK    5  A    between atoms: C_6  and  C_7 
REMARK    6  A    between atoms: C_7  and  O_8 
REMARK    7  A    between atoms: O_8  and  C_9 
REMARK    8  A    between atoms: C_9  and  C_10 
REMARK    9  A    between atoms: C_10  and  O_12 
REMARK   10  A    between atoms: O_12  and  C_13 
REMARK   11  A    between atoms: C_13  and  C_14 
REMARK   12  A    between atoms: C_14  and  C_15 
REMARK   13  A    between atoms: C_15  and  O_16 
ROOT
HETATM    1  C   UNL     1     -21.130  -5.857  -7.074  1.00  0.00     0.199 C 
ENDROOT
BRANCH   1   2
HETATM    2  O   UNL     1     -21.867  -5.757  -5.859  1.00  0.00    -0.387 OA
BRANCH   2   3
HETATM    3  C   UNL     1     -21.004  -5.923  -4.735  1.00  0.00     0.193 C 
BRANCH   3   4
HETATM    4  C   UNL     1     -21.769  -6.640  -3.639  1.00  0.00     0.193 C 
BRANCH   4   5
HETATM    5  O   UNL     1     -21.992  -5.740  -2.558  1.00  0.00    -0.389 OA
BRANCH   5   6
HETATM    6  C   UNL     1     -22.247  -6.447  -1.351  1.00  0.00     0.167 C 
BRANCH   6   7
HETATM    7  C   UNL     1     -21.488  -7.763  -1.392  1.00  0.00     0.026 C 
BRANCH   7   8
HETATM    8  C   UNL     1     -22.282  -8.873  -0.713  1.00  0.00    -0.002 C 
HETATM    9  C   UNL     1     -23.125  -8.333   0.429  1.00  0.00     0.005 C 
ENDBRANCH   7   8
ENDBRANCH   6   7
ENDBRANCH   5   6
ENDBRANCH   4   5
ENDBRANCH   3   4
ENDBRANCH   2   3
ENDBRANCH   1   2
BRANCH   1  10
HETATM   10  C   UNL     1     -21.281  -4.580  -7.912  1.00  0.00     0.141 C 
HETATM   11  C   UNL     1     -19.915  -4.073  -8.375  1.00  0.00     0.042 C 
BRANCH  10  12
HETATM   12  O   UNL     1     -22.084  -4.814  -9.081  1.00  0.00    -0.384 OA
BRANCH  12  13
HETATM   13  C   UNL     1     -21.600  -4.106 -10.224  1.00  0.00     0.170 C 
BRANCH  13  14
HETATM   14  C   UNL     1     -22.530  -4.321 -11.409  1.00  0.00     0.052 C 
BRANCH  14  15
HETATM   15  C   UNL     1     -22.832  -2.991 -12.092  1.00  0.00     0.169 C 
BRANCH  15  16
HETATM   16  O   UNL     1     -23.610  -3.240 -13.262  1.00  0.00    -0.396 OA
HETATM   17  C   UNL     1     -22.996  -2.720 -14.432  1.00  0.00     0.201 C 
ENDBRANCH  15  16
ENDBRANCH  14  15
ENDBRANCH  13  14
ENDBRANCH  12  13
ENDBRANCH  10  12
ENDBRANCH   1  10
TORSDOF 13
ENDMDL
MODEL 4
REMARK VINA RESULT:      -5.1      1.505      7.141
REMARK  13 active torsions:
REMARK  status: ('A' for Active; 'I' for Inactive)
REMARK    1  A    between atoms: C_2  and  C_3 
REMARK    2  A    between atoms: C_3  and  C_4 
REMARK    3  A    between atoms: C_4  and  O_5 
REMARK    4  A    between atoms: O_5  and  C_6 
REMARK    5  A    between atoms: C_6  and  C_7 
REMARK    6  A    between atoms: C_7  and  O_8 
REMARK    7  A    between atoms: O_8  and  C_9 
REMARK    8  A    between atoms: C_9  and  C_10 
REMARK    9  A    between atoms: C_10  and  O_12 
REMARK   10  A    between atoms: O_12  and  C_13 
REMARK   11  A    between atoms: C_13  and  C_14 
REMARK   12  A    between atoms: C_14  and  C_15 
REMARK   13  A    between atoms: C_15  and  O_16 
ROOT
HETATM    1  C   UNL     1     -35.653  -2.728 -10.861  1.00  0.00     0.199 C 
ENDROOT
BRANCH   1   2
HETATM    2  O   UNL     1     -36.630  -1.791 -11.302  1.00  0.00    -0.387 OA
BRANCH   2   3
HETATM    3  C   UNL     1     -36.118  -1.003 -12.375  1.00  0.00     0.193 C 
BRANCH   3   4
HETATM    4  C   UNL     1     -37.202  -0.046 -12.834  1.00  0.00     0.193 C 
BRANCH   4   5
HETATM    5  O   UNL     1     -37.982  -0.674 -13.847  1.00  0.00    -0.389 OA
BRANCH   5   6
HETATM    6  C   UNL     1     -38.058   0.142 -15.010  1.00  0.00     0.167 C 
BRANCH   6   7
HETATM    7  C   UNL     1     -37.303  -0.549 -16.135  1.00  0.00     0.026 C 
BRANCH   7   8
HETATM    8  C   UNL     1     -35.808  -0.269 -16.043  1.00  0.00    -0.002 C 
HETATM    9  C   UNL     1     -35.538   1.157 -15.597  1.00  0.00     0.005 C 
ENDBRANCH   7   8
ENDBRANCH   6   7
ENDBRANCH   5   6
ENDBRANCH   4   5
ENDBRANCH   3   4
ENDBRANCH   2   3
ENDBRANCH   1   2
BRANCH   1  10
HETATM   10  C   UNL     1     -34.384  -2.642 -11.721  1.00  0.00     0.141 C 
HETATM   11  C   UNL     1     -33.180  -2.243 -10.867  1.00  0.00     0.042 C 
BRANCH  10  12
HETATM   12  O   UNL     1     -34.086  -3.904 -12.341  1.00  0.00    -0.384 OA
BRANCH  12  13
HETATM   13  C   UNL     1     -34.833  -4.980 -11.769  1.00  0.00     0.170 C 
BRANCH  13  14
HETATM   14  C   UNL     1     -33.916  -5.881 -10.954  1.00  0.00     0.052 C 
BRANCH  14  15
HETATM   15  C   UNL     1     -34.732  -6.717  -9.973  1.00  0.00     0.169 C 
BRANCH  15  16
HETATM   16  O   UNL     1     -34.836  -8.048 -10.476  1.00  0.00    -0.396 OA
HETATM   17  C   UNL     1     -33.938  -8.935  -9.827  1.00  0.00     0.201 C 
ENDBRANCH  15  16
ENDBRANCH  14  15
ENDBRANCH  13  14
ENDBRANCH  12  13
ENDBRANCH  10  12
ENDBRANCH   1  10
TORSDOF 13
ENDMDL
MODEL 5
REMARK VINA RESULT:      -4.8     14.100     16.724
REMARK  13 active torsions:
REMARK  status: ('A' for Active; 'I' for Inactive)
REMARK    1  A    between atoms: C_2  and  C_3 
REMARK    2  A    between atoms: C_3  and  C_4 
REMARK    3  A    between atoms: C_4  and  O_5 
REMARK    4  A    between atoms: O_5  and  C_6 
REMARK    5  A    between atoms: C_6  and  C_7 
REMARK    6  A    between atoms: C_7  and  O_8 
REMARK    7  A    between atoms: O_8  and  C_9 
REMARK    8  A    between atoms: C_9  and  C_10 
REMARK    9  A    between atoms: C_10  and  O_12 
REMARK   10  A    between atoms: O_12  and  C_13 
REMARK   11  A    between atoms: C_13  and  C_14 
REMARK   12  A    between atoms: C_14  and  C_15 
REMARK   13  A    between atoms: C_15  and  O_16 
ROOT
HETATM    1  C   UNL     1     -21.056  -7.247  -5.562  1.00  0.00     0.199 C 
ENDROOT
BRANCH   1   2
HETATM    2  O   UNL     1     -19.864  -7.946  -5.906  1.00  0.00    -0.387 OA
BRANCH   2   3
HETATM    3  C   UNL     1     -19.357  -8.656  -4.777  1.00  0.00     0.193 C 
BRANCH   3   4
HETATM    4  C   UNL     1     -20.393  -8.611  -3.670  1.00  0.00     0.193 C 
BRANCH   4   5
HETATM    5  O   UNL     1     -19.776  -8.967  -2.437  1.00  0.00    -0.389 OA
BRANCH   5   6
HETATM    6  C   UNL     1     -20.506  -8.445  -1.333  1.00  0.00     0.167 C 
BRANCH   6   7
HETATM    7  C   UNL     1     -21.351  -7.279  -1.820  1.00  0.00     0.026 C 
BRANCH   7   8
HETATM    8  C   UNL     1     -22.448  -6.943  -0.818  1.00  0.00    -0.002 C 
HETATM    9  C   UNL     1     -22.501  -7.960   0.309  1.00  0.00     0.005 C 
ENDBRANCH   7   8
ENDBRANCH   6   7
ENDBRANCH   5   6
ENDBRANCH   4   5
ENDBRANCH   3   4
ENDBRANCH   2   3
ENDBRANCH   1   2
BRANCH   1  10
HETATM   10  C   UNL     1     -21.128  -5.897  -6.290  1.00  0.00     0.141 C 
HETATM   11  C   UNL     1     -20.120  -4.911  -5.700  1.00  0.00     0.042 C 
BRANCH  10  12
HETATM   12  O   UNL     1     -20.836  -6.043  -7.690  1.00  0.00    -0.384 OA
BRANCH  12  13
HETATM   13  C   UNL     1     -20.117  -4.924  -8.214  1.00  0.00     0.170 C 
BRANCH  13  14
HETATM   14  C   UNL     1     -20.841  -4.354  -9.426  1.00  0.00     0.052 C 
BRANCH  14  15
HETATM   15  C   UNL     1     -22.340  -4.608  -9.312  1.00  0.00     0.169 C 
BRANCH  15  16
HETATM   16  O   UNL     1     -23.033  -3.379  -9.521  1.00  0.00    -0.396 OA
HETATM   17  C   UNL     1     -24.349  -3.585 -10.013  1.00  0.00     0.201 C 
ENDBRANCH  15  16
ENDBRANCH  14  15
ENDBRANCH  13  14
ENDBRANCH  12  13
ENDBRANCH  10  12
ENDBRANCH   1  10
TORSDOF 13
ENDMDL
MODEL 6
REMARK VINA RESULT:      -4.7     15.122     18.383
REMARK  13 active torsions:
REMARK  status: ('A' for Active; 'I' for Inactive)
REMARK    1  A    between atoms: C_2  and  C_3 
REMARK    2  A    between atoms: C_3  and  C_4 
REMARK    3  A    between atoms: C_4  and  O_5 
REMARK    4  A    between atoms: O_5  and  C_6 
REMARK    5  A    between atoms: C_6  and  C_7 
REMARK    6  A    between atoms: C_7  and  O_8 
REMARK    7  A    between atoms: O_8  and  C_9 
REMARK    8  A    between atoms: C_9  and  C_10 
REMARK    9  A    between atoms: C_10  and  O_12 
REMARK   10  A    between atoms: O_12  and  C_13 
REMARK   11  A    between atoms: C_13  and  C_14 
REMARK   12  A    between atoms: C_14  and  C_15 
REMARK   13  A    between atoms: C_15  and  O_16 
ROOT
HETATM    1  C   UNL     1     -21.451  -8.184  -3.507  1.00  0.00     0.199 C 
ENDROOT
BRANCH   1   2
HETATM    2  O   UNL     1     -20.508  -7.921  -4.541  1.00  0.00    -0.387 OA
BRANCH   2   3
HETATM    3  C   UNL     1     -21.149  -7.311  -5.660  1.00  0.00     0.193 C 
BRANCH   3   4
HETATM    4  C   UNL     1     -20.263  -6.193  -6.176  1.00  0.00     0.193 C 
BRANCH   4   5
HETATM    5  O   UNL     1     -20.275  -6.207  -7.600  1.00  0.00    -0.389 OA
BRANCH   5   6
HETATM    6  C   UNL     1     -20.288  -4.883  -8.122  1.00  0.00     0.167 C 
BRANCH   6   7
HETATM    7  C   UNL     1     -21.705  -4.550  -8.559  1.00  0.00     0.026 C 
BRANCH   7   8
HETATM    8  C   UNL     1     -21.750  -4.188 -10.039  1.00  0.00    -0.002 C 
HETATM    9  C   UNL     1     -20.392  -4.364 -10.694  1.00  0.00     0.005 C 
ENDBRANCH   7   8
ENDBRANCH   6   7
ENDBRANCH   5   6
ENDBRANCH   4   5
ENDBRANCH   3   4
ENDBRANCH   2   3
ENDBRANCH   1   2
BRANCH   1  10
HETATM   10  C   UNL     1     -21.153  -7.331  -2.266  1.00  0.00     0.141 C 
HETATM   11  C   UNL     1     -22.077  -6.115  -2.212  1.00  0.00     0.042 C 
BRANCH  10  12
HETATM   12  O   UNL     1     -21.344  -8.085  -1.056  1.00  0.00    -0.384 OA
BRANCH  12  13
HETATM   13  C   UNL     1     -22.363  -7.526  -0.223  1.00  0.00     0.170 C 
BRANCH  13  14
HETATM   14  C   UNL     1     -23.197  -8.635   0.401  1.00  0.00     0.052 C 
BRANCH  14  15
HETATM   15  C   UNL     1     -23.076  -9.914  -0.420  1.00  0.00     0.169 C 
BRANCH  15  16
HETATM   16  O   UNL     1     -24.096 -10.824  -0.010  1.00  0.00    -0.396 OA
HETATM   17  C   UNL     1     -23.577 -12.115   0.274  1.00  0.00     0.201 C 
ENDBRANCH  15  16
ENDBRANCH  14  15
ENDBRANCH  13  14
ENDBRANCH  12  13
ENDBRANCH  10  12
ENDBRANCH   1  10
TORSDOF 13
ENDMDL
MODEL 7
REMARK VINA RESULT:      -4.7     16.138     17.861
REMARK  13 active torsions:
REMARK  status: ('A' for Active; 'I' for Inactive)
REMARK    1  A    between atoms: C_2  and  C_3 
REMARK    2  A    between atoms: C_3  and  C_4 
REMARK    3  A    between atoms: C_4  and  O_5 
REMARK    4  A    between atoms: O_5  and  C_6 
REMARK    5  A    between atoms: C_6  and  C_7 
REMARK    6  A    between atoms: C_7  and  O_8 
REMARK    7  A    between atoms: O_8  and  C_9 
REMARK    8  A    between atoms: C_9  and  C_10 
REMARK    9  A    between atoms: C_10  and  O_12 
REMARK   10  A    between atoms: O_12  and  C_13 
REMARK   11  A    between atoms: C_13  and  C_14 
REMARK   12  A    between atoms: C_14  and  C_15 
REMARK   13  A    between atoms: C_15  and  O_16 
ROOT
HETATM    1  C   UNL     1     -20.811  -7.866  -3.637  1.00  0.00     0.199 C 
ENDROOT
BRANCH   1   2
HETATM    2  O   UNL     1     -20.278  -8.115  -2.341  1.00  0.00    -0.387 OA
BRANCH   2   3
HETATM    3  C   UNL     1     -19.568  -9.352  -2.321  1.00  0.00     0.193 C 
BRANCH   3   4
HETATM    4  C   UNL     1     -20.569 -10.487  -2.425  1.00  0.00     0.193 C 
BRANCH   4   5
HETATM    5  O   UNL     1     -21.271 -10.605  -1.191  1.00  0.00    -0.389 OA
BRANCH   5   6
HETATM    6  C   UNL     1     -22.660 -10.351  -1.369  1.00  0.00     0.167 C 
BRANCH   6   7
HETATM    7  C   UNL     1     -23.255  -9.955  -0.028  1.00  0.00     0.026 C 
BRANCH   7   8
HETATM    8  C   UNL     1     -23.068  -8.466   0.235  1.00  0.00    -0.002 C 
HETATM    9  C   UNL     1     -21.848  -8.204   1.101  1.00  0.00     0.005 C 
ENDBRANCH   7   8
ENDBRANCH   6   7
ENDBRANCH   5   6
ENDBRANCH   4   5
ENDBRANCH   3   4
ENDBRANCH   2   3
ENDBRANCH   1   2
BRANCH   1  10
HETATM   10  C   UNL     1     -21.946  -6.833  -3.573  1.00  0.00     0.141 C 
HETATM   11  C   UNL     1     -21.919  -6.085  -2.240  1.00  0.00     0.042 C 
BRANCH  10  12
HETATM   12  O   UNL     1     -21.830  -5.863  -4.627  1.00  0.00    -0.384 OA
BRANCH  12  13
HETATM   13  C   UNL     1     -20.643  -6.042  -5.403  1.00  0.00     0.170 C 
BRANCH  13  14
HETATM   14  C   UNL     1     -20.048  -4.691  -5.772  1.00  0.00     0.052 C 
BRANCH  14  15
HETATM   15  C   UNL     1     -20.895  -4.017  -6.846  1.00  0.00     0.169 C 
BRANCH  15  16
HETATM   16  O   UNL     1     -20.074  -3.754  -7.983  1.00  0.00    -0.396 OA
HETATM   17  C   UNL     1     -20.105  -4.819  -8.922  1.00  0.00     0.201 C 
ENDBRANCH  15  16
ENDBRANCH  14  15
ENDBRANCH  13  14
ENDBRANCH  12  13
ENDBRANCH  10  12
ENDBRANCH   1  10
TORSDOF 13
ENDMDL
MODEL 8
REMARK VINA RESULT:      -4.7      2.448      5.785
REMARK  13 active torsions:
REMARK  status: ('A' for Active; 'I' for Inactive)
REMARK    1  A    between atoms: C_2  and  C_3 
REMARK    2  A    between atoms: C_3  and  C_4 
REMARK    3  A    between atoms: C_4  and  O_5 
REMARK    4  A    between atoms: O_5  and  C_6 
REMARK    5  A    between atoms: C_6  and  C_7 
REMARK    6  A    between atoms: C_7  and  O_8 
REMARK    7  A    between atoms: O_8  and  C_9 
REMARK    8  A    between atoms: C_9  and  C_10 
REMARK    9  A    between atoms: C_10  and  O_12 
REMARK   10  A    between atoms: O_12  and  C_13 
REMARK   11  A    between atoms: C_13  and  C_14 
REMARK   12  A    between atoms: C_14  and  C_15 
REMARK   13  A    between atoms: C_15  and  O_16 
ROOT
HETATM    1  C   UNL     1     -34.888  -2.303 -10.852  1.00  0.00     0.199 C 
ENDROOT
BRANCH   1   2
HETATM    2  O   UNL     1     -36.201  -2.013 -11.320  1.00  0.00    -0.387 OA
BRANCH   2   3
HETATM    3  C   UNL     1     -36.600  -0.706 -10.912  1.00  0.00     0.193 C 
BRANCH   3   4
HETATM    4  C   UNL     1     -37.546  -0.140 -11.955  1.00  0.00     0.193 C 
BRANCH   4   5
HETATM    5  O   UNL     1     -37.412  -0.886 -13.161  1.00  0.00    -0.389 OA
BRANCH   5   6
HETATM    6  C   UNL     1     -37.288  -0.020 -14.283  1.00  0.00     0.167 C 
BRANCH   6   7
HETATM    7  C   UNL     1     -36.011  -0.375 -15.028  1.00  0.00     0.026 C 
BRANCH   7   8
HETATM    8  C   UNL     1     -35.010   0.773 -14.975  1.00  0.00    -0.002 C 
HETATM    9  C   UNL     1     -34.554   1.045 -13.552  1.00  0.00     0.005 C 
ENDBRANCH   7   8
ENDBRANCH   6   7
ENDBRANCH   5   6
ENDBRANCH   4   5
ENDBRANCH   3   4
ENDBRANCH   2   3
ENDBRANCH   1   2
BRANCH   1  10
HETATM   10  C   UNL     1     -33.986  -2.765 -12.005  1.00  0.00     0.141 C 
HETATM   11  C   UNL     1     -33.063  -3.895 -11.550  1.00  0.00     0.042 C 
BRANCH  10  12
HETATM   12  O   UNL     1     -34.762  -3.249 -13.114  1.00  0.00    -0.384 OA
BRANCH  12  13
HETATM   13  C   UNL     1     -33.991  -4.058 -14.006  1.00  0.00     0.170 C 
BRANCH  13  14
HETATM   14  C   UNL     1     -34.336  -3.725 -15.450  1.00  0.00     0.052 C 
BRANCH  14  15
HETATM   15  C   UNL     1     -33.526  -4.599 -16.402  1.00  0.00     0.169 C 
BRANCH  15  16
HETATM   16  O   UNL     1     -32.199  -4.083 -16.485  1.00  0.00    -0.396 OA
HETATM   17  C   UNL     1     -31.249  -5.098 -16.774  1.00  0.00     0.201 C 
ENDBRANCH  15  16
ENDBRANCH  14  15
ENDBRANCH  13  14
ENDBRANCH  12  13
ENDBRANCH  10  12
ENDBRANCH   1  10
TORSDOF 13
ENDMDL
MODEL 9
REMARK VINA RESULT:      -4.6     12.380     15.949
REMARK  13 active torsions:
REMARK  status: ('A' for Active; 'I' for Inactive)
REMARK    1  A    between atoms: C_2  and  C_3 
REMARK    2  A    between atoms: C_3  and  C_4 
REMARK    3  A    between atoms: C_4  and  O_5 
REMARK    4  A    between atoms: O_5  and  C_6 
REMARK    5  A    between atoms: C_6  and  C_7 
REMARK    6  A    between atoms: C_7  and  O_8 
REMARK    7  A    between atoms: O_8  and  C_9 
REMARK    8  A    between atoms: C_9  and  C_10 
REMARK    9  A    between atoms: C_10  and  O_12 
REMARK   10  A    between atoms: O_12  and  C_13 
REMARK   11  A    between atoms: C_13  and  C_14 
REMARK   12  A    between atoms: C_14  and  C_15 
REMARK   13  A    between atoms: C_15  and  O_16 
ROOT
HETATM    1  C   UNL     1     -20.716  -3.878  -8.472  1.00  0.00     0.199 C 
ENDROOT
BRANCH   1   2
HETATM    2  O   UNL     1     -21.679  -4.062  -9.505  1.00  0.00    -0.387 OA
BRANCH   2   3
HETATM    3  C   UNL     1     -21.038  -4.162 -10.775  1.00  0.00     0.193 C 
BRANCH   3   4
HETATM    4  C   UNL     1     -21.799  -3.308 -11.772  1.00  0.00     0.193 C 
BRANCH   4   5
HETATM    5  O   UNL     1     -23.124  -3.099 -11.292  1.00  0.00    -0.389 OA
BRANCH   5   6
HETATM    6  C   UNL     1     -24.062  -3.125 -12.361  1.00  0.00     0.167 C 
BRANCH   6   7
HETATM    7  C   UNL     1     -23.329  -2.816 -13.656  1.00  0.00     0.026 C 
BRANCH   7   8
HETATM    8  C   UNL     1     -23.966  -1.634 -14.377  1.00  0.00    -0.002 C 
HETATM    9  C   UNL     1     -23.053  -1.087 -15.459  1.00  0.00     0.005 C 
ENDBRANCH   7   8
ENDBRANCH   6   7
ENDBRANCH   5   6
ENDBRANCH   4   5
ENDBRANCH   3   4
ENDBRANCH   2   3
ENDBRANCH   1   2
BRANCH   1  10
HETATM   10  C   UNL     1     -21.392  -3.843  -7.094  1.00  0.00     0.141 C 
HETATM   11  C   UNL     1     -22.783  -4.475  -7.159  1.00  0.00     0.042 C 
BRANCH  10  12
HETATM   12  O   UNL     1     -20.624  -4.565  -6.117  1.00  0.00    -0.384 OA
BRANCH  12  13
HETATM   13  C   UNL     1     -20.473  -5.945  -6.456  1.00  0.00     0.170 C 
BRANCH  13  14
HETATM   14  C   UNL     1     -20.447  -6.797  -5.195  1.00  0.00     0.052 C 
BRANCH  14  15
HETATM   15  C   UNL     1     -21.867  -7.148  -4.765  1.00  0.00     0.169 C 
BRANCH  15  16
HETATM   16  O   UNL     1     -22.341  -6.143  -3.870  1.00  0.00    -0.396 OA
HETATM   17  C   UNL     1     -21.924  -6.379  -2.534  1.00  0.00     0.201 C 
ENDBRANCH  15  16
ENDBRANCH  14  15
ENDBRANCH  13  14
ENDBRANCH  12  13
ENDBRANCH  10  12
ENDBRANCH   1  10
TORSDOF 13
ENDMDL
