MODEL 1
REMARK VINA RESULT:      -1.1      0.000      0.000
REMARK  8 active torsions:
REMARK  status: ('A' for Active; 'I' for Inactive)
REMARK    1  A    between atoms: C_2  and  C_3 
REMARK    2  A    between atoms: C_3  and  N_4 
REMARK    3  A    between atoms: N_4  and  C_7 
REMARK    4  A    between atoms: C_7  and  C_8 
REMARK    5  A    between atoms: C_8  and  C_9 
REMARK    6  A    between atoms: C_9  and  N_10 
REMARK    7  A    between atoms: N_10  and  C_11 
REMARK    8  A    between atoms: C_14  and  N_17 
ROOT
HETATM    1 BR   UNL     2     -33.216  -3.385 -11.387  1.00  0.00     0.000 Br
ENDROOT
TORSDOF 8
ENDMDL
MODEL 2
REMARK VINA RESULT:      -1.1      8.513      8.513
REMARK  8 active torsions:
REMARK  status: ('A' for Active; 'I' for Inactive)
REMARK    1  A    between atoms: C_2  and  C_3 
REMARK    2  A    between atoms: C_3  and  N_4 
REMARK    3  A    between atoms: N_4  and  C_7 
REMARK    4  A    between atoms: C_7  and  C_8 
REMARK    5  A    between atoms: C_8  and  C_9 
REMARK    6  A    between atoms: C_9  and  N_10 
REMARK    7  A    between atoms: N_10  and  C_11 
REMARK    8  A    between atoms: C_14  and  N_17 
ROOT
HETATM    1 BR   UNL     2     -37.262   0.575  -5.029  1.00  0.00     0.000 Br
ENDROOT
TORSDOF 8
ENDMDL
MODEL 3
REMARK VINA RESULT:      -1.0      4.579      4.579
REMARK  8 active torsions:
REMARK  status: ('A' for Active; 'I' for Inactive)
REMARK    1  A    between atoms: C_2  and  C_3 
REMARK    2  A    between atoms: C_3  and  N_4 
REMARK    3  A    between atoms: N_4  and  C_7 
REMARK    4  A    between atoms: C_7  and  C_8 
REMARK    5  A    between atoms: C_8  and  C_9 
REMARK    6  A    between atoms: C_9  and  N_10 
REMARK    7  A    between atoms: N_10  and  C_11 
REMARK    8  A    between atoms: C_14  and  N_17 
ROOT
HETATM    1 BR   UNL     2     -34.749  -7.477 -10.021  1.00  0.00     0.000 Br
ENDROOT
TORSDOF 8
ENDMDL
MODEL 4
REMARK VINA RESULT:      -1.0     12.063     12.063
REMARK  8 active torsions:
REMARK  status: ('A' for Active; 'I' for Inactive)
REMARK    1  A    between atoms: C_2  and  C_3 
REMARK    2  A    between atoms: C_3  and  N_4 
REMARK    3  A    between atoms: N_4  and  C_7 
REMARK    4  A    between atoms: C_7  and  C_8 
REMARK    5  A    between atoms: C_8  and  C_9 
REMARK    6  A    between atoms: C_9  and  N_10 
REMARK    7  A    between atoms: N_10  and  C_11 
REMARK    8  A    between atoms: C_14  and  N_17 
ROOT
HETATM    1 BR   UNL     2     -25.961   6.173 -10.148  1.00  0.00     0.000 Br
ENDROOT
TORSDOF 8
ENDMDL
MODEL 5
REMARK VINA RESULT:      -1.0     12.562     12.562
REMARK  8 active torsions:
REMARK  status: ('A' for Active; 'I' for Inactive)
REMARK    1  A    between atoms: C_2  and  C_3 
REMARK    2  A    between atoms: C_3  and  N_4 
REMARK    3  A    between atoms: N_4  and  C_7 
REMARK    4  A    between atoms: C_7  and  C_8 
REMARK    5  A    between atoms: C_8  and  C_9 
REMARK    6  A    between atoms: C_9  and  N_10 
REMARK    7  A    between atoms: N_10  and  C_11 
REMARK    8  A    between atoms: C_14  and  N_17 
ROOT
HETATM    1 BR   UNL     2     -26.340   7.119 -10.945  1.00  0.00     0.000 Br
ENDROOT
TORSDOF 8
ENDMDL
MODEL 6
REMARK VINA RESULT:      -0.9     14.885     14.885
REMARK  8 active torsions:
REMARK  status: ('A' for Active; 'I' for Inactive)
REMARK    1  A    between atoms: C_2  and  C_3 
REMARK    2  A    between atoms: C_3  and  N_4 
REMARK    3  A    between atoms: N_4  and  C_7 
REMARK    4  A    between atoms: C_7  and  C_8 
REMARK    5  A    between atoms: C_8  and  C_9 
REMARK    6  A    between atoms: C_9  and  N_10 
REMARK    7  A    between atoms: N_10  and  C_11 
REMARK    8  A    between atoms: C_14  and  N_17 
ROOT
HETATM    1 BR   UNL     2     -22.080  -6.300  -1.951  1.00  0.00     0.000 Br
ENDROOT
TORSDOF 8
ENDMDL
MODEL 7
REMARK VINA RESULT:      -0.9      2.286      2.286
REMARK  8 active torsions:
REMARK  status: ('A' for Active; 'I' for Inactive)
REMARK    1  A    between atoms: C_2  and  C_3 
REMARK    2  A    between atoms: C_3  and  N_4 
REMARK    3  A    between atoms: N_4  and  C_7 
REMARK    4  A    between atoms: C_7  and  C_8 
REMARK    5  A    between atoms: C_8  and  C_9 
REMARK    6  A    between atoms: C_9  and  N_10 
REMARK    7  A    between atoms: N_10  and  C_11 
REMARK    8  A    between atoms: C_14  and  N_17 
ROOT
HETATM    1 BR   UNL     2     -33.953  -5.491 -10.892  1.00  0.00     0.000 Br
ENDROOT
TORSDOF 8
ENDMDL
MODEL 8
REMARK VINA RESULT:      -0.9     16.404     16.404
REMARK  8 active torsions:
REMARK  status: ('A' for Active; 'I' for Inactive)
REMARK    1  A    between atoms: C_2  and  C_3 
REMARK    2  A    between atoms: C_3  and  N_4 
REMARK    3  A    between atoms: N_4  and  C_7 
REMARK    4  A    between atoms: C_7  and  C_8 
REMARK    5  A    between atoms: C_8  and  C_9 
REMARK    6  A    between atoms: C_9  and  N_10 
REMARK    7  A    between atoms: N_10  and  C_11 
REMARK    8  A    between atoms: C_14  and  N_17 
ROOT
HETATM    1 BR   UNL     2     -22.831  -8.101   0.402  1.00  0.00     0.000 Br
ENDROOT
TORSDOF 8
ENDMDL
MODEL 9
REMARK VINA RESULT:      -0.9     16.813     16.813
REMARK  8 active torsions:
REMARK  status: ('A' for Active; 'I' for Inactive)
REMARK    1  A    between atoms: C_2  and  C_3 
REMARK    2  A    between atoms: C_3  and  N_4 
REMARK    3  A    between atoms: N_4  and  C_7 
REMARK    4  A    between atoms: C_7  and  C_8 
REMARK    5  A    between atoms: C_8  and  C_9 
REMARK    6  A    between atoms: C_9  and  N_10 
REMARK    7  A    between atoms: N_10  and  C_11 
REMARK    8  A    between atoms: C_14  and  N_17 
ROOT
HETATM    1 BR   UNL     2     -23.725   6.360  -1.506  1.00  0.00     0.000 Br
ENDROOT
TORSDOF 8
ENDMDL
