MODEL 1
REMARK VINA RESULT:      -7.5      0.000      0.000
REMARK  31 active torsions:
REMARK  status: ('A' for Active; 'I' for Inactive)
REMARK    1  A    between atoms: C_3  and  C_14 
REMARK    2  A    between atoms: C_6  and  O_12 
REMARK    3  A    between atoms: C_7  and  O_10 
REMARK    4  A    between atoms: C_14  and  C_15 
REMARK    5  A    between atoms: C_16  and  C_18 
REMARK    6  A    between atoms: C_18  and  C_19 
REMARK    7  A    between atoms: C_19  and  C_20 
REMARK    8  A    between atoms: C_21  and  C_23 
REMARK    9  A    between atoms: C_23  and  C_24 
REMARK   10  A    between atoms: C_24  and  C_25 
REMARK   11  A    between atoms: C_26  and  C_28 
REMARK   12  A    between atoms: C_28  and  C_29 
REMARK   13  A    between atoms: C_29  and  C_30 
REMARK   14  A    between atoms: C_31  and  C_33 
REMARK   15  A    between atoms: C_33  and  C_34 
REMARK   16  A    between atoms: C_34  and  C_35 
REMARK   17  A    between atoms: C_36  and  C_38 
REMARK   18  A    between atoms: C_38  and  C_39 
REMARK   19  A    between atoms: C_39  and  C_40 
REMARK   20  A    between atoms: C_41  and  C_43 
REMARK   21  A    between atoms: C_43  and  C_44 
REMARK   22  A    between atoms: C_44  and  C_45 
REMARK   23  A    between atoms: C_46  and  C_48 
REMARK   24  A    between atoms: C_48  and  C_49 
REMARK   25  A    between atoms: C_49  and  C_50 
REMARK   26  A    between atoms: C_51  and  C_53 
REMARK   27  A    between atoms: C_53  and  C_54 
REMARK   28  A    between atoms: C_54  and  C_55 
REMARK   29  A    between atoms: C_56  and  C_58 
REMARK   30  A    between atoms: C_58  and  C_59 
REMARK   31  A    between atoms: C_59  and  C_60 
ROOT
HETATM    1  C   UNL     1     -19.906 -15.254  -2.521  1.00  0.00    -0.024 C 
HETATM    2  C   UNL     1     -18.999 -15.022  -3.473  1.00  0.00    -0.087 C 
HETATM    3  C   UNL     1     -18.706 -13.621  -3.897  1.00  0.00     0.043 C 
ENDROOT
BRANCH   2   4
HETATM    4  C   UNL     1     -18.261 -16.166  -4.130  1.00  0.00     0.037 C 
BRANCH   4   5
HETATM    5  C   UNL     1     -16.765 -15.986  -4.032  1.00  0.00     0.031 C 
BRANCH   5   6
HETATM    6  C   UNL     1     -16.269 -16.055  -2.634  1.00  0.00    -0.024 C 
HETATM    7  C   UNL     1     -15.516 -15.086  -2.089  1.00  0.00    -0.087 C 
HETATM    8  C   UNL     1     -15.144 -13.880  -2.912  1.00  0.00     0.043 C 
BRANCH   7   9
HETATM    9  C   UNL     1     -15.020 -15.166  -0.668  1.00  0.00     0.037 C 
BRANCH   9  10
HETATM   10  C   UNL     1     -16.156 -15.214   0.334  1.00  0.00     0.031 C 
BRANCH  10  11
HETATM   11  C   UNL     1     -17.192 -14.190   0.097  1.00  0.00    -0.024 C 
HETATM   12  C   UNL     1     -17.120 -12.964   0.623  1.00  0.00    -0.087 C 
HETATM   13  C   UNL     1     -15.967 -12.577   1.488  1.00  0.00     0.043 C 
BRANCH  12  14
HETATM   14  C   UNL     1     -18.194 -11.941   0.360  1.00  0.00     0.037 C 
BRANCH  14  15
HETATM   15  C   UNL     1     -18.273 -11.623  -1.136  1.00  0.00     0.031 C 
BRANCH  15  16
HETATM   16  C   UNL     1     -17.045 -11.051  -1.713  1.00  0.00    -0.024 C 
HETATM   17  C   UNL     1     -17.048 -10.095  -2.648  1.00  0.00    -0.087 C 
HETATM   18  C   UNL     1     -18.345  -9.549  -3.162  1.00  0.00     0.043 C 
BRANCH  17  19
HETATM   19  C   UNL     1     -15.753  -9.539  -3.209  1.00  0.00     0.037 C 
BRANCH  19  20
HETATM   20  C   UNL     1     -15.713  -9.641  -4.719  1.00  0.00     0.031 C 
BRANCH  20  21
HETATM   21  C   UNL     1     -15.434 -11.005  -5.198  1.00  0.00    -0.024 C 
HETATM   22  C   UNL     1     -16.292 -11.676  -5.987  1.00  0.00    -0.087 C 
HETATM   23  C   UNL     1     -17.601 -11.070  -6.435  1.00  0.00     0.043 C 
BRANCH  22  24
HETATM   24  C   UNL     1     -16.001 -13.073  -6.474  1.00  0.00     0.037 C 
BRANCH  24  25
HETATM   25  C   UNL     1     -16.977 -13.516  -7.546  1.00  0.00     0.031 C 
BRANCH  25  26
HETATM   26  C   UNL     1     -18.120 -14.278  -7.014  1.00  0.00    -0.024 C 
HETATM   27  C   UNL     1     -19.364 -14.162  -7.515  1.00  0.00    -0.087 C 
HETATM   28  C   UNL     1     -19.675 -13.227  -8.673  1.00  0.00     0.043 C 
BRANCH  27  29
HETATM   29  C   UNL     1     -20.508 -14.957  -6.947  1.00  0.00     0.037 C 
BRANCH  29  30
HETATM   30  C   UNL     1     -21.784 -14.135  -6.915  1.00  0.00     0.031 C 
BRANCH  30  31
HETATM   31  C   UNL     1     -22.135 -13.579  -5.599  1.00  0.00    -0.024 C 
HETATM   32  C   UNL     1     -21.928 -12.293  -5.253  1.00  0.00    -0.091 C 
HETATM   33  C   UNL     1     -21.308 -11.298  -6.200  1.00  0.00     0.042 C 
HETATM   34  C   UNL     1     -22.303 -11.774  -3.900  1.00  0.00     0.042 C 
ENDBRANCH  30  31
ENDBRANCH  29  30
ENDBRANCH  27  29
ENDBRANCH  25  26
ENDBRANCH  24  25
ENDBRANCH  22  24
ENDBRANCH  20  21
ENDBRANCH  19  20
ENDBRANCH  17  19
ENDBRANCH  15  16
ENDBRANCH  14  15
ENDBRANCH  12  14
ENDBRANCH  10  11
ENDBRANCH   9  10
ENDBRANCH   7   9
ENDBRANCH   5   6
ENDBRANCH   4   5
ENDBRANCH   2   4
BRANCH   1  35
HETATM   35  C   UNL     1     -20.659 -14.155  -1.844  1.00  0.00     0.031 C 
BRANCH  35  36
HETATM   36  C   UNL     1     -21.032 -14.477  -0.396  1.00  0.00     0.037 C 
BRANCH  36  37
HETATM   37  C   UNL     1     -21.689 -13.296   0.288  1.00  0.00    -0.087 C 
HETATM   38  C   UNL     1     -21.768 -12.106  -0.320  1.00  0.00    -0.024 C 
HETATM   39  C   UNL     1     -22.258 -13.508   1.660  1.00  0.00     0.043 C 
BRANCH  38  40
HETATM   40  C   UNL     1     -22.419 -10.943   0.338  1.00  0.00     0.031 C 
BRANCH  40  41
HETATM   41  C   UNL     1     -21.464  -9.769   0.509  1.00  0.00     0.037 C 
BRANCH  41  42
HETATM   42  C   UNL     1     -21.806  -8.662  -0.452  1.00  0.00    -0.087 C 
HETATM   43  C   UNL     1     -21.401  -8.687  -1.719  1.00  0.00    -0.024 C 
HETATM   44  C   UNL     1     -22.660  -7.519   0.029  1.00  0.00     0.043 C 
BRANCH  43  45
HETATM   45  C   UNL     1     -21.740  -7.603  -2.696  1.00  0.00     0.031 C 
BRANCH  45  46
HETATM   46  C   UNL     1     -21.597  -8.054  -4.129  1.00  0.00     0.037 C 
BRANCH  46  47
HETATM   47  C   UNL     1     -20.859  -7.005  -4.939  1.00  0.00    -0.087 C 
HETATM   48  C   UNL     1     -21.287  -5.747  -4.946  1.00  0.00    -0.020 C 
HETATM   49  C   UNL     1     -19.671  -7.364  -5.725  1.00  0.00     0.043 C 
BRANCH  48  50
HETATM   50  C   UNL     1     -20.652  -4.638  -5.708  1.00  0.00     0.071 C 
BRANCH  50  51
HETATM   51  C   UNL     1     -21.029  -4.589  -7.148  1.00  0.00     0.008 A 
HETATM   52  C   UNL     1     -20.096  -4.546  -8.100  1.00  0.00     0.002 A 
HETATM   53  C   UNL     1     -18.626  -4.546  -7.797  1.00  0.00     0.053 C 
HETATM   54  C   UNL     1     -20.509  -4.516  -9.512  1.00  0.00     0.214 A 
HETATM   55  C   UNL     1     -21.959  -4.448  -9.858  1.00  0.00     0.156 A 
HETATM   56  O   UNL     1     -19.660  -4.541 -10.409  1.00  0.00    -0.285 OA
HETATM   57  C   UNL     1     -22.898  -4.470  -8.900  1.00  0.00     0.156 A 
HETATM   58  C   UNL     1     -22.450  -4.593  -7.508  1.00  0.00     0.215 A 
HETATM   59  O   UNL     1     -23.370  -4.685  -6.667  1.00  0.00    -0.285 OA
BRANCH  55  60
HETATM   60  O   UNL     1     -22.302  -4.378 -11.198  1.00  0.00    -0.350 OA
HETATM   61  C   UNL     1     -22.089  -3.145 -11.898  1.00  0.00     0.210 C 
ENDBRANCH  55  60
BRANCH  57  62
HETATM   62  O   UNL     1     -24.249  -4.367  -9.269  1.00  0.00    -0.350 OA
HETATM   63  C   UNL     1     -24.819  -3.104  -9.570  1.00  0.00     0.210 C 
ENDBRANCH  57  62
ENDBRANCH  50  51
ENDBRANCH  48  50
ENDBRANCH  46  47
ENDBRANCH  45  46
ENDBRANCH  43  45
ENDBRANCH  41  42
ENDBRANCH  40  41
ENDBRANCH  38  40
ENDBRANCH  36  37
ENDBRANCH  35  36
ENDBRANCH   1  35
TORSDOF 31
ENDMDL
MODEL 2
REMARK VINA RESULT:      -6.3      4.570      9.112
REMARK  31 active torsions:
REMARK  status: ('A' for Active; 'I' for Inactive)
REMARK    1  A    between atoms: C_3  and  C_14 
REMARK    2  A    between atoms: C_6  and  O_12 
REMARK    3  A    between atoms: C_7  and  O_10 
REMARK    4  A    between atoms: C_14  and  C_15 
REMARK    5  A    between atoms: C_16  and  C_18 
REMARK    6  A    between atoms: C_18  and  C_19 
REMARK    7  A    between atoms: C_19  and  C_20 
REMARK    8  A    between atoms: C_21  and  C_23 
REMARK    9  A    between atoms: C_23  and  C_24 
REMARK   10  A    between atoms: C_24  and  C_25 
REMARK   11  A    between atoms: C_26  and  C_28 
REMARK   12  A    between atoms: C_28  and  C_29 
REMARK   13  A    between atoms: C_29  and  C_30 
REMARK   14  A    between atoms: C_31  and  C_33 
REMARK   15  A    between atoms: C_33  and  C_34 
REMARK   16  A    between atoms: C_34  and  C_35 
REMARK   17  A    between atoms: C_36  and  C_38 
REMARK   18  A    between atoms: C_38  and  C_39 
REMARK   19  A    between atoms: C_39  and  C_40 
REMARK   20  A    between atoms: C_41  and  C_43 
REMARK   21  A    between atoms: C_43  and  C_44 
REMARK   22  A    between atoms: C_44  and  C_45 
REMARK   23  A    between atoms: C_46  and  C_48 
REMARK   24  A    between atoms: C_48  and  C_49 
REMARK   25  A    between atoms: C_49  and  C_50 
REMARK   26  A    between atoms: C_51  and  C_53 
REMARK   27  A    between atoms: C_53  and  C_54 
REMARK   28  A    between atoms: C_54  and  C_55 
REMARK   29  A    between atoms: C_56  and  C_58 
REMARK   30  A    between atoms: C_58  and  C_59 
REMARK   31  A    between atoms: C_59  and  C_60 
ROOT
HETATM    1  C   UNL     1     -21.618  -7.654  -0.995  1.00  0.00    -0.024 C 
HETATM    2  C   UNL     1     -22.084  -8.288   0.084  1.00  0.00    -0.087 C 
HETATM    3  C   UNL     1     -23.354  -7.833   0.724  1.00  0.00     0.043 C 
ENDROOT
BRANCH   2   4
HETATM    4  C   UNL     1     -21.339  -9.465   0.668  1.00  0.00     0.037 C 
BRANCH   4   5
HETATM    5  C   UNL     1     -22.060 -10.764   0.395  1.00  0.00     0.031 C 
BRANCH   5   6
HETATM    6  C   UNL     1     -21.211 -11.957   0.645  1.00  0.00    -0.024 C 
HETATM    7  C   UNL     1     -21.718 -13.197   0.719  1.00  0.00    -0.087 C 
HETATM    8  C   UNL     1     -23.201 -13.408   0.553  1.00  0.00     0.043 C 
BRANCH   7   9
HETATM    9  C   UNL     1     -20.846 -14.401   0.971  1.00  0.00     0.037 C 
BRANCH   9  10
HETATM   10  C   UNL     1     -20.924 -15.412  -0.156  1.00  0.00     0.031 C 
BRANCH  10  11
HETATM   11  C   UNL     1     -20.315 -14.937  -1.414  1.00  0.00    -0.024 C 
HETATM   12  C   UNL     1     -19.374 -15.632  -2.059  1.00  0.00    -0.087 C 
HETATM   13  C   UNL     1     -18.894 -16.939  -1.521  1.00  0.00     0.043 C 
BRANCH  12  14
HETATM   14  C   UNL     1     -18.772 -15.120  -3.342  1.00  0.00     0.037 C 
BRANCH  14  15
HETATM   15  C   UNL     1     -19.302 -13.719  -3.658  1.00  0.00     0.031 C 
BRANCH  15  16
HETATM   16  C   UNL     1     -19.720 -13.516  -5.055  1.00  0.00    -0.024 C 
HETATM   17  C   UNL     1     -18.927 -12.976  -5.988  1.00  0.00    -0.087 C 
HETATM   18  C   UNL     1     -17.538 -12.543  -5.636  1.00  0.00     0.043 C 
BRANCH  17  19
HETATM   19  C   UNL     1     -19.406 -12.790  -7.415  1.00  0.00     0.037 C 
BRANCH  19  20
HETATM   20  C   UNL     1     -18.328 -13.156  -8.415  1.00  0.00     0.031 C 
BRANCH  20  21
HETATM   21  C   UNL     1     -18.615 -14.403  -9.142  1.00  0.00    -0.024 C 
HETATM   22  C   UNL     1     -18.098 -15.587  -8.766  1.00  0.00    -0.087 C 
HETATM   23  C   UNL     1     -17.186 -15.711  -7.569  1.00  0.00     0.043 C 
BRANCH  22  24
HETATM   24  C   UNL     1     -18.395 -16.861  -9.515  1.00  0.00     0.037 C 
BRANCH  24  25
HETATM   25  C   UNL     1     -17.449 -17.069 -10.681  1.00  0.00     0.031 C 
BRANCH  25  26
HETATM   26  C   UNL     1     -18.114 -16.978 -11.993  1.00  0.00    -0.024 C 
HETATM   27  C   UNL     1     -17.549 -16.367 -13.051  1.00  0.00    -0.087 C 
HETATM   28  C   UNL     1     -16.174 -15.724 -12.961  1.00  0.00     0.043 C 
BRANCH  27  29
HETATM   29  C   UNL     1     -18.257 -16.294 -14.376  1.00  0.00     0.037 C 
BRANCH  29  30
HETATM   30  C   UNL     1     -17.289 -15.961 -15.497  1.00  0.00     0.031 C 
BRANCH  30  31
HETATM   31  C   UNL     1     -17.561 -14.697 -16.200  1.00  0.00    -0.024 C 
HETATM   32  C   UNL     1     -16.658 -14.064 -16.975  1.00  0.00    -0.091 C 
HETATM   33  C   UNL     1     -15.268 -14.606 -17.191  1.00  0.00     0.042 C 
HETATM   34  C   UNL     1     -16.982 -12.779 -17.669  1.00  0.00     0.042 C 
ENDBRANCH  30  31
ENDBRANCH  29  30
ENDBRANCH  27  29
ENDBRANCH  25  26
ENDBRANCH  24  25
ENDBRANCH  22  24
ENDBRANCH  20  21
ENDBRANCH  19  20
ENDBRANCH  17  19
ENDBRANCH  15  16
ENDBRANCH  14  15
ENDBRANCH  12  14
ENDBRANCH  10  11
ENDBRANCH   9  10
ENDBRANCH   7   9
ENDBRANCH   5   6
ENDBRANCH   4   5
ENDBRANCH   2   4
BRANCH   1  35
HETATM   35  C   UNL     1     -22.321  -6.486  -1.607  1.00  0.00     0.031 C 
BRANCH  35  36
HETATM   36  C   UNL     1     -21.428  -5.656  -2.531  1.00  0.00     0.037 C 
BRANCH  36  37
HETATM   37  C   UNL     1     -21.257  -6.316  -3.883  1.00  0.00    -0.087 C 
HETATM   38  C   UNL     1     -21.734  -7.545  -4.114  1.00  0.00    -0.024 C 
HETATM   39  C   UNL     1     -20.550  -5.541  -4.956  1.00  0.00     0.043 C 
BRANCH  38  40
HETATM   40  C   UNL     1     -21.580  -8.198  -5.441  1.00  0.00     0.031 C 
BRANCH  40  41
HETATM   41  C   UNL     1     -21.117  -9.644  -5.321  1.00  0.00     0.037 C 
BRANCH  41  42
HETATM   42  C   UNL     1     -19.859  -9.731  -4.499  1.00  0.00    -0.087 C 
HETATM   43  C   UNL     1     -19.864 -10.220  -3.263  1.00  0.00    -0.024 C 
HETATM   44  C   UNL     1     -18.557  -9.284  -5.112  1.00  0.00     0.043 C 
BRANCH  43  45
HETATM   45  C   UNL     1     -18.622 -10.327  -2.431  1.00  0.00     0.031 C 
BRANCH  45  46
HETATM   46  C   UNL     1     -18.815 -11.204  -1.219  1.00  0.00     0.037 C 
BRANCH  46  47
HETATM   47  C   UNL     1     -17.567 -12.027  -0.962  1.00  0.00    -0.087 C 
HETATM   48  C   UNL     1     -16.518 -11.917  -1.772  1.00  0.00    -0.020 C 
HETATM   49  C   UNL     1     -17.502 -12.955   0.176  1.00  0.00     0.043 C 
BRANCH  48  50
HETATM   50  C   UNL     1     -15.249 -12.678  -1.625  1.00  0.00     0.071 C 
BRANCH  50  51
HETATM   51  C   UNL     1     -14.895 -13.513  -2.806  1.00  0.00     0.008 A 
HETATM   52  C   UNL     1     -15.021 -14.840  -2.771  1.00  0.00     0.002 A 
HETATM   53  C   UNL     1     -15.522 -15.576  -1.562  1.00  0.00     0.053 C 
HETATM   54  C   UNL     1     -14.677 -15.629  -3.964  1.00  0.00     0.214 A 
HETATM   55  C   UNL     1     -14.113 -14.946  -5.165  1.00  0.00     0.156 A 
HETATM   56  O   UNL     1     -14.849 -16.852  -3.972  1.00  0.00    -0.285 OA
HETATM   57  C   UNL     1     -13.965 -13.613  -5.195  1.00  0.00     0.156 A 
HETATM   58  C   UNL     1     -14.405 -12.852  -4.019  1.00  0.00     0.215 A 
HETATM   59  O   UNL     1     -14.313 -11.611  -4.134  1.00  0.00    -0.285 OA
BRANCH  55  60
HETATM   60  O   UNL     1     -13.763 -15.732  -6.251  1.00  0.00    -0.350 OA
HETATM   61  C   UNL     1     -12.371 -15.933  -6.533  1.00  0.00     0.210 C 
ENDBRANCH  55  60
BRANCH  57  62
HETATM   62  O   UNL     1     -13.396 -13.016  -6.331  1.00  0.00    -0.350 OA
HETATM   63  C   UNL     1     -14.216 -12.376  -7.294  1.00  0.00     0.210 C 
ENDBRANCH  57  62
ENDBRANCH  50  51
ENDBRANCH  48  50
ENDBRANCH  46  47
ENDBRANCH  45  46
ENDBRANCH  43  45
ENDBRANCH  41  42
ENDBRANCH  40  41
ENDBRANCH  38  40
ENDBRANCH  36  37
ENDBRANCH  35  36
ENDBRANCH   1  35
TORSDOF 31
ENDMDL
MODEL 3
REMARK VINA RESULT:      -6.2      1.721      3.637
REMARK  31 active torsions:
REMARK  status: ('A' for Active; 'I' for Inactive)
REMARK    1  A    between atoms: C_3  and  C_14 
REMARK    2  A    between atoms: C_6  and  O_12 
REMARK    3  A    between atoms: C_7  and  O_10 
REMARK    4  A    between atoms: C_14  and  C_15 
REMARK    5  A    between atoms: C_16  and  C_18 
REMARK    6  A    between atoms: C_18  and  C_19 
REMARK    7  A    between atoms: C_19  and  C_20 
REMARK    8  A    between atoms: C_21  and  C_23 
REMARK    9  A    between atoms: C_23  and  C_24 
REMARK   10  A    between atoms: C_24  and  C_25 
REMARK   11  A    between atoms: C_26  and  C_28 
REMARK   12  A    between atoms: C_28  and  C_29 
REMARK   13  A    between atoms: C_29  and  C_30 
REMARK   14  A    between atoms: C_31  and  C_33 
REMARK   15  A    between atoms: C_33  and  C_34 
REMARK   16  A    between atoms: C_34  and  C_35 
REMARK   17  A    between atoms: C_36  and  C_38 
REMARK   18  A    between atoms: C_38  and  C_39 
REMARK   19  A    between atoms: C_39  and  C_40 
REMARK   20  A    between atoms: C_41  and  C_43 
REMARK   21  A    between atoms: C_43  and  C_44 
REMARK   22  A    between atoms: C_44  and  C_45 
REMARK   23  A    between atoms: C_46  and  C_48 
REMARK   24  A    between atoms: C_48  and  C_49 
REMARK   25  A    between atoms: C_49  and  C_50 
REMARK   26  A    between atoms: C_51  and  C_53 
REMARK   27  A    between atoms: C_53  and  C_54 
REMARK   28  A    between atoms: C_54  and  C_55 
REMARK   29  A    between atoms: C_56  and  C_58 
REMARK   30  A    between atoms: C_58  and  C_59 
REMARK   31  A    between atoms: C_59  and  C_60 
ROOT
HETATM    1  C   UNL     1     -21.439 -14.869  -3.795  1.00  0.00    -0.024 C 
HETATM    2  C   UNL     1     -20.464 -13.956  -3.790  1.00  0.00    -0.087 C 
HETATM    3  C   UNL     1     -20.786 -12.524  -3.519  1.00  0.00     0.043 C 
ENDROOT
BRANCH   2   4
HETATM    4  C   UNL     1     -19.032 -14.357  -4.058  1.00  0.00     0.037 C 
BRANCH   4   5
HETATM    5  C   UNL     1     -18.148 -14.074  -2.867  1.00  0.00     0.031 C 
BRANCH   5   6
HETATM    6  C   UNL     1     -18.624 -14.742  -1.628  1.00  0.00    -0.024 C 
HETATM    7  C   UNL     1     -17.944 -15.741  -1.044  1.00  0.00    -0.087 C 
HETATM    8  C   UNL     1     -16.653 -16.223  -1.656  1.00  0.00     0.043 C 
BRANCH   7   9
HETATM    9  C   UNL     1     -18.433 -16.409   0.215  1.00  0.00     0.037 C 
BRANCH   9  10
HETATM   10  C   UNL     1     -18.634 -15.423   1.348  1.00  0.00     0.031 C 
BRANCH  10  11
HETATM   11  C   UNL     1     -17.442 -14.598   1.626  1.00  0.00    -0.024 C 
HETATM   12  C   UNL     1     -16.475 -14.996   2.457  1.00  0.00    -0.087 C 
HETATM   13  C   UNL     1     -16.565 -16.315   3.148  1.00  0.00     0.043 C 
BRANCH  12  14
HETATM   14  C   UNL     1     -15.270 -14.130   2.718  1.00  0.00     0.037 C 
BRANCH  14  15
HETATM   15  C   UNL     1     -14.887 -13.353   1.455  1.00  0.00     0.031 C 
BRANCH  15  16
HETATM   16  C   UNL     1     -14.373 -14.181   0.352  1.00  0.00    -0.024 C 
HETATM   17  C   UNL     1     -13.069 -14.382   0.128  1.00  0.00    -0.087 C 
HETATM   18  C   UNL     1     -12.047 -13.750   1.022  1.00  0.00     0.043 C 
BRANCH  17  19
HETATM   19  C   UNL     1     -12.592 -15.246  -1.023  1.00  0.00     0.037 C 
BRANCH  19  20
HETATM   20  C   UNL     1     -12.579 -14.477  -2.328  1.00  0.00     0.031 C 
BRANCH  20  21
HETATM   21  C   UNL     1     -13.761 -14.739  -3.165  1.00  0.00    -0.024 C 
HETATM   22  C   UNL     1     -13.775 -15.702  -4.104  1.00  0.00    -0.087 C 
HETATM   23  C   UNL     1     -12.572 -16.578  -4.361  1.00  0.00     0.043 C 
BRANCH  22  24
HETATM   24  C   UNL     1     -14.988 -15.967  -4.958  1.00  0.00     0.037 C 
BRANCH  24  25
HETATM   25  C   UNL     1     -14.897 -15.278  -6.305  1.00  0.00     0.031 C 
BRANCH  25  26
HETATM   26  C   UNL     1     -15.620 -13.996  -6.354  1.00  0.00    -0.024 C 
HETATM   27  C   UNL     1     -14.987 -12.807  -6.367  1.00  0.00    -0.087 C 
HETATM   28  C   UNL     1     -13.470 -12.710  -6.330  1.00  0.00     0.043 C 
BRANCH  27  29
HETATM   29  C   UNL     1     -15.758 -11.517  -6.419  1.00  0.00     0.037 C 
BRANCH  29  30
HETATM   30  C   UNL     1     -17.121 -11.666  -5.766  1.00  0.00     0.031 C 
BRANCH  30  31
HETATM   31  C   UNL     1     -17.479 -10.597  -4.820  1.00  0.00    -0.024 C 
HETATM   32  C   UNL     1     -16.908 -10.449  -3.609  1.00  0.00    -0.091 C 
HETATM   33  C   UNL     1     -15.835 -11.382  -3.110  1.00  0.00     0.042 C 
HETATM   34  C   UNL     1     -17.308  -9.345  -2.682  1.00  0.00     0.042 C 
ENDBRANCH  30  31
ENDBRANCH  29  30
ENDBRANCH  27  29
ENDBRANCH  25  26
ENDBRANCH  24  25
ENDBRANCH  22  24
ENDBRANCH  20  21
ENDBRANCH  19  20
ENDBRANCH  17  19
ENDBRANCH  15  16
ENDBRANCH  14  15
ENDBRANCH  12  14
ENDBRANCH  10  11
ENDBRANCH   9  10
ENDBRANCH   7   9
ENDBRANCH   5   6
ENDBRANCH   4   5
ENDBRANCH   2   4
BRANCH   1  35
HETATM   35  C   UNL     1     -22.869 -14.518  -3.535  1.00  0.00     0.031 C 
BRANCH  35  36
HETATM   36  C   UNL     1     -23.381 -15.020  -2.185  1.00  0.00     0.037 C 
BRANCH  36  37
HETATM   37  C   UNL     1     -23.101 -14.027  -1.077  1.00  0.00    -0.087 C 
HETATM   38  C   UNL     1     -23.838 -12.917  -0.944  1.00  0.00    -0.024 C 
HETATM   39  C   UNL     1     -21.981 -14.335  -0.126  1.00  0.00     0.043 C 
BRANCH  38  40
HETATM   40  C   UNL     1     -23.577 -11.940   0.145  1.00  0.00     0.031 C 
BRANCH  40  41
HETATM   41  C   UNL     1     -23.799 -10.502  -0.305  1.00  0.00     0.037 C 
BRANCH  41  42
HETATM   42  C   UNL     1     -22.492  -9.856  -0.679  1.00  0.00    -0.087 C 
HETATM   43  C   UNL     1     -22.216  -9.512  -1.933  1.00  0.00    -0.024 C 
HETATM   44  C   UNL     1     -21.490  -9.562   0.406  1.00  0.00     0.043 C 
BRANCH  43  45
HETATM   45  C   UNL     1     -20.927  -8.857  -2.326  1.00  0.00     0.031 C 
BRANCH  45  46
HETATM   46  C   UNL     1     -20.882  -8.510  -3.794  1.00  0.00     0.037 C 
BRANCH  46  47
HETATM   47  C   UNL     1     -21.009  -7.010  -3.984  1.00  0.00    -0.087 C 
HETATM   48  C   UNL     1     -20.686  -6.457  -5.148  1.00  0.00    -0.020 C 
HETATM   49  C   UNL     1     -21.486  -6.155  -2.888  1.00  0.00     0.043 C 
BRANCH  48  50
HETATM   50  C   UNL     1     -20.761  -5.001  -5.446  1.00  0.00     0.071 C 
BRANCH  50  51
HETATM   51  C   UNL     1     -21.130  -4.682  -6.853  1.00  0.00     0.008 A 
HETATM   52  C   UNL     1     -20.194  -4.408  -7.762  1.00  0.00     0.002 A 
HETATM   53  C   UNL     1     -18.728  -4.404  -7.443  1.00  0.00     0.053 C 
HETATM   54  C   UNL     1     -20.599  -4.113  -9.146  1.00  0.00     0.214 A 
HETATM   55  C   UNL     1     -22.048  -4.041  -9.494  1.00  0.00     0.156 A 
HETATM   56  O   UNL     1     -19.743  -3.921 -10.016  1.00  0.00    -0.285 OA
HETATM   57  C   UNL     1     -22.992  -4.296  -8.575  1.00  0.00     0.156 A 
HETATM   58  C   UNL     1     -22.547  -4.675  -7.228  1.00  0.00     0.215 A 
HETATM   59  O   UNL     1     -23.467  -4.974  -6.437  1.00  0.00    -0.285 OA
BRANCH  55  60
HETATM   60  O   UNL     1     -22.385  -3.719 -10.799  1.00  0.00    -0.350 OA
HETATM   61  C   UNL     1     -22.477  -4.776 -11.764  1.00  0.00     0.210 C 
ENDBRANCH  55  60
BRANCH  57  62
HETATM   62  O   UNL     1     -24.343  -4.180  -8.937  1.00  0.00    -0.350 OA
HETATM   63  C   UNL     1     -24.875  -2.930  -9.343  1.00  0.00     0.210 C 
ENDBRANCH  57  62
ENDBRANCH  50  51
ENDBRANCH  48  50
ENDBRANCH  46  47
ENDBRANCH  45  46
ENDBRANCH  43  45
ENDBRANCH  41  42
ENDBRANCH  40  41
ENDBRANCH  38  40
ENDBRANCH  36  37
ENDBRANCH  35  36
ENDBRANCH   1  35
TORSDOF 31
ENDMDL
MODEL 4
REMARK VINA RESULT:      -5.9      2.255      5.901
REMARK  31 active torsions:
REMARK  status: ('A' for Active; 'I' for Inactive)
REMARK    1  A    between atoms: C_3  and  C_14 
REMARK    2  A    between atoms: C_6  and  O_12 
REMARK    3  A    between atoms: C_7  and  O_10 
REMARK    4  A    between atoms: C_14  and  C_15 
REMARK    5  A    between atoms: C_16  and  C_18 
REMARK    6  A    between atoms: C_18  and  C_19 
REMARK    7  A    between atoms: C_19  and  C_20 
REMARK    8  A    between atoms: C_21  and  C_23 
REMARK    9  A    between atoms: C_23  and  C_24 
REMARK   10  A    between atoms: C_24  and  C_25 
REMARK   11  A    between atoms: C_26  and  C_28 
REMARK   12  A    between atoms: C_28  and  C_29 
REMARK   13  A    between atoms: C_29  and  C_30 
REMARK   14  A    between atoms: C_31  and  C_33 
REMARK   15  A    between atoms: C_33  and  C_34 
REMARK   16  A    between atoms: C_34  and  C_35 
REMARK   17  A    between atoms: C_36  and  C_38 
REMARK   18  A    between atoms: C_38  and  C_39 
REMARK   19  A    between atoms: C_39  and  C_40 
REMARK   20  A    between atoms: C_41  and  C_43 
REMARK   21  A    between atoms: C_43  and  C_44 
REMARK   22  A    between atoms: C_44  and  C_45 
REMARK   23  A    between atoms: C_46  and  C_48 
REMARK   24  A    between atoms: C_48  and  C_49 
REMARK   25  A    between atoms: C_49  and  C_50 
REMARK   26  A    between atoms: C_51  and  C_53 
REMARK   27  A    between atoms: C_53  and  C_54 
REMARK   28  A    between atoms: C_54  and  C_55 
REMARK   29  A    between atoms: C_56  and  C_58 
REMARK   30  A    between atoms: C_58  and  C_59 
REMARK   31  A    between atoms: C_59  and  C_60 
ROOT
HETATM    1  C   UNL     1     -21.856 -13.075   1.101  1.00  0.00    -0.024 C 
HETATM    2  C   UNL     1     -21.568 -11.910   0.515  1.00  0.00    -0.087 C 
HETATM    3  C   UNL     1     -22.669 -10.990   0.104  1.00  0.00     0.043 C 
ENDROOT
BRANCH   2   4
HETATM    4  C   UNL     1     -20.133 -11.509   0.262  1.00  0.00     0.037 C 
BRANCH   4   5
HETATM    5  C   UNL     1     -19.212 -12.706   0.297  1.00  0.00     0.031 C 
BRANCH   5   6
HETATM    6  C   UNL     1     -17.786 -12.328   0.468  1.00  0.00    -0.024 C 
HETATM    7  C   UNL     1     -16.875 -13.171   0.980  1.00  0.00    -0.087 C 
HETATM    8  C   UNL     1     -17.297 -14.552   1.411  1.00  0.00     0.043 C 
BRANCH   7   9
HETATM    9  C   UNL     1     -15.429 -12.778   1.146  1.00  0.00     0.037 C 
BRANCH   9  10
HETATM   10  C   UNL     1     -14.484 -13.913   0.809  1.00  0.00     0.031 C 
BRANCH  10  11
HETATM   11  C   UNL     1     -14.144 -13.988  -0.626  1.00  0.00    -0.024 C 
HETATM   12  C   UNL     1     -12.899 -14.214  -1.055  1.00  0.00    -0.087 C 
HETATM   13  C   UNL     1     -11.784 -14.402  -0.081  1.00  0.00     0.043 C 
BRANCH  12  14
HETATM   14  C   UNL     1     -12.586 -14.286  -2.527  1.00  0.00     0.037 C 
BRANCH  14  15
HETATM   15  C   UNL     1     -12.997 -15.647  -3.094  1.00  0.00     0.031 C 
BRANCH  15  16
HETATM   16  C   UNL     1     -13.893 -15.586  -4.260  1.00  0.00    -0.024 C 
HETATM   17  C   UNL     1     -13.621 -16.178  -5.429  1.00  0.00    -0.087 C 
HETATM   18  C   UNL     1     -12.351 -16.953  -5.602  1.00  0.00     0.043 C 
BRANCH  17  19
HETATM   19  C   UNL     1     -14.580 -16.086  -6.600  1.00  0.00     0.037 C 
BRANCH  19  20
HETATM   20  C   UNL     1     -15.628 -17.178  -6.547  1.00  0.00     0.031 C 
BRANCH  20  21
HETATM   21  C   UNL     1     -16.895 -16.793  -7.191  1.00  0.00    -0.024 C 
HETATM   22  C   UNL     1     -17.950 -16.345  -6.486  1.00  0.00    -0.087 C 
HETATM   23  C   UNL     1     -17.901 -16.208  -4.983  1.00  0.00     0.043 C 
BRANCH  22  24
HETATM   24  C   UNL     1     -19.245 -15.952  -7.151  1.00  0.00     0.037 C 
BRANCH  24  25
HETATM   25  C   UNL     1     -19.020 -15.042  -8.341  1.00  0.00     0.031 C 
BRANCH  25  26
HETATM   26  C   UNL     1     -18.212 -13.852  -8.020  1.00  0.00    -0.024 C 
HETATM   27  C   UNL     1     -18.733 -12.761  -7.426  1.00  0.00    -0.087 C 
HETATM   28  C   UNL     1     -20.204 -12.684  -7.047  1.00  0.00     0.043 C 
BRANCH  27  29
HETATM   29  C   UNL     1     -17.878 -11.565  -7.111  1.00  0.00     0.037 C 
BRANCH  29  30
HETATM   30  C   UNL     1     -16.771 -11.923  -6.136  1.00  0.00     0.031 C 
BRANCH  30  31
HETATM   31  C   UNL     1     -15.496 -12.314  -6.756  1.00  0.00    -0.024 C 
HETATM   32  C   UNL     1     -14.320 -12.334  -6.097  1.00  0.00    -0.091 C 
HETATM   33  C   UNL     1     -14.209 -11.950  -4.644  1.00  0.00     0.042 C 
HETATM   34  C   UNL     1     -13.048 -12.739  -6.774  1.00  0.00     0.042 C 
ENDBRANCH  30  31
ENDBRANCH  29  30
ENDBRANCH  27  29
ENDBRANCH  25  26
ENDBRANCH  24  25
ENDBRANCH  22  24
ENDBRANCH  20  21
ENDBRANCH  19  20
ENDBRANCH  17  19
ENDBRANCH  15  16
ENDBRANCH  14  15
ENDBRANCH  12  14
ENDBRANCH  10  11
ENDBRANCH   9  10
ENDBRANCH   7   9
ENDBRANCH   5   6
ENDBRANCH   4   5
ENDBRANCH   2   4
BRANCH   1  35
HETATM   35  C   UNL     1     -23.259 -13.513   1.371  1.00  0.00     0.031 C 
BRANCH  35  36
HETATM   36  C   UNL     1     -23.511 -14.984   1.038  1.00  0.00     0.037 C 
BRANCH  36  37
HETATM   37  C   UNL     1     -23.824 -15.179  -0.431  1.00  0.00    -0.087 C 
HETATM   38  C   UNL     1     -23.485 -16.309  -1.062  1.00  0.00    -0.024 C 
HETATM   39  C   UNL     1     -24.536 -14.070  -1.148  1.00  0.00     0.043 C 
BRANCH  38  40
HETATM   40  C   UNL     1     -23.796 -16.515  -2.501  1.00  0.00     0.031 C 
BRANCH  40  41
HETATM   41  C   UNL     1     -22.537 -16.640  -3.349  1.00  0.00     0.037 C 
BRANCH  41  42
HETATM   42  C   UNL     1     -22.040 -15.281  -3.763  1.00  0.00    -0.087 C 
HETATM   43  C   UNL     1     -21.127 -14.625  -3.052  1.00  0.00    -0.024 C 
HETATM   44  C   UNL     1     -22.567 -14.669  -5.034  1.00  0.00     0.043 C 
BRANCH  43  45
HETATM   45  C   UNL     1     -20.609 -13.277  -3.451  1.00  0.00     0.031 C 
BRANCH  45  46
HETATM   46  C   UNL     1     -19.102 -13.236  -3.520  1.00  0.00     0.037 C 
BRANCH  46  47
HETATM   47  C   UNL     1     -18.595 -11.857  -3.144  1.00  0.00    -0.087 C 
HETATM   48  C   UNL     1     -19.429 -10.822  -3.131  1.00  0.00    -0.020 C 
HETATM   49  C   UNL     1     -17.183 -11.647  -2.793  1.00  0.00     0.043 C 
BRANCH  48  50
HETATM   50  C   UNL     1     -19.045  -9.426  -2.788  1.00  0.00     0.071 C 
BRANCH  50  51
HETATM   51  C   UNL     1     -19.955  -8.386  -3.344  1.00  0.00     0.008 A 
HETATM   52  C   UNL     1     -20.804  -7.725  -2.556  1.00  0.00     0.002 A 
HETATM   53  C   UNL     1     -20.902  -7.974  -1.079  1.00  0.00     0.053 C 
HETATM   54  C   UNL     1     -21.675  -6.693  -3.140  1.00  0.00     0.214 A 
HETATM   55  C   UNL     1     -21.658  -6.458  -4.614  1.00  0.00     0.156 A 
HETATM   56  O   UNL     1     -22.420  -6.026  -2.416  1.00  0.00    -0.285 OA
HETATM   57  C   UNL     1     -20.820  -7.138  -5.411  1.00  0.00     0.156 A 
HETATM   58  C   UNL     1     -19.902  -8.094  -4.779  1.00  0.00     0.215 A 
HETATM   59  O   UNL     1     -19.094  -8.640  -5.561  1.00  0.00    -0.285 OA
BRANCH  55  60
HETATM   60  O   UNL     1     -22.524  -5.507  -5.127  1.00  0.00    -0.350 OA
HETATM   61  C   UNL     1     -23.784  -5.941  -5.657  1.00  0.00     0.210 C 
ENDBRANCH  55  60
BRANCH  57  62
HETATM   62  O   UNL     1     -20.864  -6.912  -6.796  1.00  0.00    -0.350 OA
HETATM   63  C   UNL     1     -20.031  -5.931  -7.392  1.00  0.00     0.210 C 
ENDBRANCH  57  62
ENDBRANCH  50  51
ENDBRANCH  48  50
ENDBRANCH  46  47
ENDBRANCH  45  46
ENDBRANCH  43  45
ENDBRANCH  41  42
ENDBRANCH  40  41
ENDBRANCH  38  40
ENDBRANCH  36  37
ENDBRANCH  35  36
ENDBRANCH   1  35
TORSDOF 31
ENDMDL
MODEL 5
REMARK VINA RESULT:      -5.8      4.040      9.680
REMARK  31 active torsions:
REMARK  status: ('A' for Active; 'I' for Inactive)
REMARK    1  A    between atoms: C_3  and  C_14 
REMARK    2  A    between atoms: C_6  and  O_12 
REMARK    3  A    between atoms: C_7  and  O_10 
REMARK    4  A    between atoms: C_14  and  C_15 
REMARK    5  A    between atoms: C_16  and  C_18 
REMARK    6  A    between atoms: C_18  and  C_19 
REMARK    7  A    between atoms: C_19  and  C_20 
REMARK    8  A    between atoms: C_21  and  C_23 
REMARK    9  A    between atoms: C_23  and  C_24 
REMARK   10  A    between atoms: C_24  and  C_25 
REMARK   11  A    between atoms: C_26  and  C_28 
REMARK   12  A    between atoms: C_28  and  C_29 
REMARK   13  A    between atoms: C_29  and  C_30 
REMARK   14  A    between atoms: C_31  and  C_33 
REMARK   15  A    between atoms: C_33  and  C_34 
REMARK   16  A    between atoms: C_34  and  C_35 
REMARK   17  A    between atoms: C_36  and  C_38 
REMARK   18  A    between atoms: C_38  and  C_39 
REMARK   19  A    between atoms: C_39  and  C_40 
REMARK   20  A    between atoms: C_41  and  C_43 
REMARK   21  A    between atoms: C_43  and  C_44 
REMARK   22  A    between atoms: C_44  and  C_45 
REMARK   23  A    between atoms: C_46  and  C_48 
REMARK   24  A    between atoms: C_48  and  C_49 
REMARK   25  A    between atoms: C_49  and  C_50 
REMARK   26  A    between atoms: C_51  and  C_53 
REMARK   27  A    between atoms: C_53  and  C_54 
REMARK   28  A    between atoms: C_54  and  C_55 
REMARK   29  A    between atoms: C_56  and  C_58 
REMARK   30  A    between atoms: C_58  and  C_59 
REMARK   31  A    between atoms: C_59  and  C_60 
ROOT
HETATM    1  C   UNL     1     -22.920 -13.199  -1.074  1.00  0.00    -0.024 C 
HETATM    2  C   UNL     1     -22.722 -11.927  -0.719  1.00  0.00    -0.087 C 
HETATM    3  C   UNL     1     -23.814 -11.164  -0.044  1.00  0.00     0.043 C 
ENDROOT
BRANCH   2   4
HETATM    4  C   UNL     1     -21.401 -11.247  -0.994  1.00  0.00     0.037 C 
BRANCH   4   5
HETATM    5  C   UNL     1     -21.246  -9.991  -0.168  1.00  0.00     0.031 C 
BRANCH   5   6
HETATM    6  C   UNL     1     -21.241  -8.757  -0.994  1.00  0.00    -0.024 C 
HETATM    7  C   UNL     1     -22.006  -7.694  -0.702  1.00  0.00    -0.087 C 
HETATM    8  C   UNL     1     -22.916  -7.737   0.499  1.00  0.00     0.043 C 
BRANCH   7   9
HETATM    9  C   UNL     1     -21.992  -6.445  -1.545  1.00  0.00     0.037 C 
BRANCH   9  10
HETATM   10  C   UNL     1     -21.989  -6.754  -3.029  1.00  0.00     0.031 C 
BRANCH  10  11
HETATM   11  C   UNL     1     -21.244  -5.766  -3.833  1.00  0.00    -0.024 C 
HETATM   12  C   UNL     1     -20.842  -6.018  -5.082  1.00  0.00    -0.087 C 
HETATM   13  C   UNL     1     -21.137  -7.333  -5.723  1.00  0.00     0.043 C 
BRANCH  12  14
HETATM   14  C   UNL     1     -20.084  -4.987  -5.878  1.00  0.00     0.037 C 
BRANCH  14  15
HETATM   15  C   UNL     1     -19.692  -5.552  -7.246  1.00  0.00     0.031 C 
BRANCH  15  16
HETATM   16  C   UNL     1     -19.878  -4.625  -8.374  1.00  0.00    -0.024 C 
HETATM   17  C   UNL     1     -21.079  -4.265  -8.839  1.00  0.00    -0.087 C 
HETATM   18  C   UNL     1     -22.324  -4.808  -8.209  1.00  0.00     0.043 C 
BRANCH  17  19
HETATM   19  C   UNL     1     -21.216  -3.304 -10.005  1.00  0.00     0.037 C 
BRANCH  19  20
HETATM   20  C   UNL     1     -20.985  -4.001 -11.330  1.00  0.00     0.031 C 
BRANCH  20  21
HETATM   21  C   UNL     1     -21.962  -3.617 -12.362  1.00  0.00    -0.024 C 
HETATM   22  C   UNL     1     -23.192  -4.159 -12.422  1.00  0.00    -0.087 C 
HETATM   23  C   UNL     1     -23.650  -5.202 -11.430  1.00  0.00     0.043 C 
BRANCH  22  24
HETATM   24  C   UNL     1     -24.189  -3.762 -13.481  1.00  0.00     0.037 C 
BRANCH  24  25
HETATM   25  C   UNL     1     -24.243  -4.764 -14.616  1.00  0.00     0.031 C 
BRANCH  25  26
HETATM   26  C   UNL     1     -25.473  -5.575 -14.619  1.00  0.00    -0.024 C 
HETATM   27  C   UNL     1     -25.755  -6.461 -15.592  1.00  0.00    -0.087 C 
HETATM   28  C   UNL     1     -24.814  -6.684 -16.765  1.00  0.00     0.043 C 
BRANCH  27  29
HETATM   29  C   UNL     1     -27.021  -7.272 -15.561  1.00  0.00     0.037 C 
BRANCH  29  30
HETATM   30  C   UNL     1     -28.242  -6.392 -15.760  1.00  0.00     0.031 C 
BRANCH  30  31
HETATM   31  C   UNL     1     -29.320  -6.991 -16.562  1.00  0.00    -0.024 C 
HETATM   32  C   UNL     1     -29.337  -6.989 -17.910  1.00  0.00    -0.091 C 
HETATM   33  C   UNL     1     -28.236  -6.361 -18.725  1.00  0.00     0.042 C 
HETATM   34  C   UNL     1     -30.458  -7.613 -18.681  1.00  0.00     0.042 C 
ENDBRANCH  30  31
ENDBRANCH  29  30
ENDBRANCH  27  29
ENDBRANCH  25  26
ENDBRANCH  24  25
ENDBRANCH  22  24
ENDBRANCH  20  21
ENDBRANCH  19  20
ENDBRANCH  17  19
ENDBRANCH  15  16
ENDBRANCH  14  15
ENDBRANCH  12  14
ENDBRANCH  10  11
ENDBRANCH   9  10
ENDBRANCH   7   9
ENDBRANCH   5   6
ENDBRANCH   4   5
ENDBRANCH   2   4
BRANCH   1  35
HETATM   35  C   UNL     1     -24.209 -13.912  -0.823  1.00  0.00     0.031 C 
BRANCH  35  36
HETATM   36  C   UNL     1     -24.040 -15.215  -0.041  1.00  0.00     0.037 C 
BRANCH  36  37
HETATM   37  C   UNL     1     -23.089 -15.046   1.126  1.00  0.00    -0.087 C 
HETATM   38  C   UNL     1     -21.925 -15.705   1.166  1.00  0.00    -0.024 C 
HETATM   39  C   UNL     1     -23.490 -14.107   2.226  1.00  0.00     0.043 C 
BRANCH  38  40
HETATM   40  C   UNL     1     -20.981 -15.540   2.302  1.00  0.00     0.031 C 
BRANCH  40  41
HETATM   41  C   UNL     1     -19.702 -16.345   2.109  1.00  0.00     0.037 C 
BRANCH  41  42
HETATM   42  C   UNL     1     -18.574 -15.451   1.669  1.00  0.00    -0.087 C 
HETATM   43  C   UNL     1     -18.739 -14.533   0.721  1.00  0.00    -0.024 C 
HETATM   44  C   UNL     1     -17.236 -15.579   2.348  1.00  0.00     0.043 C 
BRANCH  43  45
HETATM   45  C   UNL     1     -17.635 -13.624   0.275  1.00  0.00     0.031 C 
BRANCH  45  46
HETATM   46  C   UNL     1     -18.086 -12.190   0.145  1.00  0.00     0.037 C 
BRANCH  46  47
HETATM   47  C   UNL     1     -17.339 -11.505  -0.984  1.00  0.00    -0.087 C 
HETATM   48  C   UNL     1     -18.009 -10.819  -1.905  1.00  0.00    -0.020 C 
HETATM   49  C   UNL     1     -15.875 -11.593  -1.076  1.00  0.00     0.043 C 
BRANCH  48  50
HETATM   50  C   UNL     1     -17.387 -10.116  -3.060  1.00  0.00     0.071 C 
BRANCH  50  51
HETATM   51  C   UNL     1     -17.675 -10.737  -4.382  1.00  0.00     0.008 A 
HETATM   52  C   UNL     1     -16.696 -11.251  -5.127  1.00  0.00     0.002 A 
HETATM   53  C   UNL     1     -15.258 -11.245  -4.695  1.00  0.00     0.053 C 
HETATM   54  C   UNL     1     -17.024 -11.870  -6.421  1.00  0.00     0.214 A 
HETATM   55  C   UNL     1     -18.429 -11.840  -6.921  1.00  0.00     0.156 A 
HETATM   56  O   UNL     1     -16.139 -12.409  -7.094  1.00  0.00    -0.285 OA
HETATM   57  C   UNL     1     -19.413 -11.303  -6.182  1.00  0.00     0.156 A 
HETATM   58  C   UNL     1     -19.061 -10.778  -4.858  1.00  0.00     0.215 A 
HETATM   59  O   UNL     1     -20.029 -10.361  -4.186  1.00  0.00    -0.285 OA
BRANCH  55  60
HETATM   60  O   UNL     1     -18.687 -12.396  -8.163  1.00  0.00    -0.350 OA
HETATM   61  C   UNL     1     -19.054 -13.781  -8.232  1.00  0.00     0.210 C 
ENDBRANCH  55  60
BRANCH  57  62
HETATM   62  O   UNL     1     -20.714 -11.263  -6.708  1.00  0.00    -0.350 OA
HETATM   63  C   UNL     1     -21.761 -11.996  -6.093  1.00  0.00     0.210 C 
ENDBRANCH  57  62
ENDBRANCH  50  51
ENDBRANCH  48  50
ENDBRANCH  46  47
ENDBRANCH  45  46
ENDBRANCH  43  45
ENDBRANCH  41  42
ENDBRANCH  40  41
ENDBRANCH  38  40
ENDBRANCH  36  37
ENDBRANCH  35  36
ENDBRANCH   1  35
TORSDOF 31
ENDMDL
MODEL 6
REMARK VINA RESULT:      -5.8      3.871      9.248
REMARK  31 active torsions:
REMARK  status: ('A' for Active; 'I' for Inactive)
REMARK    1  A    between atoms: C_3  and  C_14 
REMARK    2  A    between atoms: C_6  and  O_12 
REMARK    3  A    between atoms: C_7  and  O_10 
REMARK    4  A    between atoms: C_14  and  C_15 
REMARK    5  A    between atoms: C_16  and  C_18 
REMARK    6  A    between atoms: C_18  and  C_19 
REMARK    7  A    between atoms: C_19  and  C_20 
REMARK    8  A    between atoms: C_21  and  C_23 
REMARK    9  A    between atoms: C_23  and  C_24 
REMARK   10  A    between atoms: C_24  and  C_25 
REMARK   11  A    between atoms: C_26  and  C_28 
REMARK   12  A    between atoms: C_28  and  C_29 
REMARK   13  A    between atoms: C_29  and  C_30 
REMARK   14  A    between atoms: C_31  and  C_33 
REMARK   15  A    between atoms: C_33  and  C_34 
REMARK   16  A    between atoms: C_34  and  C_35 
REMARK   17  A    between atoms: C_36  and  C_38 
REMARK   18  A    between atoms: C_38  and  C_39 
REMARK   19  A    between atoms: C_39  and  C_40 
REMARK   20  A    between atoms: C_41  and  C_43 
REMARK   21  A    between atoms: C_43  and  C_44 
REMARK   22  A    between atoms: C_44  and  C_45 
REMARK   23  A    between atoms: C_46  and  C_48 
REMARK   24  A    between atoms: C_48  and  C_49 
REMARK   25  A    between atoms: C_49  and  C_50 
REMARK   26  A    between atoms: C_51  and  C_53 
REMARK   27  A    between atoms: C_53  and  C_54 
REMARK   28  A    between atoms: C_54  and  C_55 
REMARK   29  A    between atoms: C_56  and  C_58 
REMARK   30  A    between atoms: C_58  and  C_59 
REMARK   31  A    between atoms: C_59  and  C_60 
ROOT
HETATM    1  C   UNL     1     -21.646  -7.777  -1.062  1.00  0.00    -0.024 C 
HETATM    2  C   UNL     1     -22.092  -8.356   0.055  1.00  0.00    -0.087 C 
HETATM    3  C   UNL     1     -23.313  -7.827   0.732  1.00  0.00     0.043 C 
ENDROOT
BRANCH   2   4
HETATM    4  C   UNL     1     -21.372  -9.546   0.647  1.00  0.00     0.037 C 
BRANCH   4   5
HETATM    5  C   UNL     1     -22.110 -10.833   0.362  1.00  0.00     0.031 C 
BRANCH   5   6
HETATM    6  C   UNL     1     -21.311 -12.039   0.700  1.00  0.00    -0.024 C 
HETATM    7  C   UNL     1     -21.154 -13.059  -0.158  1.00  0.00    -0.087 C 
HETATM    8  C   UNL     1     -21.809 -13.002  -1.514  1.00  0.00     0.043 C 
BRANCH   7   9
HETATM    9  C   UNL     1     -20.338 -14.278   0.193  1.00  0.00     0.037 C 
BRANCH   9  10
HETATM   10  C   UNL     1     -20.364 -15.322  -0.905  1.00  0.00     0.031 C 
BRANCH  10  11
HETATM   11  C   UNL     1     -19.732 -14.868  -2.160  1.00  0.00    -0.024 C 
HETATM   12  C   UNL     1     -18.455 -15.128  -2.452  1.00  0.00    -0.087 C 
HETATM   13  C   UNL     1     -17.601 -15.900  -1.502  1.00  0.00     0.043 C 
BRANCH  12  14
HETATM   14  C   UNL     1     -17.840 -14.652  -3.743  1.00  0.00     0.037 C 
BRANCH  14  15
HETATM   15  C   UNL     1     -18.453 -13.313  -4.164  1.00  0.00     0.031 C 
BRANCH  15  16
HETATM   16  C   UNL     1     -19.823 -13.399  -4.695  1.00  0.00    -0.024 C 
HETATM   17  C   UNL     1     -20.118 -13.259  -5.992  1.00  0.00    -0.087 C 
HETATM   18  C   UNL     1     -19.030 -13.002  -6.989  1.00  0.00     0.043 C 
BRANCH  17  19
HETATM   19  C   UNL     1     -21.548 -13.359  -6.488  1.00  0.00     0.037 C 
BRANCH  19  20
HETATM   20  C   UNL     1     -21.949 -14.797  -6.743  1.00  0.00     0.031 C 
BRANCH  20  21
HETATM   21  C   UNL     1     -22.499 -15.462  -5.550  1.00  0.00    -0.024 C 
HETATM   22  C   UNL     1     -21.836 -16.440  -4.906  1.00  0.00    -0.087 C 
HETATM   23  C   UNL     1     -20.481 -16.919  -5.367  1.00  0.00     0.043 C 
BRANCH  22  24
HETATM   24  C   UNL     1     -22.404 -17.117  -3.684  1.00  0.00     0.037 C 
BRANCH  24  25
HETATM   25  C   UNL     1     -23.393 -16.233  -2.951  1.00  0.00     0.031 C 
BRANCH  25  26
HETATM   26  C   UNL     1     -23.430 -16.480  -1.499  1.00  0.00    -0.024 C 
HETATM   27  C   UNL     1     -24.111 -15.692  -0.647  1.00  0.00    -0.087 C 
HETATM   28  C   UNL     1     -24.892 -14.480  -1.130  1.00  0.00     0.043 C 
BRANCH  27  29
HETATM   29  C   UNL     1     -24.128 -15.976   0.830  1.00  0.00     0.037 C 
BRANCH  29  30
HETATM   30  C   UNL     1     -23.818 -14.726   1.633  1.00  0.00     0.031 C 
BRANCH  30  31
HETATM   31  C   UNL     1     -23.063 -14.953   2.875  1.00  0.00    -0.024 C 
HETATM   32  C   UNL     1     -23.641 -15.217   4.063  1.00  0.00    -0.091 C 
HETATM   33  C   UNL     1     -25.137 -15.302   4.225  1.00  0.00     0.042 C 
HETATM   34  C   UNL     1     -22.827 -15.440   5.299  1.00  0.00     0.042 C 
ENDBRANCH  30  31
ENDBRANCH  29  30
ENDBRANCH  27  29
ENDBRANCH  25  26
ENDBRANCH  24  25
ENDBRANCH  22  24
ENDBRANCH  20  21
ENDBRANCH  19  20
ENDBRANCH  17  19
ENDBRANCH  15  16
ENDBRANCH  14  15
ENDBRANCH  12  14
ENDBRANCH  10  11
ENDBRANCH   9  10
ENDBRANCH   7   9
ENDBRANCH   5   6
ENDBRANCH   4   5
ENDBRANCH   2   4
BRANCH   1  35
HETATM   35  C   UNL     1     -22.324  -6.599  -1.683  1.00  0.00     0.031 C 
BRANCH  35  36
HETATM   36  C   UNL     1     -21.396  -5.753  -2.555  1.00  0.00     0.037 C 
BRANCH  36  37
HETATM   37  C   UNL     1     -21.221  -6.356  -3.933  1.00  0.00    -0.087 C 
HETATM   38  C   UNL     1     -21.716  -7.566  -4.222  1.00  0.00    -0.024 C 
HETATM   39  C   UNL     1     -20.490  -5.547  -4.964  1.00  0.00     0.043 C 
BRANCH  38  40
HETATM   40  C   UNL     1     -21.558  -8.163  -5.574  1.00  0.00     0.031 C 
BRANCH  40  41
HETATM   41  C   UNL     1     -21.038  -9.594  -5.515  1.00  0.00     0.037 C 
BRANCH  41  42
HETATM   42  C   UNL     1     -19.801  -9.673  -4.661  1.00  0.00    -0.087 C 
HETATM   43  C   UNL     1     -19.868  -9.894  -3.352  1.00  0.00    -0.024 C 
HETATM   44  C   UNL     1     -18.453  -9.534  -5.319  1.00  0.00     0.043 C 
BRANCH  43  45
HETATM   45  C   UNL     1     -18.650  -9.989  -2.484  1.00  0.00     0.031 C 
BRANCH  45  46
HETATM   46  C   UNL     1     -18.801 -11.017  -1.390  1.00  0.00     0.037 C 
BRANCH  46  47
HETATM   47  C   UNL     1     -17.449 -11.602  -1.030  1.00  0.00    -0.087 C 
HETATM   48  C   UNL     1     -16.408 -11.421  -1.837  1.00  0.00    -0.020 C 
HETATM   49  C   UNL     1     -17.273 -12.376   0.207  1.00  0.00     0.043 C 
BRANCH  48  50
HETATM   50  C   UNL     1     -15.041 -11.954  -1.593  1.00  0.00     0.071 C 
BRANCH  50  51
HETATM   51  C   UNL     1     -14.678 -13.122  -2.443  1.00  0.00     0.008 A 
HETATM   52  C   UNL     1     -14.379 -14.302  -1.898  1.00  0.00     0.002 A 
HETATM   53  C   UNL     1     -14.389 -14.536  -0.415  1.00  0.00     0.053 C 
HETATM   54  C   UNL     1     -14.042 -15.436  -2.772  1.00  0.00     0.214 A 
HETATM   55  C   UNL     1     -13.956 -15.232  -4.248  1.00  0.00     0.156 A 
HETATM   56  O   UNL     1     -13.826 -16.551  -2.288  1.00  0.00    -0.285 OA
HETATM   57  C   UNL     1     -14.235 -14.040  -4.797  1.00  0.00     0.156 A 
HETATM   58  C   UNL     1     -14.656 -12.958  -3.900  1.00  0.00     0.215 A 
HETATM   59  O   UNL     1     -14.976 -11.895  -4.474  1.00  0.00    -0.285 OA
BRANCH  55  60
HETATM   60  O   UNL     1     -13.593 -16.316  -5.031  1.00  0.00    -0.350 OA
HETATM   61  C   UNL     1     -12.209 -16.685  -5.094  1.00  0.00     0.210 C 
ENDBRANCH  55  60
BRANCH  57  62
HETATM   62  O   UNL     1     -14.105 -13.883  -6.187  1.00  0.00    -0.350 OA
HETATM   63  C   UNL     1     -12.950 -13.273  -6.737  1.00  0.00     0.210 C 
ENDBRANCH  57  62
ENDBRANCH  50  51
ENDBRANCH  48  50
ENDBRANCH  46  47
ENDBRANCH  45  46
ENDBRANCH  43  45
ENDBRANCH  41  42
ENDBRANCH  40  41
ENDBRANCH  38  40
ENDBRANCH  36  37
ENDBRANCH  35  36
ENDBRANCH   1  35
TORSDOF 31
ENDMDL
MODEL 7
REMARK VINA RESULT:      -5.6      4.703     10.073
REMARK  31 active torsions:
REMARK  status: ('A' for Active; 'I' for Inactive)
REMARK    1  A    between atoms: C_3  and  C_14 
REMARK    2  A    between atoms: C_6  and  O_12 
REMARK    3  A    between atoms: C_7  and  O_10 
REMARK    4  A    between atoms: C_14  and  C_15 
REMARK    5  A    between atoms: C_16  and  C_18 
REMARK    6  A    between atoms: C_18  and  C_19 
REMARK    7  A    between atoms: C_19  and  C_20 
REMARK    8  A    between atoms: C_21  and  C_23 
REMARK    9  A    between atoms: C_23  and  C_24 
REMARK   10  A    between atoms: C_24  and  C_25 
REMARK   11  A    between atoms: C_26  and  C_28 
REMARK   12  A    between atoms: C_28  and  C_29 
REMARK   13  A    between atoms: C_29  and  C_30 
REMARK   14  A    between atoms: C_31  and  C_33 
REMARK   15  A    between atoms: C_33  and  C_34 
REMARK   16  A    between atoms: C_34  and  C_35 
REMARK   17  A    between atoms: C_36  and  C_38 
REMARK   18  A    between atoms: C_38  and  C_39 
REMARK   19  A    between atoms: C_39  and  C_40 
REMARK   20  A    between atoms: C_41  and  C_43 
REMARK   21  A    between atoms: C_43  and  C_44 
REMARK   22  A    between atoms: C_44  and  C_45 
REMARK   23  A    between atoms: C_46  and  C_48 
REMARK   24  A    between atoms: C_48  and  C_49 
REMARK   25  A    between atoms: C_49  and  C_50 
REMARK   26  A    between atoms: C_51  and  C_53 
REMARK   27  A    between atoms: C_53  and  C_54 
REMARK   28  A    between atoms: C_54  and  C_55 
REMARK   29  A    between atoms: C_56  and  C_58 
REMARK   30  A    between atoms: C_58  and  C_59 
REMARK   31  A    between atoms: C_59  and  C_60 
ROOT
HETATM    1  C   UNL     1     -21.876  -8.299  -0.949  1.00  0.00    -0.024 C 
HETATM    2  C   UNL     1     -21.467  -8.697   0.258  1.00  0.00    -0.087 C 
HETATM    3  C   UNL     1     -21.825  -7.899   1.468  1.00  0.00     0.043 C 
ENDROOT
BRANCH   2   4
HETATM    4  C   UNL     1     -20.642  -9.953   0.416  1.00  0.00     0.037 C 
BRANCH   4   5
HETATM    5  C   UNL     1     -21.499 -11.193   0.315  1.00  0.00     0.031 C 
BRANCH   5   6
HETATM    6  C   UNL     1     -20.702 -12.446   0.330  1.00  0.00    -0.024 C 
HETATM    7  C   UNL     1     -20.407 -13.123  -0.790  1.00  0.00    -0.087 C 
HETATM    8  C   UNL     1     -20.899 -12.615  -2.121  1.00  0.00     0.043 C 
BRANCH   7   9
HETATM    9  C   UNL     1     -19.594 -14.392  -0.763  1.00  0.00     0.037 C 
BRANCH   9  10
HETATM   10  C   UNL     1     -20.061 -15.395  -1.799  1.00  0.00     0.031 C 
BRANCH  10  11
HETATM   11  C   UNL     1     -19.537 -15.129  -3.153  1.00  0.00    -0.024 C 
HETATM   12  C   UNL     1     -18.481 -15.778  -3.651  1.00  0.00    -0.087 C 
HETATM   13  C   UNL     1     -17.778 -16.816  -2.842  1.00  0.00     0.043 C 
BRANCH  12  14
HETATM   14  C   UNL     1     -17.972 -15.483  -5.038  1.00  0.00     0.037 C 
BRANCH  14  15
HETATM   15  C   UNL     1     -17.687 -13.986  -5.195  1.00  0.00     0.031 C 
BRANCH  15  16
HETATM   16  C   UNL     1     -18.883 -13.142  -5.348  1.00  0.00    -0.024 C 
HETATM   17  C   UNL     1     -19.549 -13.014  -6.501  1.00  0.00    -0.087 C 
HETATM   18  C   UNL     1     -19.089 -13.750  -7.722  1.00  0.00     0.043 C 
BRANCH  17  19
HETATM   19  C   UNL     1     -20.778 -12.131  -6.606  1.00  0.00     0.037 C 
BRANCH  19  20
HETATM   20  C   UNL     1     -22.044 -12.954  -6.736  1.00  0.00     0.031 C 
BRANCH  20  21
HETATM   21  C   UNL     1     -22.369 -13.709  -5.515  1.00  0.00    -0.024 C 
HETATM   22  C   UNL     1     -22.491 -15.049  -5.513  1.00  0.00    -0.087 C 
HETATM   23  C   UNL     1     -22.300 -15.867  -6.768  1.00  0.00     0.043 C 
BRANCH  22  24
HETATM   24  C   UNL     1     -22.824 -15.817  -4.259  1.00  0.00     0.037 C 
BRANCH  24  25
HETATM   25  C   UNL     1     -23.740 -15.036  -3.340  1.00  0.00     0.031 C 
BRANCH  25  26
HETATM   26  C   UNL     1     -23.701 -15.504  -1.943  1.00  0.00    -0.024 C 
HETATM   27  C   UNL     1     -23.906 -14.681  -0.897  1.00  0.00    -0.087 C 
HETATM   28  C   UNL     1     -24.193 -13.200  -1.090  1.00  0.00     0.043 C 
BRANCH  27  29
HETATM   29  C   UNL     1     -23.860 -15.195   0.516  1.00  0.00     0.037 C 
BRANCH  29  30
HETATM   30  C   UNL     1     -23.645 -14.062   1.504  1.00  0.00     0.031 C 
BRANCH  30  31
HETATM   31  C   UNL     1     -23.761 -14.440   2.921  1.00  0.00    -0.024 C 
HETATM   32  C   UNL     1     -22.783 -15.059   3.611  1.00  0.00    -0.091 C 
HETATM   33  C   UNL     1     -21.464 -15.424   2.980  1.00  0.00     0.042 C 
HETATM   34  C   UNL     1     -22.950 -15.423   5.053  1.00  0.00     0.042 C 
ENDBRANCH  30  31
ENDBRANCH  29  30
ENDBRANCH  27  29
ENDBRANCH  25  26
ENDBRANCH  24  25
ENDBRANCH  22  24
ENDBRANCH  20  21
ENDBRANCH  19  20
ENDBRANCH  17  19
ENDBRANCH  15  16
ENDBRANCH  14  15
ENDBRANCH  12  14
ENDBRANCH  10  11
ENDBRANCH   9  10
ENDBRANCH   7   9
ENDBRANCH   5   6
ENDBRANCH   4   5
ENDBRANCH   2   4
BRANCH   1  35
HETATM   35  C   UNL     1     -22.694  -7.064  -1.152  1.00  0.00     0.031 C 
BRANCH  35  36
HETATM   36  C   UNL     1     -21.930  -5.938  -1.849  1.00  0.00     0.037 C 
BRANCH  36  37
HETATM   37  C   UNL     1     -21.438  -6.359  -3.218  1.00  0.00    -0.087 C 
HETATM   38  C   UNL     1     -21.895  -7.475  -3.799  1.00  0.00    -0.024 C 
HETATM   39  C   UNL     1     -20.435  -5.479  -3.904  1.00  0.00     0.043 C 
BRANCH  38  40
HETATM   40  C   UNL     1     -21.427  -7.893  -5.147  1.00  0.00     0.031 C 
BRANCH  40  41
HETATM   41  C   UNL     1     -20.930  -9.333  -5.162  1.00  0.00     0.037 C 
BRANCH  41  42
HETATM   42  C   UNL     1     -19.518  -9.411  -4.647  1.00  0.00    -0.087 C 
HETATM   43  C   UNL     1     -19.254  -9.585  -3.355  1.00  0.00    -0.024 C 
HETATM   44  C   UNL     1     -18.379  -9.327  -5.629  1.00  0.00     0.043 C 
BRANCH  43  45
HETATM   45  C   UNL     1     -17.857  -9.677  -2.821  1.00  0.00     0.031 C 
BRANCH  45  46
HETATM   46  C   UNL     1     -17.704 -10.776  -1.798  1.00  0.00     0.037 C 
BRANCH  46  47
HETATM   47  C   UNL     1     -16.654 -11.773  -2.252  1.00  0.00    -0.087 C 
HETATM   48  C   UNL     1     -16.598 -12.979  -1.696  1.00  0.00    -0.020 C 
HETATM   49  C   UNL     1     -15.690 -11.420  -3.303  1.00  0.00     0.043 C 
BRANCH  48  50
HETATM   50  C   UNL     1     -15.609 -14.033  -2.052  1.00  0.00     0.071 C 
BRANCH  50  51
HETATM   51  C   UNL     1     -14.643 -14.358  -0.967  1.00  0.00     0.008 A 
HETATM   52  C   UNL     1     -13.327 -14.303  -1.180  1.00  0.00     0.002 A 
HETATM   53  C   UNL     1     -12.735 -13.914  -2.503  1.00  0.00     0.053 C 
HETATM   54  C   UNL     1     -12.405 -14.616  -0.077  1.00  0.00     0.214 A 
HETATM   55  C   UNL     1     -12.948 -15.072   1.236  1.00  0.00     0.156 A 
HETATM   56  O   UNL     1     -11.185 -14.508  -0.238  1.00  0.00    -0.285 OA
HETATM   57  C   UNL     1     -14.272 -15.148   1.445  1.00  0.00     0.156 A 
HETATM   58  C   UNL     1     -15.160 -14.740   0.350  1.00  0.00     0.215 A 
HETATM   59  O   UNL     1     -16.378 -14.760   0.629  1.00  0.00    -0.285 OA
BRANCH  55  60
HETATM   60  O   UNL     1     -12.044 -15.397   2.233  1.00  0.00    -0.350 OA
HETATM   61  C   UNL     1     -11.566 -16.747   2.313  1.00  0.00     0.210 C 
ENDBRANCH  55  60
BRANCH  57  62
HETATM   62  O   UNL     1     -14.739 -15.617   2.683  1.00  0.00    -0.350 OA
HETATM   63  C   UNL     1     -14.959 -17.002   2.892  1.00  0.00     0.210 C 
ENDBRANCH  57  62
ENDBRANCH  50  51
ENDBRANCH  48  50
ENDBRANCH  46  47
ENDBRANCH  45  46
ENDBRANCH  43  45
ENDBRANCH  41  42
ENDBRANCH  40  41
ENDBRANCH  38  40
ENDBRANCH  36  37
ENDBRANCH  35  36
ENDBRANCH   1  35
TORSDOF 31
ENDMDL
MODEL 8
REMARK VINA RESULT:      -5.0      4.797     10.541
REMARK  31 active torsions:
REMARK  status: ('A' for Active; 'I' for Inactive)
REMARK    1  A    between atoms: C_3  and  C_14 
REMARK    2  A    between atoms: C_6  and  O_12 
REMARK    3  A    between atoms: C_7  and  O_10 
REMARK    4  A    between atoms: C_14  and  C_15 
REMARK    5  A    between atoms: C_16  and  C_18 
REMARK    6  A    between atoms: C_18  and  C_19 
REMARK    7  A    between atoms: C_19  and  C_20 
REMARK    8  A    between atoms: C_21  and  C_23 
REMARK    9  A    between atoms: C_23  and  C_24 
REMARK   10  A    between atoms: C_24  and  C_25 
REMARK   11  A    between atoms: C_26  and  C_28 
REMARK   12  A    between atoms: C_28  and  C_29 
REMARK   13  A    between atoms: C_29  and  C_30 
REMARK   14  A    between atoms: C_31  and  C_33 
REMARK   15  A    between atoms: C_33  and  C_34 
REMARK   16  A    between atoms: C_34  and  C_35 
REMARK   17  A    between atoms: C_36  and  C_38 
REMARK   18  A    between atoms: C_38  and  C_39 
REMARK   19  A    between atoms: C_39  and  C_40 
REMARK   20  A    between atoms: C_41  and  C_43 
REMARK   21  A    between atoms: C_43  and  C_44 
REMARK   22  A    between atoms: C_44  and  C_45 
REMARK   23  A    between atoms: C_46  and  C_48 
REMARK   24  A    between atoms: C_48  and  C_49 
REMARK   25  A    between atoms: C_49  and  C_50 
REMARK   26  A    between atoms: C_51  and  C_53 
REMARK   27  A    between atoms: C_53  and  C_54 
REMARK   28  A    between atoms: C_54  and  C_55 
REMARK   29  A    between atoms: C_56  and  C_58 
REMARK   30  A    between atoms: C_58  and  C_59 
REMARK   31  A    between atoms: C_59  and  C_60 
ROOT
HETATM    1  C   UNL     1     -23.016 -13.606  -1.194  1.00  0.00    -0.024 C 
HETATM    2  C   UNL     1     -22.873 -12.357  -0.748  1.00  0.00    -0.087 C 
HETATM    3  C   UNL     1     -23.782 -11.836   0.316  1.00  0.00     0.043 C 
ENDROOT
BRANCH   2   4
HETATM    4  C   UNL     1     -21.795 -11.457  -1.309  1.00  0.00     0.037 C 
BRANCH   4   5
HETATM    5  C   UNL     1     -21.541 -10.273  -0.406  1.00  0.00     0.031 C 
BRANCH   5   6
HETATM    6  C   UNL     1     -21.516  -8.984  -1.143  1.00  0.00    -0.024 C 
HETATM    7  C   UNL     1     -21.969  -7.840  -0.605  1.00  0.00    -0.087 C 
HETATM    8  C   UNL     1     -22.533  -7.845   0.792  1.00  0.00     0.043 C 
BRANCH   7   9
HETATM    9  C   UNL     1     -21.937  -6.536  -1.361  1.00  0.00     0.037 C 
BRANCH   9  10
HETATM   10  C   UNL     1     -22.168  -6.728  -2.846  1.00  0.00     0.031 C 
BRANCH  10  11
HETATM   11  C   UNL     1     -21.257  -5.930  -3.690  1.00  0.00    -0.024 C 
HETATM   12  C   UNL     1     -21.094  -6.173  -4.993  1.00  0.00    -0.087 C 
HETATM   13  C   UNL     1     -21.842  -7.280  -5.658  1.00  0.00     0.043 C 
BRANCH  12  14
HETATM   14  C   UNL     1     -20.157  -5.339  -5.828  1.00  0.00     0.037 C 
BRANCH  14  15
HETATM   15  C   UNL     1     -19.982  -5.961  -7.217  1.00  0.00     0.031 C 
BRANCH  15  16
HETATM   16  C   UNL     1     -20.069  -5.010  -8.336  1.00  0.00    -0.024 C 
HETATM   17  C   UNL     1     -21.183  -4.335  -8.643  1.00  0.00    -0.087 C 
HETATM   18  C   UNL     1     -22.427  -4.528  -7.832  1.00  0.00     0.043 C 
BRANCH  17  19
HETATM   19  C   UNL     1     -21.218  -3.364  -9.808  1.00  0.00     0.037 C 
BRANCH  19  20
HETATM   20  C   UNL     1     -20.990  -4.071 -11.128  1.00  0.00     0.031 C 
BRANCH  20  21
HETATM   21  C   UNL     1     -21.946  -3.667 -12.172  1.00  0.00    -0.024 C 
HETATM   22  C   UNL     1     -23.186  -4.184 -12.248  1.00  0.00    -0.087 C 
HETATM   23  C   UNL     1     -23.677  -5.217 -11.263  1.00  0.00     0.043 C 
BRANCH  22  24
HETATM   24  C   UNL     1     -24.160  -3.765 -13.319  1.00  0.00     0.037 C 
BRANCH  24  25
HETATM   25  C   UNL     1     -24.218  -4.764 -14.457  1.00  0.00     0.031 C 
BRANCH  25  26
HETATM   26  C   UNL     1     -25.526  -5.429 -14.583  1.00  0.00    -0.024 C 
HETATM   27  C   UNL     1     -25.734  -6.471 -15.411  1.00  0.00    -0.087 C 
HETATM   28  C   UNL     1     -24.620  -7.034 -16.281  1.00  0.00     0.043 C 
BRANCH  27  29
HETATM   29  C   UNL     1     -27.084  -7.126 -15.512  1.00  0.00     0.037 C 
BRANCH  29  30
HETATM   30  C   UNL     1     -27.755  -6.797 -16.834  1.00  0.00     0.031 C 
BRANCH  30  31
HETATM   31  C   UNL     1     -29.169  -7.191 -16.930  1.00  0.00    -0.024 C 
HETATM   32  C   UNL     1     -30.089  -6.505 -17.637  1.00  0.00    -0.091 C 
HETATM   33  C   UNL     1     -29.743  -5.253 -18.401  1.00  0.00     0.042 C 
HETATM   34  C   UNL     1     -31.517  -6.948 -17.703  1.00  0.00     0.042 C 
ENDBRANCH  30  31
ENDBRANCH  29  30
ENDBRANCH  27  29
ENDBRANCH  25  26
ENDBRANCH  24  25
ENDBRANCH  22  24
ENDBRANCH  20  21
ENDBRANCH  19  20
ENDBRANCH  17  19
ENDBRANCH  15  16
ENDBRANCH  14  15
ENDBRANCH  12  14
ENDBRANCH  10  11
ENDBRANCH   9  10
ENDBRANCH   7   9
ENDBRANCH   5   6
ENDBRANCH   4   5
ENDBRANCH   2   4
BRANCH   1  35
HETATM   35  C   UNL     1     -24.067 -14.531  -0.669  1.00  0.00     0.031 C 
BRANCH  35  36
HETATM   36  C   UNL     1     -24.699 -15.409  -1.750  1.00  0.00     0.037 C 
BRANCH  36  37
HETATM   37  C   UNL     1     -23.719 -15.716  -2.864  1.00  0.00    -0.087 C 
HETATM   38  C   UNL     1     -23.865 -15.171  -4.077  1.00  0.00    -0.024 C 
HETATM   39  C   UNL     1     -22.576 -16.638  -2.556  1.00  0.00     0.043 C 
BRANCH  38  40
HETATM   40  C   UNL     1     -22.904 -15.459  -5.175  1.00  0.00     0.031 C 
BRANCH  40  41
HETATM   41  C   UNL     1     -22.623 -14.230  -6.030  1.00  0.00     0.037 C 
BRANCH  41  42
HETATM   42  C   UNL     1     -21.700 -13.283  -5.310  1.00  0.00    -0.087 C 
HETATM   43  C   UNL     1     -21.940 -11.977  -5.259  1.00  0.00    -0.024 C 
HETATM   44  C   UNL     1     -20.494 -13.842  -4.601  1.00  0.00     0.043 C 
BRANCH  43  45
HETATM   45  C   UNL     1     -21.043 -11.017  -4.539  1.00  0.00     0.031 C 
BRANCH  45  46
HETATM   46  C   UNL     1     -20.076 -10.325  -5.468  1.00  0.00     0.037 C 
BRANCH  46  47
HETATM   47  C   UNL     1     -18.826  -9.912  -4.714  1.00  0.00    -0.087 C 
HETATM   48  C   UNL     1     -17.643 -10.402  -5.069  1.00  0.00    -0.020 C 
HETATM   49  C   UNL     1     -18.907  -8.975  -3.585  1.00  0.00     0.043 C 
BRANCH  48  50
HETATM   50  C   UNL     1     -16.354 -10.078  -4.400  1.00  0.00     0.071 C 
BRANCH  50  51
HETATM   51  C   UNL     1     -15.694 -11.242  -3.746  1.00  0.00     0.008 A 
HETATM   52  C   UNL     1     -14.826 -12.003  -4.414  1.00  0.00     0.002 A 
HETATM   53  C   UNL     1     -14.456 -11.746  -5.846  1.00  0.00     0.053 C 
HETATM   54  C   UNL     1     -14.182 -13.134  -3.728  1.00  0.00     0.214 A 
HETATM   55  C   UNL     1     -14.568 -13.466  -2.325  1.00  0.00     0.156 A 
HETATM   56  O   UNL     1     -13.328 -13.809  -4.311  1.00  0.00    -0.285 OA
HETATM   57  C   UNL     1     -15.457 -12.713  -1.659  1.00  0.00     0.156 A 
HETATM   58  C   UNL     1     -16.009 -11.540  -2.346  1.00  0.00     0.215 A 
HETATM   59  O   UNL     1     -16.772 -10.836  -1.650  1.00  0.00    -0.285 OA
BRANCH  55  60
HETATM   60  O   UNL     1     -13.968 -14.564  -1.731  1.00  0.00    -0.350 OA
HETATM   61  C   UNL     1     -12.916 -14.342  -0.783  1.00  0.00     0.210 C 
ENDBRANCH  55  60
BRANCH  57  62
HETATM   62  O   UNL     1     -15.819 -13.084  -0.354  1.00  0.00    -0.350 OA
HETATM   63  C   UNL     1     -15.612 -12.194   0.731  1.00  0.00     0.210 C 
ENDBRANCH  57  62
ENDBRANCH  50  51
ENDBRANCH  48  50
ENDBRANCH  46  47
ENDBRANCH  45  46
ENDBRANCH  43  45
ENDBRANCH  41  42
ENDBRANCH  40  41
ENDBRANCH  38  40
ENDBRANCH  36  37
ENDBRANCH  35  36
ENDBRANCH   1  35
TORSDOF 31
ENDMDL
MODEL 9
REMARK VINA RESULT:      -4.8      4.722     10.930
REMARK  31 active torsions:
REMARK  status: ('A' for Active; 'I' for Inactive)
REMARK    1  A    between atoms: C_3  and  C_14 
REMARK    2  A    between atoms: C_6  and  O_12 
REMARK    3  A    between atoms: C_7  and  O_10 
REMARK    4  A    between atoms: C_14  and  C_15 
REMARK    5  A    between atoms: C_16  and  C_18 
REMARK    6  A    between atoms: C_18  and  C_19 
REMARK    7  A    between atoms: C_19  and  C_20 
REMARK    8  A    between atoms: C_21  and  C_23 
REMARK    9  A    between atoms: C_23  and  C_24 
REMARK   10  A    between atoms: C_24  and  C_25 
REMARK   11  A    between atoms: C_26  and  C_28 
REMARK   12  A    between atoms: C_28  and  C_29 
REMARK   13  A    between atoms: C_29  and  C_30 
REMARK   14  A    between atoms: C_31  and  C_33 
REMARK   15  A    between atoms: C_33  and  C_34 
REMARK   16  A    between atoms: C_34  and  C_35 
REMARK   17  A    between atoms: C_36  and  C_38 
REMARK   18  A    between atoms: C_38  and  C_39 
REMARK   19  A    between atoms: C_39  and  C_40 
REMARK   20  A    between atoms: C_41  and  C_43 
REMARK   21  A    between atoms: C_43  and  C_44 
REMARK   22  A    between atoms: C_44  and  C_45 
REMARK   23  A    between atoms: C_46  and  C_48 
REMARK   24  A    between atoms: C_48  and  C_49 
REMARK   25  A    between atoms: C_49  and  C_50 
REMARK   26  A    between atoms: C_51  and  C_53 
REMARK   27  A    between atoms: C_53  and  C_54 
REMARK   28  A    between atoms: C_54  and  C_55 
REMARK   29  A    between atoms: C_56  and  C_58 
REMARK   30  A    between atoms: C_58  and  C_59 
REMARK   31  A    between atoms: C_59  and  C_60 
ROOT
HETATM    1  C   UNL     1     -21.444 -12.475  -5.476  1.00  0.00    -0.024 C 
HETATM    2  C   UNL     1     -21.131 -11.386  -4.771  1.00  0.00    -0.087 C 
HETATM    3  C   UNL     1     -22.045 -10.909  -3.691  1.00  0.00     0.043 C 
ENDROOT
BRANCH   2   4
HETATM    4  C   UNL     1     -19.856 -10.625  -5.053  1.00  0.00     0.037 C 
BRANCH   4   5
HETATM    5  C   UNL     1     -19.736  -9.405  -4.172  1.00  0.00     0.031 C 
BRANCH   5   6
HETATM    6  C   UNL     1     -20.163  -8.158  -4.857  1.00  0.00    -0.024 C 
HETATM    7  C   UNL     1     -20.856  -7.195  -4.230  1.00  0.00    -0.087 C 
HETATM    8  C   UNL     1     -21.232  -7.370  -2.781  1.00  0.00     0.043 C 
BRANCH   7   9
HETATM    9  C   UNL     1     -21.282  -5.932  -4.933  1.00  0.00     0.037 C 
BRANCH   9  10
HETATM   10  C   UNL     1     -20.137  -5.276  -5.678  1.00  0.00     0.031 C 
BRANCH  10  11
HETATM   11  C   UNL     1     -20.535  -4.700  -6.977  1.00  0.00    -0.024 C 
HETATM   12  C   UNL     1     -19.649  -4.174  -7.827  1.00  0.00    -0.087 C 
HETATM   13  C   UNL     1     -18.196  -4.147  -7.489  1.00  0.00     0.043 C 
BRANCH  12  14
HETATM   14  C   UNL     1     -20.088  -3.594  -9.147  1.00  0.00     0.037 C 
BRANCH  14  15
HETATM   15  C   UNL     1     -20.970  -4.593  -9.901  1.00  0.00     0.031 C 
BRANCH  15  16
HETATM   16  C   UNL     1     -22.191  -4.019 -10.490  1.00  0.00    -0.024 C 
HETATM   17  C   UNL     1     -23.356  -3.941  -9.836  1.00  0.00    -0.087 C 
HETATM   18  C   UNL     1     -23.467  -4.454  -8.433  1.00  0.00     0.043 C 
BRANCH  17  19
HETATM   19  C   UNL     1     -24.586  -3.338 -10.488  1.00  0.00     0.037 C 
BRANCH  19  20
HETATM   20  C   UNL     1     -24.329  -2.987 -11.939  1.00  0.00     0.031 C 
BRANCH  20  21
HETATM   21  C   UNL     1     -24.531  -4.125 -12.852  1.00  0.00    -0.024 C 
HETATM   22  C   UNL     1     -24.013  -4.149 -14.093  1.00  0.00    -0.087 C 
HETATM   23  C   UNL     1     -23.189  -3.004 -14.633  1.00  0.00     0.043 C 
BRANCH  22  24
HETATM   24  C   UNL     1     -24.223  -5.317 -15.023  1.00  0.00     0.037 C 
BRANCH  24  25
HETATM   25  C   UNL     1     -25.654  -5.816 -14.996  1.00  0.00     0.031 C 
BRANCH  25  26
HETATM   26  C   UNL     1     -26.223  -6.026 -16.338  1.00  0.00    -0.024 C 
HETATM   27  C   UNL     1     -27.470  -6.494 -16.531  1.00  0.00    -0.087 C 
HETATM   28  C   UNL     1     -28.383  -6.841 -15.365  1.00  0.00     0.043 C 
BRANCH  27  29
HETATM   29  C   UNL     1     -28.019  -6.695 -17.917  1.00  0.00     0.037 C 
BRANCH  29  30
HETATM   30  C   UNL     1     -27.201  -5.936 -18.947  1.00  0.00     0.031 C 
BRANCH  30  31
HETATM   31  C   UNL     1     -26.768  -6.729 -20.107  1.00  0.00    -0.024 C 
HETATM   32  C   UNL     1     -25.528  -7.239 -20.244  1.00  0.00    -0.091 C 
HETATM   33  C   UNL     1     -24.459  -7.035 -19.201  1.00  0.00     0.042 C 
HETATM   34  C   UNL     1     -25.136  -8.040 -21.446  1.00  0.00     0.042 C 
ENDBRANCH  30  31
ENDBRANCH  29  30
ENDBRANCH  27  29
ENDBRANCH  25  26
ENDBRANCH  24  25
ENDBRANCH  22  24
ENDBRANCH  20  21
ENDBRANCH  19  20
ENDBRANCH  17  19
ENDBRANCH  15  16
ENDBRANCH  14  15
ENDBRANCH  12  14
ENDBRANCH  10  11
ENDBRANCH   9  10
ENDBRANCH   7   9
ENDBRANCH   5   6
ENDBRANCH   4   5
ENDBRANCH   2   4
BRANCH   1  35
HETATM   35  C   UNL     1     -22.694 -13.258  -5.231  1.00  0.00     0.031 C 
BRANCH  35  36
HETATM   36  C   UNL     1     -22.452 -14.570  -4.485  1.00  0.00     0.037 C 
BRANCH  36  37
HETATM   37  C   UNL     1     -23.417 -14.742  -3.330  1.00  0.00    -0.087 C 
HETATM   38  C   UNL     1     -23.338 -13.960  -2.246  1.00  0.00    -0.024 C 
HETATM   39  C   UNL     1     -24.468 -15.806  -3.447  1.00  0.00     0.043 C 
BRANCH  38  40
HETATM   40  C   UNL     1     -24.285 -14.114  -1.111  1.00  0.00     0.031 C 
BRANCH  40  41
HETATM   41  C   UNL     1     -23.640 -13.775   0.227  1.00  0.00     0.037 C 
BRANCH  41  42
HETATM   42  C   UNL     1     -23.061 -12.386   0.200  1.00  0.00    -0.087 C 
HETATM   43  C   UNL     1     -21.778 -12.159   0.465  1.00  0.00    -0.024 C 
HETATM   44  C   UNL     1     -23.954 -11.233  -0.173  1.00  0.00     0.043 C 
BRANCH  43  45
HETATM   45  C   UNL     1     -21.177 -10.787   0.432  1.00  0.00     0.031 C 
BRANCH  45  46
HETATM   46  C   UNL     1     -20.232 -10.600  -0.729  1.00  0.00     0.037 C 
BRANCH  46  47
HETATM   47  C   UNL     1     -19.212 -11.722  -0.762  1.00  0.00    -0.087 C 
HETATM   48  C   UNL     1     -19.103 -12.490  -1.841  1.00  0.00    -0.020 C 
HETATM   49  C   UNL     1     -18.338 -11.976   0.392  1.00  0.00     0.043 C 
BRANCH  48  50
HETATM   50  C   UNL     1     -18.149 -13.623  -1.985  1.00  0.00     0.071 C 
BRANCH  50  51
HETATM   51  C   UNL     1     -17.121 -13.429  -3.045  1.00  0.00     0.008 A 
HETATM   52  C   UNL     1     -15.915 -12.942  -2.751  1.00  0.00     0.002 A 
HETATM   53  C   UNL     1     -15.510 -12.564  -1.356  1.00  0.00     0.053 C 
HETATM   54  C   UNL     1     -14.922 -12.781  -3.824  1.00  0.00     0.214 A 
HETATM   55  C   UNL     1     -15.301 -13.082  -5.236  1.00  0.00     0.156 A 
HETATM   56  O   UNL     1     -13.779 -12.393  -3.560  1.00  0.00    -0.285 OA
HETATM   57  C   UNL     1     -16.522 -13.552  -5.536  1.00  0.00     0.156 A 
HETATM   58  C   UNL     1     -17.455 -13.786  -4.427  1.00  0.00     0.215 A 
HETATM   59  O   UNL     1     -18.547 -14.294  -4.759  1.00  0.00    -0.285 OA
BRANCH  55  60
HETATM   60  O   UNL     1     -14.349 -12.876  -6.220  1.00  0.00    -0.350 OA
HETATM   61  C   UNL     1     -13.315 -13.855  -6.391  1.00  0.00     0.210 C 
ENDBRANCH  55  60
BRANCH  57  62
HETATM   62  O   UNL     1     -16.849 -13.787  -6.881  1.00  0.00    -0.350 OA
HETATM   63  C   UNL     1     -17.433 -12.763  -7.669  1.00  0.00     0.210 C 
ENDBRANCH  57  62
ENDBRANCH  50  51
ENDBRANCH  48  50
ENDBRANCH  46  47
ENDBRANCH  45  46
ENDBRANCH  43  45
ENDBRANCH  41  42
ENDBRANCH  40  41
ENDBRANCH  38  40
ENDBRANCH  36  37
ENDBRANCH  35  36
ENDBRANCH   1  35
TORSDOF 31
ENDMDL
