MODEL 1
REMARK VINA RESULT:      -5.9      0.000      0.000
REMARK  8 active torsions:
REMARK  status: ('A' for Active; 'I' for Inactive)
REMARK    1  A    between atoms: C_2  and  C_3 
REMARK    2  A    between atoms: C_3  and  C_4 
REMARK    3  A    between atoms: C_4  and  C_5 
REMARK    4  A    between atoms: C_5  and  C_6 
REMARK    5  A    between atoms: C_6  and  C_7 
REMARK    6  A    between atoms: C_7  and  C_8 
REMARK    7  A    between atoms: C_8  and  C_9 
REMARK    8  A    between atoms: C_9  and  C_10 
ROOT
HETATM    1  C   UNL     1     -36.590  -0.379 -10.472  1.00  0.00     0.000 C 
ENDROOT
BRANCH   1   2
HETATM    2  C   UNL     1     -37.332  -0.198  -9.151  1.00  0.00     0.000 C 
BRANCH   2   3
HETATM    3  C   UNL     1     -37.464   1.284  -8.797  1.00  0.00     0.000 C 
BRANCH   3   4
HETATM    4  C   UNL     1     -37.137   1.525  -7.326  1.00  0.00    -0.000 C 
BRANCH   4   5
HETATM    5  C   UNL     1     -37.511   0.317  -6.469  1.00  0.00    -0.005 C 
HETATM    6  C   UNL     1     -37.115   0.532  -5.018  1.00  0.00     0.005 C 
ENDBRANCH   4   5
ENDBRANCH   3   4
ENDBRANCH   2   3
ENDBRANCH   1   2
BRANCH   1   7
HETATM    7  C   UNL     1     -35.940  -1.759 -10.561  1.00  0.00     0.000 C 
BRANCH   7   8
HETATM    8  C   UNL     1     -34.688  -1.702 -11.436  1.00  0.00     0.000 C 
BRANCH   8   9
HETATM    9  C   UNL     1     -33.504  -2.409 -10.774  1.00  0.00     0.004 C 
BRANCH   9  10
HETATM   10  C   UNL     1     -33.245  -3.815 -11.343  1.00  0.00    -0.023 C 
HETATM   11  C   UNL     1     -33.940  -4.910 -10.533  1.00  0.00     0.009 C 
HETATM   12  C   UNL     1     -33.710  -3.876 -12.800  1.00  0.00     0.009 C 
ENDBRANCH   9  10
ENDBRANCH   8   9
ENDBRANCH   7   8
ENDBRANCH   1   7
TORSDOF 8
ENDMDL
MODEL 2
REMARK VINA RESULT:      -5.7     12.462     14.623
REMARK  8 active torsions:
REMARK  status: ('A' for Active; 'I' for Inactive)
REMARK    1  A    between atoms: C_2  and  C_3 
REMARK    2  A    between atoms: C_3  and  C_4 
REMARK    3  A    between atoms: C_4  and  C_5 
REMARK    4  A    between atoms: C_5  and  C_6 
REMARK    5  A    between atoms: C_6  and  C_7 
REMARK    6  A    between atoms: C_7  and  C_8 
REMARK    7  A    between atoms: C_8  and  C_9 
REMARK    8  A    between atoms: C_9  and  C_10 
ROOT
HETATM    1  C   UNL     1     -23.078  -4.275  -7.922  1.00  0.00     0.000 C 
ENDROOT
BRANCH   1   2
HETATM    2  C   UNL     1     -21.656  -3.729  -7.824  1.00  0.00     0.000 C 
BRANCH   2   3
HETATM    3  C   UNL     1     -20.629  -4.849  -7.982  1.00  0.00     0.000 C 
BRANCH   3   4
HETATM    4  C   UNL     1     -19.594  -4.804  -6.861  1.00  0.00    -0.000 C 
BRANCH   4   5
HETATM    5  C   UNL     1     -20.264  -4.778  -5.488  1.00  0.00    -0.005 C 
HETATM    6  C   UNL     1     -20.912  -6.115  -5.169  1.00  0.00     0.005 C 
ENDBRANCH   4   5
ENDBRANCH   3   4
ENDBRANCH   2   3
ENDBRANCH   1   2
BRANCH   1   7
HETATM    7  C   UNL     1     -23.820  -3.684  -9.120  1.00  0.00     0.000 C 
BRANCH   7   8
HETATM    8  C   UNL     1     -24.077  -4.762 -10.172  1.00  0.00     0.000 C 
BRANCH   8   9
HETATM    9  C   UNL     1     -23.041  -4.713 -11.296  1.00  0.00     0.004 C 
BRANCH   9  10
HETATM   10  C   UNL     1     -22.428  -3.316 -11.492  1.00  0.00    -0.023 C 
HETATM   11  C   UNL     1     -20.901  -3.330 -11.401  1.00  0.00     0.009 C 
HETATM   12  C   UNL     1     -22.859  -2.748 -12.846  1.00  0.00     0.009 C 
ENDBRANCH   9  10
ENDBRANCH   8   9
ENDBRANCH   7   8
ENDBRANCH   1   7
TORSDOF 8
ENDMDL
MODEL 3
REMARK VINA RESULT:      -5.6      3.760      6.219
REMARK  8 active torsions:
REMARK  status: ('A' for Active; 'I' for Inactive)
REMARK    1  A    between atoms: C_2  and  C_3 
REMARK    2  A    between atoms: C_3  and  C_4 
REMARK    3  A    between atoms: C_4  and  C_5 
REMARK    4  A    between atoms: C_5  and  C_6 
REMARK    5  A    between atoms: C_6  and  C_7 
REMARK    6  A    between atoms: C_7  and  C_8 
REMARK    7  A    between atoms: C_8  and  C_9 
REMARK    8  A    between atoms: C_9  and  C_10 
ROOT
HETATM    1  C   UNL     1     -34.612  -2.118 -12.142  1.00  0.00     0.000 C 
ENDROOT
BRANCH   1   2
HETATM    2  C   UNL     1     -33.479  -2.443 -11.172  1.00  0.00     0.000 C 
BRANCH   2   3
HETATM    3  C   UNL     1     -33.147  -3.935 -11.200  1.00  0.00     0.000 C 
BRANCH   3   4
HETATM    4  C   UNL     1     -34.240  -4.750 -10.514  1.00  0.00    -0.000 C 
BRANCH   4   5
HETATM    5  C   UNL     1     -34.173  -6.221 -10.920  1.00  0.00    -0.005 C 
HETATM    6  C   UNL     1     -34.760  -7.115  -9.842  1.00  0.00     0.005 C 
ENDBRANCH   4   5
ENDBRANCH   3   4
ENDBRANCH   2   3
ENDBRANCH   1   2
BRANCH   1   7
HETATM    7  C   UNL     1     -34.718  -0.614 -12.390  1.00  0.00     0.000 C 
BRANCH   7   8
HETATM    8  C   UNL     1     -36.183  -0.197 -12.509  1.00  0.00     0.000 C 
BRANCH   8   9
HETATM    9  C   UNL     1     -36.674  -0.262 -13.956  1.00  0.00     0.004 C 
BRANCH   9  10
HETATM   10  C   UNL     1     -35.558  -0.006 -14.985  1.00  0.00    -0.023 C 
HETATM   11  C   UNL     1     -35.675  -0.912 -16.211  1.00  0.00     0.009 C 
HETATM   12  C   UNL     1     -35.586   1.461 -15.422  1.00  0.00     0.009 C 
ENDBRANCH   9  10
ENDBRANCH   8   9
ENDBRANCH   7   8
ENDBRANCH   1   7
TORSDOF 8
ENDMDL
MODEL 4
REMARK VINA RESULT:      -5.6     13.760     15.830
REMARK  8 active torsions:
REMARK  status: ('A' for Active; 'I' for Inactive)
REMARK    1  A    between atoms: C_2  and  C_3 
REMARK    2  A    between atoms: C_3  and  C_4 
REMARK    3  A    between atoms: C_4  and  C_5 
REMARK    4  A    between atoms: C_5  and  C_6 
REMARK    5  A    between atoms: C_6  and  C_7 
REMARK    6  A    between atoms: C_7  and  C_8 
REMARK    7  A    between atoms: C_8  and  C_9 
REMARK    8  A    between atoms: C_9  and  C_10 
ROOT
HETATM    1  C   UNL     1     -20.400  -4.875  -5.548  1.00  0.00     0.000 C 
ENDROOT
BRANCH   1   2
HETATM    2  C   UNL     1     -20.743  -6.359  -5.468  1.00  0.00     0.000 C 
BRANCH   2   3
HETATM    3  C   UNL     1     -21.981  -6.587  -4.600  1.00  0.00     0.000 C 
BRANCH   3   4
HETATM    4  C   UNL     1     -21.593  -7.114  -3.222  1.00  0.00    -0.000 C 
BRANCH   4   5
HETATM    5  C   UNL     1     -22.053  -6.167  -2.115  1.00  0.00    -0.005 C 
HETATM    6  C   UNL     1     -22.376  -6.929  -0.841  1.00  0.00     0.005 C 
ENDBRANCH   4   5
ENDBRANCH   3   4
ENDBRANCH   2   3
ENDBRANCH   1   2
BRANCH   1   7
HETATM    7  C   UNL     1     -19.672  -4.541  -6.850  1.00  0.00     0.000 C 
BRANCH   7   8
HETATM    8  C   UNL     1     -20.323  -5.269  -8.025  1.00  0.00     0.000 C 
BRANCH   8   9
HETATM    9  C   UNL     1     -20.164  -4.489  -9.331  1.00  0.00     0.004 C 
BRANCH   9  10
HETATM   10  C   UNL     1     -21.495  -4.277 -10.074  1.00  0.00    -0.023 C 
HETATM   11  C   UNL     1     -22.576  -3.675  -9.175  1.00  0.00     0.009 C 
HETATM   12  C   UNL     1     -21.270  -3.373 -11.288  1.00  0.00     0.009 C 
ENDBRANCH   9  10
ENDBRANCH   8   9
ENDBRANCH   7   8
ENDBRANCH   1   7
TORSDOF 8
ENDMDL
MODEL 5
REMARK VINA RESULT:      -5.5     12.030     14.833
REMARK  8 active torsions:
REMARK  status: ('A' for Active; 'I' for Inactive)
REMARK    1  A    between atoms: C_2  and  C_3 
REMARK    2  A    between atoms: C_3  and  C_4 
REMARK    3  A    between atoms: C_4  and  C_5 
REMARK    4  A    between atoms: C_5  and  C_6 
REMARK    5  A    between atoms: C_6  and  C_7 
REMARK    6  A    between atoms: C_7  and  C_8 
REMARK    7  A    between atoms: C_8  and  C_9 
REMARK    8  A    between atoms: C_9  and  C_10 
ROOT
HETATM    1  C   UNL     1     -20.506  -4.920  -9.226  1.00  0.00     0.000 C 
ENDROOT
BRANCH   1   2
HETATM    2  C   UNL     1     -20.160  -3.819  -8.226  1.00  0.00     0.000 C 
BRANCH   2   3
HETATM    3  C   UNL     1     -21.296  -3.615  -7.224  1.00  0.00     0.000 C 
BRANCH   3   4
HETATM    4  C   UNL     1     -21.912  -4.951  -6.817  1.00  0.00    -0.000 C 
BRANCH   4   5
HETATM    5  C   UNL     1     -21.184  -5.557  -5.619  1.00  0.00    -0.005 C 
HETATM    6  C   UNL     1     -21.062  -7.065  -5.757  1.00  0.00     0.005 C 
ENDBRANCH   4   5
ENDBRANCH   3   4
ENDBRANCH   2   3
ENDBRANCH   1   2
BRANCH   1   7
HETATM    7  C   UNL     1     -20.013  -4.572 -10.630  1.00  0.00     0.000 C 
BRANCH   7   8
HETATM    8  C   UNL     1     -20.969  -3.586 -11.300  1.00  0.00     0.000 C 
BRANCH   8   9
HETATM    9  C   UNL     1     -22.369  -4.179 -11.461  1.00  0.00     0.004 C 
BRANCH   9  10
HETATM   10  C   UNL     1     -23.491  -3.156 -11.210  1.00  0.00    -0.023 C 
HETATM   11  C   UNL     1     -24.442  -3.027 -12.402  1.00  0.00     0.009 C 
HETATM   12  C   UNL     1     -24.280  -3.551  -9.960  1.00  0.00     0.009 C 
ENDBRANCH   9  10
ENDBRANCH   8   9
ENDBRANCH   7   8
ENDBRANCH   1   7
TORSDOF 8
ENDMDL
MODEL 6
REMARK VINA RESULT:      -5.5     14.495     16.457
REMARK  8 active torsions:
REMARK  status: ('A' for Active; 'I' for Inactive)
REMARK    1  A    between atoms: C_2  and  C_3 
REMARK    2  A    between atoms: C_3  and  C_4 
REMARK    3  A    between atoms: C_4  and  C_5 
REMARK    4  A    between atoms: C_5  and  C_6 
REMARK    5  A    between atoms: C_6  and  C_7 
REMARK    6  A    between atoms: C_7  and  C_8 
REMARK    7  A    between atoms: C_8  and  C_9 
REMARK    8  A    between atoms: C_9  and  C_10 
ROOT
HETATM    1  C   UNL     1     -21.744  -7.010  -4.148  1.00  0.00     0.000 C 
ENDROOT
BRANCH   1   2
HETATM    2  C   UNL     1     -21.431  -6.031  -3.020  1.00  0.00     0.000 C 
BRANCH   2   3
HETATM    3  C   UNL     1     -22.098  -6.469  -1.716  1.00  0.00     0.000 C 
BRANCH   3   4
HETATM    4  C   UNL     1     -21.415  -7.708  -1.144  1.00  0.00    -0.000 C 
BRANCH   4   5
HETATM    5  C   UNL     1     -22.437  -8.707  -0.605  1.00  0.00    -0.005 C 
HETATM    6  C   UNL     1     -23.186  -8.135   0.587  1.00  0.00     0.005 C 
ENDBRANCH   4   5
ENDBRANCH   3   4
ENDBRANCH   2   3
ENDBRANCH   1   2
BRANCH   1   7
HETATM    7  C   UNL     1     -20.900  -6.719  -5.389  1.00  0.00     0.000 C 
BRANCH   7   8
HETATM    8  C   UNL     1     -20.401  -5.275  -5.366  1.00  0.00     0.000 C 
BRANCH   8   9
HETATM    9  C   UNL     1     -19.800  -4.864  -6.711  1.00  0.00     0.004 C 
BRANCH   9  10
HETATM   10  C   UNL     1     -20.808  -4.940  -7.871  1.00  0.00    -0.023 C 
HETATM   11  C   UNL     1     -21.983  -3.978  -7.688  1.00  0.00     0.009 C 
HETATM   12  C   UNL     1     -20.096  -4.641  -9.193  1.00  0.00     0.009 C 
ENDBRANCH   9  10
ENDBRANCH   8   9
ENDBRANCH   7   8
ENDBRANCH   1   7
TORSDOF 8
ENDMDL
MODEL 7
REMARK VINA RESULT:      -5.5     13.858     16.042
REMARK  8 active torsions:
REMARK  status: ('A' for Active; 'I' for Inactive)
REMARK    1  A    between atoms: C_2  and  C_3 
REMARK    2  A    between atoms: C_3  and  C_4 
REMARK    3  A    between atoms: C_4  and  C_5 
REMARK    4  A    between atoms: C_5  and  C_6 
REMARK    5  A    between atoms: C_6  and  C_7 
REMARK    6  A    between atoms: C_7  and  C_8 
REMARK    7  A    between atoms: C_8  and  C_9 
REMARK    8  A    between atoms: C_9  and  C_10 
ROOT
HETATM    1  C   UNL     1     -20.903  -7.017  -5.258  1.00  0.00     0.000 C 
ENDROOT
BRANCH   1   2
HETATM    2  C   UNL     1     -21.193  -7.371  -3.802  1.00  0.00     0.000 C 
BRANCH   2   3
HETATM    3  C   UNL     1     -21.348  -6.110  -2.953  1.00  0.00     0.000 C 
BRANCH   3   4
HETATM    4  C   UNL     1     -22.257  -6.366  -1.755  1.00  0.00    -0.000 C 
BRANCH   4   5
HETATM    5  C   UNL     1     -21.989  -7.737  -1.136  1.00  0.00    -0.005 C 
HETATM    6  C   UNL     1     -22.705  -7.887   0.195  1.00  0.00     0.005 C 
ENDBRANCH   4   5
ENDBRANCH   3   4
ENDBRANCH   2   3
ENDBRANCH   1   2
BRANCH   1   7
HETATM    7  C   UNL     1     -21.483  -5.651  -5.624  1.00  0.00     0.000 C 
BRANCH   7   8
HETATM    8  C   UNL     1     -20.380  -4.725  -6.134  1.00  0.00     0.000 C 
BRANCH   8   9
HETATM    9  C   UNL     1     -20.891  -3.788  -7.230  1.00  0.00     0.004 C 
BRANCH   9  10
HETATM   10  C   UNL     1     -21.428  -4.536  -8.462  1.00  0.00    -0.023 C 
HETATM   11  C   UNL     1     -22.794  -4.015  -8.912  1.00  0.00     0.009 C 
HETATM   12  C   UNL     1     -20.427  -4.421  -9.614  1.00  0.00     0.009 C 
ENDBRANCH   9  10
ENDBRANCH   8   9
ENDBRANCH   7   8
ENDBRANCH   1   7
TORSDOF 8
ENDMDL
MODEL 8
REMARK VINA RESULT:      -5.4      3.717      5.331
REMARK  8 active torsions:
REMARK  status: ('A' for Active; 'I' for Inactive)
REMARK    1  A    between atoms: C_2  and  C_3 
REMARK    2  A    between atoms: C_3  and  C_4 
REMARK    3  A    between atoms: C_4  and  C_5 
REMARK    4  A    between atoms: C_5  and  C_6 
REMARK    5  A    between atoms: C_6  and  C_7 
REMARK    6  A    between atoms: C_7  and  C_8 
REMARK    7  A    between atoms: C_8  and  C_9 
REMARK    8  A    between atoms: C_9  and  C_10 
ROOT
HETATM    1  C   UNL     1     -34.921  -1.842 -12.578  1.00  0.00     0.000 C 
ENDROOT
BRANCH   1   2
HETATM    2  C   UNL     1     -35.821  -0.626 -12.781  1.00  0.00     0.000 C 
BRANCH   2   3
HETATM    3  C   UNL     1     -34.994   0.615 -13.116  1.00  0.00     0.000 C 
BRANCH   3   4
HETATM    4  C   UNL     1     -34.810   0.758 -14.624  1.00  0.00    -0.000 C 
BRANCH   4   5
HETATM    5  C   UNL     1     -36.118   0.502 -15.370  1.00  0.00    -0.005 C 
HETATM    6  C   UNL     1     -35.963  -0.622 -16.380  1.00  0.00     0.005 C 
ENDBRANCH   4   5
ENDBRANCH   3   4
ENDBRANCH   2   3
ENDBRANCH   1   2
BRANCH   1   7
HETATM    7  C   UNL     1     -33.939  -1.623 -11.428  1.00  0.00     0.000 C 
BRANCH   7   8
HETATM    8  C   UNL     1     -34.259  -2.566 -10.269  1.00  0.00     0.000 C 
BRANCH   8   9
HETATM    9  C   UNL     1     -34.778  -3.915 -10.765  1.00  0.00     0.004 C 
BRANCH   9  10
HETATM   10  C   UNL     1     -33.726  -5.035 -10.684  1.00  0.00    -0.023 C 
HETATM   11  C   UNL     1     -34.353  -6.430 -10.726  1.00  0.00     0.009 C 
HETATM   12  C   UNL     1     -32.723  -4.885 -11.829  1.00  0.00     0.009 C 
ENDBRANCH   9  10
ENDBRANCH   8   9
ENDBRANCH   7   8
ENDBRANCH   1   7
TORSDOF 8
ENDMDL
MODEL 9
REMARK VINA RESULT:      -5.3     15.736     17.462
REMARK  8 active torsions:
REMARK  status: ('A' for Active; 'I' for Inactive)
REMARK    1  A    between atoms: C_2  and  C_3 
REMARK    2  A    between atoms: C_3  and  C_4 
REMARK    3  A    between atoms: C_4  and  C_5 
REMARK    4  A    between atoms: C_5  and  C_6 
REMARK    5  A    between atoms: C_6  and  C_7 
REMARK    6  A    between atoms: C_7  and  C_8 
REMARK    7  A    between atoms: C_8  and  C_9 
REMARK    8  A    between atoms: C_9  and  C_10 
ROOT
HETATM    1  C   UNL     1     -21.865  -6.257  -2.522  1.00  0.00     0.000 C 
ENDROOT
BRANCH   1   2
HETATM    2  C   UNL     1     -20.935  -7.337  -3.067  1.00  0.00     0.000 C 
BRANCH   2   3
HETATM    3  C   UNL     1     -20.846  -7.263  -4.592  1.00  0.00     0.000 C 
BRANCH   3   4
HETATM    4  C   UNL     1     -21.395  -5.935  -5.107  1.00  0.00    -0.000 C 
BRANCH   4   5
HETATM    5  C   UNL     1     -20.286  -5.068  -5.699  1.00  0.00    -0.005 C 
HETATM    6  C   UNL     1     -20.836  -4.118  -6.749  1.00  0.00     0.005 C 
ENDBRANCH   4   5
ENDBRANCH   3   4
ENDBRANCH   2   3
ENDBRANCH   1   2
BRANCH   1   7
HETATM    7  C   UNL     1     -22.326  -6.583  -1.102  1.00  0.00     0.000 C 
BRANCH   7   8
HETATM    8  C   UNL     1     -21.769  -7.936  -0.661  1.00  0.00     0.000 C 
BRANCH   8   9
HETATM    9  C   UNL     1     -22.836  -8.789   0.028  1.00  0.00     0.004 C 
BRANCH   9  10
HETATM   10  C   UNL     1     -22.771 -10.274  -0.367  1.00  0.00    -0.023 C 
HETATM   11  C   UNL     1     -24.090 -11.005  -0.111  1.00  0.00     0.009 C 
HETATM   12  C   UNL     1     -22.389 -10.400  -1.844  1.00  0.00     0.009 C 
ENDBRANCH   9  10
ENDBRANCH   8   9
ENDBRANCH   7   8
ENDBRANCH   1   7
TORSDOF 8
ENDMDL
