MODEL 1
REMARK VINA RESULT:      -5.9      0.000      0.000
REMARK  11 active torsions:
REMARK  status: ('A' for Active; 'I' for Inactive)
REMARK    1  A    between atoms: C_1  and  C_2 
REMARK    2  A    between atoms: C_1  and  O_12 
REMARK    3  A    between atoms: C_2  and  C_3 
REMARK    4  A    between atoms: C_2  and  O_11 
REMARK    5  A    between atoms: C_3  and  C_4 
REMARK    6  A    between atoms: C_3  and  O_10 
REMARK    7  A    between atoms: C_4  and  C_5 
REMARK    8  A    between atoms: C_4  and  O_9 
REMARK    9  A    between atoms: C_5  and  C_6 
REMARK   10  A    between atoms: C_5  and  O_8 
REMARK   11  A    between atoms: C_6  and  O_7 
ROOT
HETATM    1  C   UNL     1     -22.814  -2.667 -12.838  1.00  0.00     0.180 C 
ENDROOT
BRANCH   1   2
HETATM    2  C   UNL     1     -23.031  -2.742 -14.380  1.00  0.00     0.173 C 
BRANCH   2   3
HETATM    3  C   UNL     1     -23.550  -1.409 -14.960  1.00  0.00     0.198 C 
BRANCH   3   4
HETATM    4  O   UNL     1     -24.757  -0.970 -14.350  1.00  0.00    -0.398 OA
HETATM    5  H   UNL     1     -24.588  -0.067 -14.009  1.00  0.00     0.209 HD
ENDBRANCH   3   4
ENDBRANCH   2   3
BRANCH   2   6
HETATM    6  O   UNL     1     -23.930  -3.778 -14.769  1.00  0.00    -0.391 OA
HETATM    7  H   UNL     1     -23.740  -4.031 -15.688  1.00  0.00     0.210 HD
ENDBRANCH   2   6
ENDBRANCH   1   2
BRANCH   1   8
HETATM    8  C   UNL     1     -23.888  -3.421 -11.996  1.00  0.00     0.180 C 
BRANCH   8   9
HETATM    9  C   UNL     1     -23.662  -3.336 -10.458  1.00  0.00     0.173 C 
BRANCH   9  10
HETATM   10  C   UNL     1     -24.781  -4.052  -9.679  1.00  0.00     0.198 C 
BRANCH  10  11
HETATM   11  O   UNL     1     -25.966  -3.254  -9.663  1.00  0.00    -0.398 OA
HETATM   12  H   UNL     1     -25.673  -2.325  -9.592  1.00  0.00     0.209 HD
ENDBRANCH  10  11
ENDBRANCH   9  10
BRANCH   9  13
HETATM   13  O   UNL     1     -22.418  -3.899 -10.034  1.00  0.00    -0.391 OA
HETATM   14  H   UNL     1     -22.599  -4.563  -9.343  1.00  0.00     0.210 HD
ENDBRANCH   9  13
ENDBRANCH   8   9
BRANCH   8  15
HETATM   15  O   UNL     1     -25.202  -2.946 -12.289  1.00  0.00    -0.390 OA
HETATM   16  H   UNL     1     -25.133  -2.162 -12.862  1.00  0.00     0.210 HD
ENDBRANCH   8  15
ENDBRANCH   1   8
BRANCH   1  17
HETATM   17  O   UNL     1     -21.493  -3.149 -12.540  1.00  0.00    -0.390 OA
HETATM   18  H   UNL     1     -20.965  -3.104 -13.356  1.00  0.00     0.210 HD
ENDBRANCH   1  17
TORSDOF 11
ENDMDL
MODEL 2
REMARK VINA RESULT:      -5.5      0.787      4.492
REMARK  11 active torsions:
REMARK  status: ('A' for Active; 'I' for Inactive)
REMARK    1  A    between atoms: C_1  and  C_2 
REMARK    2  A    between atoms: C_1  and  O_12 
REMARK    3  A    between atoms: C_2  and  C_3 
REMARK    4  A    between atoms: C_2  and  O_11 
REMARK    5  A    between atoms: C_3  and  C_4 
REMARK    6  A    between atoms: C_3  and  O_10 
REMARK    7  A    between atoms: C_4  and  C_5 
REMARK    8  A    between atoms: C_4  and  O_9 
REMARK    9  A    between atoms: C_5  and  C_6 
REMARK   10  A    between atoms: C_5  and  O_8 
REMARK   11  A    between atoms: C_6  and  O_7 
ROOT
HETATM    1  C   UNL     1     -23.990  -3.031 -12.076  1.00  0.00     0.180 C 
ENDROOT
BRANCH   1   2
HETATM    2  C   UNL     1     -23.881  -3.876 -10.769  1.00  0.00     0.173 C 
BRANCH   2   3
HETATM    3  C   UNL     1     -24.663  -3.241  -9.599  1.00  0.00     0.198 C 
BRANCH   3   4
HETATM    4  O   UNL     1     -26.072  -3.301  -9.776  1.00  0.00    -0.398 OA
HETATM    5  H   UNL     1     -26.300  -4.245  -9.910  1.00  0.00     0.209 HD
ENDBRANCH   3   4
ENDBRANCH   2   3
BRANCH   2   6
HETATM    6  O   UNL     1     -22.536  -4.082 -10.347  1.00  0.00    -0.391 OA
HETATM    7  H   UNL     1     -22.538  -4.633  -9.546  1.00  0.00     0.210 HD
ENDBRANCH   2   6
ENDBRANCH   1   2
BRANCH   1   8
HETATM    8  C   UNL     1     -23.101  -3.541 -13.252  1.00  0.00     0.180 C 
BRANCH   8   9
HETATM    9  C   UNL     1     -23.317  -2.773 -14.588  1.00  0.00     0.173 C 
BRANCH   9  10
HETATM   10  C   UNL     1     -23.444  -1.256 -14.358  1.00  0.00     0.198 C 
BRANCH  10  11
HETATM   11  O   UNL     1     -24.785  -0.827 -14.597  1.00  0.00    -0.398 OA
HETATM   12  H   UNL     1     -24.892   0.024 -14.129  1.00  0.00     0.209 HD
ENDBRANCH  10  11
ENDBRANCH   9  10
BRANCH   9  13
HETATM   13  O   UNL     1     -22.266  -2.975 -15.537  1.00  0.00    -0.391 OA
HETATM   14  H   UNL     1     -21.547  -3.467 -15.100  1.00  0.00     0.210 HD
ENDBRANCH   9  13
ENDBRANCH   8   9
BRANCH   8  15
HETATM   15  O   UNL     1     -21.715  -3.483 -12.913  1.00  0.00    -0.390 OA
HETATM   16  H   UNL     1     -21.625  -3.517 -11.945  1.00  0.00     0.210 HD
ENDBRANCH   8  15
ENDBRANCH   1   8
BRANCH   1  17
HETATM   17  O   UNL     1     -25.372  -2.971 -12.464  1.00  0.00    -0.390 OA
HETATM   18  H   UNL     1     -25.903  -3.372 -11.753  1.00  0.00     0.210 HD
ENDBRANCH   1  17
TORSDOF 11
ENDMDL
MODEL 3
REMARK VINA RESULT:      -5.5      1.495      1.877
REMARK  11 active torsions:
REMARK  status: ('A' for Active; 'I' for Inactive)
REMARK    1  A    between atoms: C_1  and  C_2 
REMARK    2  A    between atoms: C_1  and  O_12 
REMARK    3  A    between atoms: C_2  and  C_3 
REMARK    4  A    between atoms: C_2  and  O_11 
REMARK    5  A    between atoms: C_3  and  C_4 
REMARK    6  A    between atoms: C_3  and  O_10 
REMARK    7  A    between atoms: C_4  and  C_5 
REMARK    8  A    between atoms: C_4  and  O_9 
REMARK    9  A    between atoms: C_5  and  C_6 
REMARK   10  A    between atoms: C_5  and  O_8 
REMARK   11  A    between atoms: C_6  and  O_7 
ROOT
HETATM    1  C   UNL     1     -22.704  -3.002 -12.318  1.00  0.00     0.180 C 
ENDROOT
BRANCH   1   2
HETATM    2  C   UNL     1     -23.699  -2.909 -13.516  1.00  0.00     0.173 C 
BRANCH   2   3
HETATM    3  C   UNL     1     -23.037  -2.312 -14.776  1.00  0.00     0.198 C 
BRANCH   3   4
HETATM    4  O   UNL     1     -22.236  -3.251 -15.481  1.00  0.00    -0.398 OA
HETATM    5  H   UNL     1     -21.383  -3.309 -15.003  1.00  0.00     0.209 HD
ENDBRANCH   3   4
ENDBRANCH   2   3
BRANCH   2   6
HETATM    6  O   UNL     1     -24.864  -2.145 -13.218  1.00  0.00    -0.391 OA
HETATM    7  H   UNL     1     -25.376  -2.020 -14.035  1.00  0.00     0.210 HD
ENDBRANCH   2   6
ENDBRANCH   1   2
BRANCH   1   8
HETATM    8  C   UNL     1     -23.301  -3.650 -11.031  1.00  0.00     0.180 C 
BRANCH   8   9
HETATM    9  C   UNL     1     -22.371  -3.560  -9.786  1.00  0.00     0.173 C 
BRANCH   9  10
HETATM   10  C   UNL     1     -22.843  -4.491  -8.655  1.00  0.00     0.198 C 
BRANCH  10  11
HETATM   11  O   UNL     1     -24.017  -3.964  -8.034  1.00  0.00    -0.398 OA
HETATM   12  H   UNL     1     -24.056  -4.352  -7.139  1.00  0.00     0.209 HD
ENDBRANCH  10  11
ENDBRANCH   9  10
BRANCH   9  13
HETATM   13  O   UNL     1     -21.008  -3.890 -10.070  1.00  0.00    -0.391 OA
HETATM   14  H   UNL     1     -20.994  -4.695 -10.619  1.00  0.00     0.210 HD
ENDBRANCH   9  13
ENDBRANCH   8   9
BRANCH   8  15
HETATM   15  O   UNL     1     -24.563  -3.071 -10.698  1.00  0.00    -0.390 OA
HETATM   16  H   UNL     1     -24.417  -2.321 -10.095  1.00  0.00     0.210 HD
ENDBRANCH   8  15
ENDBRANCH   1   8
BRANCH   1  17
HETATM   17  O   UNL     1     -21.531  -3.708 -12.754  1.00  0.00    -0.390 OA
HETATM   18  H   UNL     1     -21.262  -4.315 -12.042  1.00  0.00     0.210 HD
ENDBRANCH   1  17
TORSDOF 11
ENDMDL
MODEL 4
REMARK VINA RESULT:      -5.4      1.453      4.788
REMARK  11 active torsions:
REMARK  status: ('A' for Active; 'I' for Inactive)
REMARK    1  A    between atoms: C_1  and  C_2 
REMARK    2  A    between atoms: C_1  and  O_12 
REMARK    3  A    between atoms: C_2  and  C_3 
REMARK    4  A    between atoms: C_2  and  O_11 
REMARK    5  A    between atoms: C_3  and  C_4 
REMARK    6  A    between atoms: C_3  and  O_10 
REMARK    7  A    between atoms: C_4  and  C_5 
REMARK    8  A    between atoms: C_4  and  O_9 
REMARK    9  A    between atoms: C_5  and  C_6 
REMARK   10  A    between atoms: C_5  and  O_8 
REMARK   11  A    between atoms: C_6  and  O_7 
ROOT
HETATM    1  C   UNL     1     -24.123  -3.206 -10.986  1.00  0.00     0.180 C 
ENDROOT
BRANCH   1   2
HETATM    2  C   UNL     1     -23.191  -4.277 -10.339  1.00  0.00     0.173 C 
BRANCH   2   3
HETATM    3  C   UNL     1     -22.850  -3.940  -8.871  1.00  0.00     0.198 C 
BRANCH   3   4
HETATM    4  O   UNL     1     -23.972  -4.042  -8.003  1.00  0.00    -0.398 OA
HETATM    5  H   UNL     1     -23.639  -3.895  -7.093  1.00  0.00     0.209 HD
ENDBRANCH   3   4
ENDBRANCH   2   3
BRANCH   2   6
HETATM    6  O   UNL     1     -21.969  -4.459 -11.050  1.00  0.00    -0.391 OA
HETATM    7  H   UNL     1     -21.258  -3.994 -10.577  1.00  0.00     0.210 HD
ENDBRANCH   2   6
ENDBRANCH   1   2
BRANCH   1   8
HETATM    8  C   UNL     1     -24.346  -3.385 -12.520  1.00  0.00     0.180 C 
BRANCH   8   9
HETATM    9  C   UNL     1     -23.694  -2.270 -13.389  1.00  0.00     0.173 C 
BRANCH   9  10
HETATM   10  C   UNL     1     -22.811  -2.862 -14.503  1.00  0.00     0.198 C 
BRANCH  10  11
HETATM   11  O   UNL     1     -22.801  -1.999 -15.641  1.00  0.00    -0.398 OA
HETATM   12  H   UNL     1     -23.521  -1.353 -15.506  1.00  0.00     0.209 HD
ENDBRANCH  10  11
ENDBRANCH   9  10
BRANCH   9  13
HETATM   13  O   UNL     1     -24.646  -1.405 -14.013  1.00  0.00    -0.391 OA
HETATM   14  H   UNL     1     -25.364  -1.952 -14.381  1.00  0.00     0.210 HD
ENDBRANCH   9  13
ENDBRANCH   8   9
BRANCH   8  15
HETATM   15  O   UNL     1     -23.863  -4.652 -12.967  1.00  0.00    -0.390 OA
HETATM   16  H   UNL     1     -23.735  -5.231 -12.196  1.00  0.00     0.210 HD
ENDBRANCH   8  15
ENDBRANCH   1   8
BRANCH   1  17
HETATM   17  O   UNL     1     -25.374  -3.205 -10.280  1.00  0.00    -0.390 OA
HETATM   18  H   UNL     1     -25.424  -2.387  -9.755  1.00  0.00     0.210 HD
ENDBRANCH   1  17
TORSDOF 11
ENDMDL
MODEL 5
REMARK VINA RESULT:      -5.4      1.588      2.092
REMARK  11 active torsions:
REMARK  status: ('A' for Active; 'I' for Inactive)
REMARK    1  A    between atoms: C_1  and  C_2 
REMARK    2  A    between atoms: C_1  and  O_12 
REMARK    3  A    between atoms: C_2  and  C_3 
REMARK    4  A    between atoms: C_2  and  O_11 
REMARK    5  A    between atoms: C_3  and  C_4 
REMARK    6  A    between atoms: C_3  and  O_10 
REMARK    7  A    between atoms: C_4  and  C_5 
REMARK    8  A    between atoms: C_4  and  O_9 
REMARK    9  A    between atoms: C_5  and  C_6 
REMARK   10  A    between atoms: C_5  and  O_8 
REMARK   11  A    between atoms: C_6  and  O_7 
ROOT
HETATM    1  C   UNL     1     -22.944  -3.224 -12.144  1.00  0.00     0.180 C 
ENDROOT
BRANCH   1   2
HETATM    2  C   UNL     1     -23.817  -3.028 -13.422  1.00  0.00     0.173 C 
BRANCH   2   3
HETATM    3  C   UNL     1     -23.035  -2.341 -14.562  1.00  0.00     0.198 C 
BRANCH   3   4
HETATM    4  O   UNL     1     -22.299  -3.257 -15.362  1.00  0.00    -0.398 OA
HETATM    5  H   UNL     1     -22.813  -4.091 -15.379  1.00  0.00     0.209 HD
ENDBRANCH   3   4
ENDBRANCH   2   3
BRANCH   2   6
HETATM    6  O   UNL     1     -25.004  -2.277 -13.180  1.00  0.00    -0.391 OA
HETATM    7  H   UNL     1     -24.883  -1.750 -12.372  1.00  0.00     0.210 HD
ENDBRANCH   2   6
ENDBRANCH   1   2
BRANCH   1   8
HETATM    8  C   UNL     1     -23.235  -4.539 -11.358  1.00  0.00     0.180 C 
BRANCH   8   9
HETATM    9  C   UNL     1     -24.133  -4.341 -10.103  1.00  0.00     0.173 C 
BRANCH   9  10
HETATM   10  C   UNL     1     -23.301  -3.975  -8.860  1.00  0.00     0.198 C 
BRANCH  10  11
HETATM   11  O   UNL     1     -24.106  -4.051  -7.682  1.00  0.00    -0.398 OA
HETATM   12  H   UNL     1     -24.906  -4.556  -7.925  1.00  0.00     0.209 HD
ENDBRANCH  10  11
ENDBRANCH   9  10
BRANCH   9  13
HETATM   13  O   UNL     1     -25.125  -3.323 -10.268  1.00  0.00    -0.391 OA
HETATM   14  H   UNL     1     -24.906  -2.806 -11.064  1.00  0.00     0.210 HD
ENDBRANCH   9  13
ENDBRANCH   8   9
BRANCH   8  15
HETATM   15  O   UNL     1     -23.839  -5.521 -12.200  1.00  0.00    -0.390 OA
HETATM   16  H   UNL     1     -24.563  -5.106 -12.700  1.00  0.00     0.210 HD
ENDBRANCH   8  15
ENDBRANCH   1   8
BRANCH   1  17
HETATM   17  O   UNL     1     -21.560  -3.144 -12.523  1.00  0.00    -0.390 OA
HETATM   18  H   UNL     1     -21.052  -3.732 -11.936  1.00  0.00     0.210 HD
ENDBRANCH   1  17
TORSDOF 11
ENDMDL
MODEL 6
REMARK VINA RESULT:      -5.4      1.153      4.504
REMARK  11 active torsions:
REMARK  status: ('A' for Active; 'I' for Inactive)
REMARK    1  A    between atoms: C_1  and  C_2 
REMARK    2  A    between atoms: C_1  and  O_12 
REMARK    3  A    between atoms: C_2  and  C_3 
REMARK    4  A    between atoms: C_2  and  O_11 
REMARK    5  A    between atoms: C_3  and  C_4 
REMARK    6  A    between atoms: C_3  and  O_10 
REMARK    7  A    between atoms: C_4  and  C_5 
REMARK    8  A    between atoms: C_4  and  O_9 
REMARK    9  A    between atoms: C_5  and  C_6 
REMARK   10  A    between atoms: C_5  and  O_8 
REMARK   11  A    between atoms: C_6  and  O_7 
ROOT
HETATM    1  C   UNL     1     -23.283  -3.668 -10.931  1.00  0.00     0.180 C 
ENDROOT
BRANCH   1   2
HETATM    2  C   UNL     1     -24.064  -3.611  -9.582  1.00  0.00     0.173 C 
BRANCH   2   3
HETATM    3  C   UNL     1     -23.249  -4.206  -8.413  1.00  0.00     0.198 C 
BRANCH   3   4
HETATM    4  O   UNL     1     -22.318  -3.285  -7.860  1.00  0.00    -0.398 OA
HETATM    5  H   UNL     1     -22.121  -3.594  -6.951  1.00  0.00     0.209 HD
ENDBRANCH   3   4
ENDBRANCH   2   3
BRANCH   2   6
HETATM    6  O   UNL     1     -25.322  -4.279  -9.634  1.00  0.00    -0.391 OA
HETATM    7  H   UNL     1     -25.258  -5.109  -9.133  1.00  0.00     0.210 HD
ENDBRANCH   2   6
ENDBRANCH   1   2
BRANCH   1   8
HETATM    8  C   UNL     1     -23.913  -2.820 -12.079  1.00  0.00     0.180 C 
BRANCH   8   9
HETATM    9  C   UNL     1     -23.328  -3.127 -13.488  1.00  0.00     0.173 C 
BRANCH   9  10
HETATM   10  C   UNL     1     -23.466  -1.922 -14.436  1.00  0.00     0.198 C 
BRANCH  10  11
HETATM   11  O   UNL     1     -24.742  -1.302 -14.270  1.00  0.00    -0.398 OA
HETATM   12  H   UNL     1     -24.603  -0.531 -13.687  1.00  0.00     0.209 HD
ENDBRANCH  10  11
ENDBRANCH   9  10
BRANCH   9  13
HETATM   13  O   UNL     1     -21.946  -3.495 -13.462  1.00  0.00    -0.391 OA
HETATM   14  H   UNL     1     -21.686  -3.650 -12.536  1.00  0.00     0.210 HD
ENDBRANCH   9  13
ENDBRANCH   8   9
BRANCH   8  15
HETATM   15  O   UNL     1     -25.331  -2.989 -12.128  1.00  0.00    -0.390 OA
HETATM   16  H   UNL     1     -25.561  -3.491 -12.929  1.00  0.00     0.210 HD
ENDBRANCH   8  15
ENDBRANCH   1   8
BRANCH   1  17
HETATM   17  O   UNL     1     -21.923  -3.275 -10.687  1.00  0.00    -0.390 OA
HETATM   18  H   UNL     1     -21.869  -2.922  -9.781  1.00  0.00     0.210 HD
ENDBRANCH   1  17
TORSDOF 11
ENDMDL
MODEL 7
REMARK VINA RESULT:      -5.3      1.354      4.394
REMARK  11 active torsions:
REMARK  status: ('A' for Active; 'I' for Inactive)
REMARK    1  A    between atoms: C_1  and  C_2 
REMARK    2  A    between atoms: C_1  and  O_12 
REMARK    3  A    between atoms: C_2  and  C_3 
REMARK    4  A    between atoms: C_2  and  O_11 
REMARK    5  A    between atoms: C_3  and  C_4 
REMARK    6  A    between atoms: C_3  and  O_10 
REMARK    7  A    between atoms: C_4  and  C_5 
REMARK    8  A    between atoms: C_4  and  O_9 
REMARK    9  A    between atoms: C_5  and  C_6 
REMARK   10  A    between atoms: C_5  and  O_8 
REMARK   11  A    between atoms: C_6  and  O_7 
ROOT
HETATM    1  C   UNL     1     -22.833  -3.495 -12.116  1.00  0.00     0.180 C 
ENDROOT
BRANCH   1   2
HETATM    2  C   UNL     1     -23.335  -3.892 -10.693  1.00  0.00     0.173 C 
BRANCH   2   3
HETATM    3  C   UNL     1     -22.222  -3.772  -9.630  1.00  0.00     0.198 C 
BRANCH   3   4
HETATM    4  O   UNL     1     -21.141  -4.667  -9.853  1.00  0.00    -0.398 OA
HETATM    5  H   UNL     1     -20.712  -4.388 -10.689  1.00  0.00     0.209 HD
ENDBRANCH   3   4
ENDBRANCH   2   3
BRANCH   2   6
HETATM    6  O   UNL     1     -23.866  -5.213 -10.636  1.00  0.00    -0.391 OA
HETATM    7  H   UNL     1     -23.645  -5.677 -11.461  1.00  0.00     0.210 HD
ENDBRANCH   2   6
ENDBRANCH   1   2
BRANCH   1   8
HETATM    8  C   UNL     1     -23.831  -2.616 -12.931  1.00  0.00     0.180 C 
BRANCH   8   9
HETATM    9  C   UNL     1     -23.527  -2.564 -14.457  1.00  0.00     0.173 C 
BRANCH   9  10
HETATM   10  C   UNL     1     -23.658  -1.134 -15.013  1.00  0.00     0.198 C 
BRANCH  10  11
HETATM   11  O   UNL     1     -24.918  -0.570 -14.646  1.00  0.00    -0.398 OA
HETATM   12  H   UNL     1     -24.752  -0.002 -13.869  1.00  0.00     0.209 HD
ENDBRANCH  10  11
ENDBRANCH   9  10
BRANCH   9  13
HETATM   13  O   UNL     1     -22.220  -3.035 -14.794  1.00  0.00    -0.391 OA
HETATM   14  H   UNL     1     -22.181  -3.173 -15.758  1.00  0.00     0.210 HD
ENDBRANCH   9  13
ENDBRANCH   8   9
BRANCH   8  15
HETATM   15  O   UNL     1     -25.176  -3.059 -12.750  1.00  0.00    -0.390 OA
HETATM   16  H   UNL     1     -25.285  -3.923 -13.184  1.00  0.00     0.210 HD
ENDBRANCH   8  15
ENDBRANCH   1   8
BRANCH   1  17
HETATM   17  O   UNL     1     -21.560  -2.841 -11.983  1.00  0.00    -0.390 OA
HETATM   18  H   UNL     1     -21.171  -3.108 -11.131  1.00  0.00     0.210 HD
ENDBRANCH   1  17
TORSDOF 11
ENDMDL
MODEL 8
REMARK VINA RESULT:      -5.2      1.629      3.035
REMARK  11 active torsions:
REMARK  status: ('A' for Active; 'I' for Inactive)
REMARK    1  A    between atoms: C_1  and  C_2 
REMARK    2  A    between atoms: C_1  and  O_12 
REMARK    3  A    between atoms: C_2  and  C_3 
REMARK    4  A    between atoms: C_2  and  O_11 
REMARK    5  A    between atoms: C_3  and  C_4 
REMARK    6  A    between atoms: C_3  and  O_10 
REMARK    7  A    between atoms: C_4  and  C_5 
REMARK    8  A    between atoms: C_4  and  O_9 
REMARK    9  A    between atoms: C_5  and  C_6 
REMARK   10  A    between atoms: C_5  and  O_8 
REMARK   11  A    between atoms: C_6  and  O_7 
ROOT
HETATM    1  C   UNL     1     -23.355  -3.644 -11.329  1.00  0.00     0.180 C 
ENDROOT
BRANCH   1   2
HETATM    2  C   UNL     1     -22.617  -2.942 -12.510  1.00  0.00     0.173 C 
BRANCH   2   3
HETATM    3  C   UNL     1     -23.578  -2.580 -13.664  1.00  0.00     0.198 C 
BRANCH   3   4
HETATM    4  O   UNL     1     -23.685  -3.607 -14.641  1.00  0.00    -0.398 OA
HETATM    5  H   UNL     1     -23.557  -4.458 -14.171  1.00  0.00     0.209 HD
ENDBRANCH   3   4
ENDBRANCH   2   3
BRANCH   2   6
HETATM    6  O   UNL     1     -21.551  -3.720 -13.046  1.00  0.00    -0.391 OA
HETATM    7  H   UNL     1     -21.427  -3.483 -13.980  1.00  0.00     0.210 HD
ENDBRANCH   2   6
ENDBRANCH   1   2
BRANCH   1   8
HETATM    8  C   UNL     1     -22.565  -3.648  -9.984  1.00  0.00     0.180 C 
BRANCH   8   9
HETATM    9  C   UNL     1     -23.333  -4.308  -8.801  1.00  0.00     0.173 C 
BRANCH   9  10
HETATM   10  C   UNL     1     -22.468  -4.373  -7.529  1.00  0.00     0.198 C 
BRANCH  10  11
HETATM   11  O   UNL     1     -21.752  -3.150  -7.350  1.00  0.00    -0.398 OA
HETATM   12  H   UNL     1     -22.023  -2.561  -8.081  1.00  0.00     0.209 HD
ENDBRANCH  10  11
ENDBRANCH   9  10
BRANCH   9  13
HETATM   13  O   UNL     1     -24.544  -3.628  -8.460  1.00  0.00    -0.391 OA
HETATM   14  H   UNL     1     -25.263  -4.285  -8.413  1.00  0.00     0.210 HD
ENDBRANCH   9  13
ENDBRANCH   8   9
BRANCH   8  15
HETATM   15  O   UNL     1     -21.304  -4.301 -10.128  1.00  0.00    -0.390 OA
HETATM   16  H   UNL     1     -20.762  -4.119  -9.341  1.00  0.00     0.210 HD
ENDBRANCH   8  15
ENDBRANCH   1   8
BRANCH   1  17
HETATM   17  O   UNL     1     -24.644  -3.029 -11.168  1.00  0.00    -0.390 OA
HETATM   18  H   UNL     1     -24.626  -2.499 -10.352  1.00  0.00     0.210 HD
ENDBRANCH   1  17
TORSDOF 11
ENDMDL
MODEL 9
REMARK VINA RESULT:      -4.6     11.356     12.345
REMARK  11 active torsions:
REMARK  status: ('A' for Active; 'I' for Inactive)
REMARK    1  A    between atoms: C_1  and  C_2 
REMARK    2  A    between atoms: C_1  and  O_12 
REMARK    3  A    between atoms: C_2  and  C_3 
REMARK    4  A    between atoms: C_2  and  O_11 
REMARK    5  A    between atoms: C_3  and  C_4 
REMARK    6  A    between atoms: C_3  and  O_10 
REMARK    7  A    between atoms: C_4  and  C_5 
REMARK    8  A    between atoms: C_4  and  O_9 
REMARK    9  A    between atoms: C_5  and  C_6 
REMARK   10  A    between atoms: C_5  and  O_8 
REMARK   11  A    between atoms: C_6  and  O_7 
ROOT
HETATM    1  C   UNL     1     -35.753   0.349 -14.045  1.00  0.00     0.180 C 
ENDROOT
BRANCH   1   2
HETATM    2  C   UNL     1     -36.699  -0.071 -15.212  1.00  0.00     0.173 C 
BRANCH   2   3
HETATM    3  C   UNL     1     -35.922  -0.675 -16.402  1.00  0.00     0.198 C 
BRANCH   3   4
HETATM    4  O   UNL     1     -35.285  -1.905 -16.082  1.00  0.00    -0.398 OA
HETATM    5  H   UNL     1     -35.997  -2.546 -15.875  1.00  0.00     0.209 HD
ENDBRANCH   3   4
ENDBRANCH   2   3
BRANCH   2   6
HETATM    6  O   UNL     1     -37.496   1.004 -15.700  1.00  0.00    -0.391 OA
HETATM    7  H   UNL     1     -36.923   1.632 -16.173  1.00  0.00     0.210 HD
ENDBRANCH   2   6
ENDBRANCH   1   2
BRANCH   1   8
HETATM    8  C   UNL     1     -35.919  -0.495 -12.743  1.00  0.00     0.180 C 
BRANCH   8   9
HETATM    9  C   UNL     1     -34.786  -1.538 -12.517  1.00  0.00     0.173 C 
BRANCH   9  10
HETATM   10  C   UNL     1     -34.921  -2.235 -11.150  1.00  0.00     0.198 C 
BRANCH  10  11
HETATM   11  O   UNL     1     -36.281  -2.604 -10.912  1.00  0.00    -0.398 OA
HETATM   12  H   UNL     1     -36.398  -2.618  -9.942  1.00  0.00     0.209 HD
ENDBRANCH  10  11
ENDBRANCH   9  10
BRANCH   9  13
HETATM   13  O   UNL     1     -34.746  -2.561 -13.516  1.00  0.00    -0.391 OA
HETATM   14  H   UNL     1     -34.088  -2.308 -14.189  1.00  0.00     0.210 HD
ENDBRANCH   9  13
ENDBRANCH   8   9
BRANCH   8  15
HETATM   15  O   UNL     1     -36.003   0.343 -11.591  1.00  0.00    -0.390 OA
HETATM   16  H   UNL     1     -35.812   1.261 -11.854  1.00  0.00     0.210 HD
ENDBRANCH   8  15
ENDBRANCH   1   8
BRANCH   1  17
HETATM   17  O   UNL     1     -34.397   0.303 -14.519  1.00  0.00    -0.390 OA
HETATM   18  H   UNL     1     -33.911   1.043 -14.114  1.00  0.00     0.210 HD
ENDBRANCH   1  17
TORSDOF 11
ENDMDL
