MODEL 1
REMARK VINA RESULT:      -5.8      0.000      0.000
REMARK  6 active torsions:
REMARK  status: ('A' for Active; 'I' for Inactive)
REMARK    1  A    between atoms: C_1  and  C_2 
REMARK    2  A    between atoms: C_1  and  O_12 
REMARK    3  A    between atoms: C_3  and  O_11 
REMARK    4  A    between atoms: C_4  and  O_10 
REMARK    5  A    between atoms: C_5  and  N_9 
REMARK    6  A    between atoms: C_6  and  O_8 
ROOT
HETATM    1  C   UNL     1     -21.749  -4.634 -10.540  1.00  0.00     0.179 C 
HETATM    2  C   UNL     1     -22.801  -4.260 -11.631  1.00  0.00     0.180 C 
HETATM    3  C   UNL     1     -23.649  -3.070 -11.119  1.00  0.00     0.187 C 
HETATM    4  C   UNL     1     -24.269  -3.376  -9.732  1.00  0.00     0.303 C 
HETATM    5  C   UNL     1     -23.133  -3.819  -8.778  1.00  0.00     0.292 C 
HETATM    6  O   UNL     1     -22.380  -4.920  -9.289  1.00  0.00    -0.349 OA
ENDROOT
BRANCH   1   7
HETATM    7  C   UNL     1     -20.590  -3.610 -10.418  1.00  0.00     0.198 C 
BRANCH   7   8
HETATM    8  O   UNL     1     -20.194  -3.164 -11.688  1.00  0.00    -0.398 OA
HETATM    9  H   UNL     1     -19.227  -3.377 -11.776  1.00  0.00     0.209 HD
ENDBRANCH   7   8
ENDBRANCH   1   7
BRANCH   2  10
HETATM   10  O   UNL     1     -23.636  -5.349 -11.969  1.00  0.00    -0.390 OA
HETATM   11  H   UNL     1     -23.589  -5.532 -12.942  1.00  0.00     0.210 HD
ENDBRANCH   2  10
BRANCH   3  12
HETATM   12  O   UNL     1     -24.611  -2.639 -12.051  1.00  0.00    -0.391 OA
HETATM   13  H   UNL     1     -24.147  -2.208 -12.812  1.00  0.00     0.210 HD
ENDBRANCH   3  12
BRANCH   5  14
HETATM   14  O   UNL     1     -23.662  -4.157  -7.522  1.00  0.00    -0.369 OA
HETATM   15  H   UNL     1     -24.165  -3.368  -7.188  1.00  0.00     0.212 HD
ENDBRANCH   5  14
BRANCH   4  16
HETATM   16  N   UNL     1     -25.336  -4.387  -9.783  1.00  0.00     0.090 N 
HETATM   17  H   UNL     1     -25.269  -5.012 -10.615  1.00  0.00     0.313 HD
HETATM   18  H   UNL     1     -26.278  -3.939  -9.733  1.00  0.00     0.313 HD
ENDBRANCH   4  16
TORSDOF 6
ENDMDL
MODEL 2
REMARK VINA RESULT:      -5.5      2.106      3.859
REMARK  6 active torsions:
REMARK  status: ('A' for Active; 'I' for Inactive)
REMARK    1  A    between atoms: C_1  and  C_2 
REMARK    2  A    between atoms: C_1  and  O_12 
REMARK    3  A    between atoms: C_3  and  O_11 
REMARK    4  A    between atoms: C_4  and  O_10 
REMARK    5  A    between atoms: C_5  and  N_9 
REMARK    6  A    between atoms: C_6  and  O_8 
ROOT
HETATM    1  C   UNL     1     -23.622  -4.565 -10.674  1.00  0.00     0.179 C 
HETATM    2  C   UNL     1     -22.090  -4.380 -10.904  1.00  0.00     0.180 C 
HETATM    3  C   UNL     1     -21.823  -2.917 -11.336  1.00  0.00     0.187 C 
HETATM    4  C   UNL     1     -22.691  -2.524 -12.558  1.00  0.00     0.303 C 
HETATM    5  C   UNL     1     -24.170  -2.842 -12.227  1.00  0.00     0.292 C 
HETATM    6  O   UNL     1     -24.369  -4.202 -11.837  1.00  0.00    -0.349 OA
ENDROOT
BRANCH   1   7
HETATM    7  C   UNL     1     -24.142  -3.885  -9.379  1.00  0.00     0.198 C 
BRANCH   7   8
HETATM    8  O   UNL     1     -25.539  -3.761  -9.417  1.00  0.00    -0.398 OA
HETATM    9  H   UNL     1     -25.789  -3.643 -10.371  1.00  0.00     0.209 HD
ENDBRANCH   7   8
ENDBRANCH   1   7
BRANCH   2  10
HETATM   10  O   UNL     1     -21.579  -5.277 -11.869  1.00  0.00    -0.390 OA
HETATM   11  H   UNL     1     -21.149  -6.054 -11.426  1.00  0.00     0.210 HD
ENDBRANCH   2  10
BRANCH   3  12
HETATM   12  O   UNL     1     -20.458  -2.643 -11.541  1.00  0.00    -0.391 OA
HETATM   13  H   UNL     1     -19.921  -3.303 -11.032  1.00  0.00     0.210 HD
ENDBRANCH   3  12
BRANCH   5  14
HETATM   14  O   UNL     1     -24.986  -2.547 -13.332  1.00  0.00    -0.369 OA
HETATM   15  H   UNL     1     -25.731  -1.975 -13.009  1.00  0.00     0.212 HD
ENDBRANCH   5  14
BRANCH   4  16
HETATM   16  N   UNL     1     -22.277  -3.188 -13.802  1.00  0.00     0.090 N 
HETATM   17  H   UNL     1     -22.928  -3.946 -14.100  1.00  0.00     0.313 HD
HETATM   18  H   UNL     1     -21.299  -3.550 -13.726  1.00  0.00     0.313 HD
ENDBRANCH   4  16
TORSDOF 6
ENDMDL
MODEL 3
REMARK VINA RESULT:      -5.3      2.148      3.467
REMARK  6 active torsions:
REMARK  status: ('A' for Active; 'I' for Inactive)
REMARK    1  A    between atoms: C_1  and  C_2 
REMARK    2  A    between atoms: C_1  and  O_12 
REMARK    3  A    between atoms: C_3  and  O_11 
REMARK    4  A    between atoms: C_4  and  O_10 
REMARK    5  A    between atoms: C_5  and  N_9 
REMARK    6  A    between atoms: C_6  and  O_8 
ROOT
HETATM    1  C   UNL     1     -23.233  -3.340 -13.478  1.00  0.00     0.179 C 
HETATM    2  C   UNL     1     -24.190  -4.073 -12.487  1.00  0.00     0.180 C 
HETATM    3  C   UNL     1     -24.070  -3.408 -11.094  1.00  0.00     0.187 C 
HETATM    4  C   UNL     1     -22.596  -3.358 -10.619  1.00  0.00     0.303 C 
HETATM    5  C   UNL     1     -21.748  -2.691 -11.730  1.00  0.00     0.292 C 
HETATM    6  O   UNL     1     -21.888  -3.339 -12.995  1.00  0.00    -0.349 OA
ENDROOT
BRANCH   1   7
HETATM    7  C   UNL     1     -23.732  -1.930 -13.895  1.00  0.00     0.198 C 
BRANCH   7   8
HETATM    8  O   UNL     1     -23.748  -1.809 -15.293  1.00  0.00    -0.398 OA
HETATM    9  H   UNL     1     -23.402  -0.902 -15.504  1.00  0.00     0.209 HD
ENDBRANCH   7   8
ENDBRANCH   1   7
BRANCH   2  10
HETATM   10  O   UNL     1     -23.913  -5.456 -12.396  1.00  0.00    -0.390 OA
HETATM   11  H   UNL     1     -22.985  -5.602 -12.078  1.00  0.00     0.210 HD
ENDBRANCH   2  10
BRANCH   3  12
HETATM   12  O   UNL     1     -24.921  -3.985 -10.134  1.00  0.00    -0.391 OA
HETATM   13  H   UNL     1     -24.502  -3.894  -9.240  1.00  0.00     0.210 HD
ENDBRANCH   3  12
BRANCH   5  14
HETATM   14  O   UNL     1     -20.394  -2.674 -11.359  1.00  0.00    -0.369 OA
HETATM   15  H   UNL     1     -20.336  -3.004 -10.425  1.00  0.00     0.212 HD
ENDBRANCH   5  14
BRANCH   4  16
HETATM   16  N   UNL     1     -22.054  -4.679 -10.267  1.00  0.00     0.090 N 
HETATM   17  H   UNL     1     -21.081  -4.828 -10.612  1.00  0.00     0.313 HD
HETATM   18  H   UNL     1     -22.685  -5.443 -10.600  1.00  0.00     0.313 HD
ENDBRANCH   4  16
TORSDOF 6
ENDMDL
MODEL 4
REMARK VINA RESULT:      -5.2      1.706      3.485
REMARK  6 active torsions:
REMARK  status: ('A' for Active; 'I' for Inactive)
REMARK    1  A    between atoms: C_1  and  C_2 
REMARK    2  A    between atoms: C_1  and  O_12 
REMARK    3  A    between atoms: C_3  and  O_11 
REMARK    4  A    between atoms: C_4  and  O_10 
REMARK    5  A    between atoms: C_5  and  N_9 
REMARK    6  A    between atoms: C_6  and  O_8 
ROOT
HETATM    1  C   UNL     1     -23.333  -3.440  -9.682  1.00  0.00     0.179 C 
HETATM    2  C   UNL     1     -24.193  -4.078 -10.817  1.00  0.00     0.180 C 
HETATM    3  C   UNL     1     -23.287  -4.999 -11.671  1.00  0.00     0.187 C 
HETATM    4  C   UNL     1     -22.038  -4.240 -12.184  1.00  0.00     0.303 C 
HETATM    5  C   UNL     1     -21.333  -3.585 -10.971  1.00  0.00     0.292 C 
HETATM    6  O   UNL     1     -22.205  -2.742 -10.216  1.00  0.00    -0.349 OA
ENDROOT
BRANCH   1   7
HETATM    7  C   UNL     1     -22.955  -4.437  -8.554  1.00  0.00     0.198 C 
BRANCH   7   8
HETATM    8  O   UNL     1     -23.766  -4.232  -7.427  1.00  0.00    -0.398 OA
HETATM    9  H   UNL     1     -23.722  -3.263  -7.216  1.00  0.00     0.209 HD
ENDBRANCH   7   8
ENDBRANCH   1   7
BRANCH   2  10
HETATM   10  O   UNL     1     -24.812  -3.104 -11.634  1.00  0.00    -0.390 OA
HETATM   11  H   UNL     1     -24.909  -2.250 -11.140  1.00  0.00     0.210 HD
ENDBRANCH   2  10
BRANCH   3  12
HETATM   12  O   UNL     1     -23.983  -5.645 -12.709  1.00  0.00    -0.391 OA
HETATM   13  H   UNL     1     -23.657  -6.579 -12.778  1.00  0.00     0.210 HD
ENDBRANCH   3  12
BRANCH   5  14
HETATM   14  O   UNL     1     -20.222  -2.843 -11.401  1.00  0.00    -0.369 OA
HETATM   15  H   UNL     1     -20.532  -1.917 -11.585  1.00  0.00     0.212 HD
ENDBRANCH   5  14
BRANCH   4  16
HETATM   16  N   UNL     1     -22.348  -3.239 -13.215  1.00  0.00     0.090 N 
HETATM   17  H   UNL     1     -21.505  -2.737 -13.567  1.00  0.00     0.313 HD
HETATM   18  H   UNL     1     -23.066  -2.560 -12.874  1.00  0.00     0.313 HD
ENDBRANCH   4  16
TORSDOF 6
ENDMDL
MODEL 5
REMARK VINA RESULT:      -5.0     16.907     18.366
REMARK  6 active torsions:
REMARK  status: ('A' for Active; 'I' for Inactive)
REMARK    1  A    between atoms: C_1  and  C_2 
REMARK    2  A    between atoms: C_1  and  O_12 
REMARK    3  A    between atoms: C_3  and  O_11 
REMARK    4  A    between atoms: C_4  and  O_10 
REMARK    5  A    between atoms: C_5  and  N_9 
REMARK    6  A    between atoms: C_6  and  O_8 
ROOT
HETATM    1  C   UNL     1     -12.389   4.958 -19.992  1.00  0.00     0.179 C 
HETATM    2  C   UNL     1     -12.378   6.131 -21.021  1.00  0.00     0.180 C 
HETATM    3  C   UNL     1     -10.911   6.437 -21.412  1.00  0.00     0.187 C 
HETATM    4  C   UNL     1     -10.037   6.696 -20.159  1.00  0.00     0.303 C 
HETATM    5  C   UNL     1     -10.213   5.503 -19.188  1.00  0.00     0.292 C 
HETATM    6  O   UNL     1     -11.580   5.259 -18.853  1.00  0.00    -0.349 OA
ENDROOT
BRANCH   1   7
HETATM    7  C   UNL     1     -12.066   3.577 -20.622  1.00  0.00     0.198 C 
BRANCH   7   8
HETATM    8  O   UNL     1     -13.236   2.972 -21.106  1.00  0.00    -0.398 OA
HETATM    9  H   UNL     1     -12.992   2.044 -21.363  1.00  0.00     0.209 HD
ENDBRANCH   7   8
ENDBRANCH   1   7
BRANCH   2  10
HETATM   10  O   UNL     1     -13.005   7.294 -20.519  1.00  0.00    -0.390 OA
HETATM   11  H   UNL     1     -13.920   7.082 -20.199  1.00  0.00     0.210 HD
ENDBRANCH   2  10
BRANCH   3  12
HETATM   12  O   UNL     1     -10.799   7.468 -22.363  1.00  0.00    -0.391 OA
HETATM   13  H   UNL     1     -11.693   7.641 -22.753  1.00  0.00     0.210 HD
ENDBRANCH   3  12
BRANCH   5  14
HETATM   14  O   UNL     1      -9.475   5.723 -18.014  1.00  0.00    -0.369 OA
HETATM   15  H   UNL     1      -8.752   5.044 -17.982  1.00  0.00     0.212 HD
ENDBRANCH   5  14
BRANCH   4  16
HETATM   16  N   UNL     1     -10.345   7.968 -19.488  1.00  0.00     0.090 N 
HETATM   17  H   UNL     1      -9.609   8.263 -18.811  1.00  0.00     0.313 HD
HETATM   18  H   UNL     1     -11.280   7.930 -19.024  1.00  0.00     0.313 HD
ENDBRANCH   4  16
TORSDOF 6
ENDMDL
MODEL 6
REMARK VINA RESULT:      -5.0     10.614     11.798
REMARK  6 active torsions:
REMARK  status: ('A' for Active; 'I' for Inactive)
REMARK    1  A    between atoms: C_1  and  C_2 
REMARK    2  A    between atoms: C_1  and  O_12 
REMARK    3  A    between atoms: C_3  and  O_11 
REMARK    4  A    between atoms: C_4  and  O_10 
REMARK    5  A    between atoms: C_5  and  N_9 
REMARK    6  A    between atoms: C_6  and  O_8 
ROOT
HETATM    1  C   UNL     1     -33.246  -3.926 -11.197  1.00  0.00     0.179 C 
HETATM    2  C   UNL     1     -33.906  -2.754 -10.405  1.00  0.00     0.180 C 
HETATM    3  C   UNL     1     -35.313  -2.486 -10.992  1.00  0.00     0.187 C 
HETATM    4  C   UNL     1     -35.249  -2.248 -12.522  1.00  0.00     0.303 C 
HETATM    5  C   UNL     1     -34.493  -3.435 -13.168  1.00  0.00     0.292 C 
HETATM    6  O   UNL     1     -33.200  -3.643 -12.597  1.00  0.00    -0.349 OA
ENDROOT
BRANCH   1   7
HETATM    7  C   UNL     1     -33.856  -5.315 -10.875  1.00  0.00     0.198 C 
BRANCH   7   8
HETATM    8  O   UNL     1     -32.975  -6.339 -11.254  1.00  0.00    -0.398 OA
HETATM    9  H   UNL     1     -32.108  -5.904 -11.467  1.00  0.00     0.209 HD
ENDBRANCH   7   8
ENDBRANCH   1   7
BRANCH   2  10
HETATM   10  O   UNL     1     -33.127  -1.576 -10.439  1.00  0.00    -0.390 OA
HETATM   11  H   UNL     1     -32.310  -1.685  -9.887  1.00  0.00     0.210 HD
ENDBRANCH   2  10
BRANCH   3  12
HETATM   12  O   UNL     1     -36.003  -1.460 -10.321  1.00  0.00    -0.391 OA
HETATM   13  H   UNL     1     -35.343  -0.813  -9.964  1.00  0.00     0.210 HD
ENDBRANCH   3  12
BRANCH   5  14
HETATM   14  O   UNL     1     -34.368  -3.232 -14.551  1.00  0.00    -0.369 OA
HETATM   15  H   UNL     1     -34.654  -4.068 -15.004  1.00  0.00     0.212 HD
ENDBRANCH   5  14
BRANCH   4  16
HETATM   16  N   UNL     1     -34.623  -0.968 -12.885  1.00  0.00     0.090 N 
HETATM   17  H   UNL     1     -35.226  -0.375 -13.496  1.00  0.00     0.313 HD
HETATM   18  H   UNL     1     -33.688  -1.120 -13.325  1.00  0.00     0.313 HD
ENDBRANCH   4  16
TORSDOF 6
ENDMDL
MODEL 7
REMARK VINA RESULT:      -5.0      1.866      3.242
REMARK  6 active torsions:
REMARK  status: ('A' for Active; 'I' for Inactive)
REMARK    1  A    between atoms: C_1  and  C_2 
REMARK    2  A    between atoms: C_1  and  O_12 
REMARK    3  A    between atoms: C_3  and  O_11 
REMARK    4  A    between atoms: C_4  and  O_10 
REMARK    5  A    between atoms: C_5  and  N_9 
REMARK    6  A    between atoms: C_6  and  O_8 
ROOT
HETATM    1  C   UNL     1     -21.930  -3.534  -9.367  1.00  0.00     0.179 C 
HETATM    2  C   UNL     1     -23.431  -3.780  -9.017  1.00  0.00     0.180 C 
HETATM    3  C   UNL     1     -23.998  -4.851  -9.982  1.00  0.00     0.187 C 
HETATM    4  C   UNL     1     -23.757  -4.459 -11.461  1.00  0.00     0.303 C 
HETATM    5  C   UNL     1     -22.249  -4.156 -11.645  1.00  0.00     0.292 C 
HETATM    6  O   UNL     1     -21.771  -3.162 -10.738  1.00  0.00    -0.349 OA
ENDROOT
BRANCH   1   7
HETATM    7  C   UNL     1     -20.993  -4.694  -8.938  1.00  0.00     0.198 C 
BRANCH   7   8
HETATM    8  O   UNL     1     -21.447  -5.274  -7.743  1.00  0.00    -0.398 OA
HETATM    9  H   UNL     1     -21.170  -6.228  -7.766  1.00  0.00     0.209 HD
ENDBRANCH   7   8
ENDBRANCH   1   7
BRANCH   2  10
HETATM   10  O   UNL     1     -24.201  -2.597  -9.088  1.00  0.00    -0.390 OA
HETATM   11  H   UNL     1     -23.938  -2.061  -9.881  1.00  0.00     0.210 HD
ENDBRANCH   2  10
BRANCH   3  12
HETATM   12  O   UNL     1     -25.345  -5.163  -9.725  1.00  0.00    -0.391 OA
HETATM   13  H   UNL     1     -25.712  -5.657 -10.502  1.00  0.00     0.210 HD
ENDBRANCH   3  12
BRANCH   5  14
HETATM   14  O   UNL     1     -21.997  -3.746 -12.964  1.00  0.00    -0.369 OA
HETATM   15  H   UNL     1     -22.875  -3.635 -13.416  1.00  0.00     0.212 HD
ENDBRANCH   5  14
BRANCH   4  16
HETATM   16  N   UNL     1     -24.579  -3.323 -11.903  1.00  0.00     0.090 N 
HETATM   17  H   UNL     1     -24.423  -3.067 -12.902  1.00  0.00     0.313 HD
HETATM   18  H   UNL     1     -24.435  -2.494 -11.283  1.00  0.00     0.313 HD
ENDBRANCH   4  16
TORSDOF 6
ENDMDL
MODEL 8
REMARK VINA RESULT:      -4.8     17.395     19.057
REMARK  6 active torsions:
REMARK  status: ('A' for Active; 'I' for Inactive)
REMARK    1  A    between atoms: C_1  and  C_2 
REMARK    2  A    between atoms: C_1  and  O_12 
REMARK    3  A    between atoms: C_3  and  O_11 
REMARK    4  A    between atoms: C_4  and  O_10 
REMARK    5  A    between atoms: C_5  and  N_9 
REMARK    6  A    between atoms: C_6  and  O_8 
ROOT
HETATM    1  C   UNL     1     -12.175   7.449 -20.001  1.00  0.00     0.179 C 
HETATM    2  C   UNL     1     -10.698   7.951 -19.959  1.00  0.00     0.180 C 
HETATM    3  C   UNL     1      -9.800   6.921 -20.689  1.00  0.00     0.187 C 
HETATM    4  C   UNL     1      -9.994   5.497 -20.111  1.00  0.00     0.303 C 
HETATM    5  C   UNL     1     -11.506   5.165 -20.129  1.00  0.00     0.292 C 
HETATM    6  O   UNL     1     -12.293   6.139 -19.442  1.00  0.00    -0.349 OA
ENDROOT
BRANCH   1   7
HETATM    7  C   UNL     1     -12.835   7.577 -21.399  1.00  0.00     0.198 C 
BRANCH   7   8
HETATM    8  O   UNL     1     -13.237   8.901 -21.633  1.00  0.00    -0.398 OA
HETATM    9  H   UNL     1     -13.711   8.905 -22.505  1.00  0.00     0.209 HD
ENDBRANCH   7   8
ENDBRANCH   1   7
BRANCH   2  10
HETATM   10  O   UNL     1     -10.236   8.155 -18.639  1.00  0.00    -0.390 OA
HETATM   11  H   UNL     1      -9.519   7.506 -18.419  1.00  0.00     0.210 HD
ENDBRANCH   2  10
BRANCH   3  12
HETATM   12  O   UNL     1      -8.447   7.302 -20.729  1.00  0.00    -0.391 OA
HETATM   13  H   UNL     1      -8.381   8.268 -20.517  1.00  0.00     0.210 HD
ENDBRANCH   3  12
BRANCH   5  14
HETATM   14  O   UNL     1     -11.729   3.899 -19.564  1.00  0.00    -0.369 OA
HETATM   15  H   UNL     1     -10.887   3.380 -19.650  1.00  0.00     0.212 HD
ENDBRANCH   5  14
BRANCH   4  16
HETATM   16  N   UNL     1      -9.437   5.338 -18.759  1.00  0.00     0.090 N 
HETATM   17  H   UNL     1      -9.141   4.360 -18.550  1.00  0.00     0.313 HD
HETATM   18  H   UNL     1     -10.107   5.684 -18.035  1.00  0.00     0.313 HD
ENDBRANCH   4  16
TORSDOF 6
ENDMDL
MODEL 9
REMARK VINA RESULT:      -4.5     12.239     13.505
REMARK  6 active torsions:
REMARK  status: ('A' for Active; 'I' for Inactive)
REMARK    1  A    between atoms: C_1  and  C_2 
REMARK    2  A    between atoms: C_1  and  O_12 
REMARK    3  A    between atoms: C_3  and  O_11 
REMARK    4  A    between atoms: C_4  and  O_10 
REMARK    5  A    between atoms: C_5  and  N_9 
REMARK    6  A    between atoms: C_6  and  O_8 
ROOT
HETATM    1  C   UNL     1     -36.226  -0.348 -13.132  1.00  0.00     0.179 C 
HETATM    2  C   UNL     1     -36.754  -0.180 -11.673  1.00  0.00     0.180 C 
HETATM    3  C   UNL     1     -35.672  -0.692 -10.690  1.00  0.00     0.187 C 
HETATM    4  C   UNL     1     -35.237  -2.138 -11.035  1.00  0.00     0.303 C 
HETATM    5  C   UNL     1     -34.827  -2.181 -12.528  1.00  0.00     0.292 C 
HETATM    6  O   UNL     1     -35.855  -1.703 -13.396  1.00  0.00    -0.349 OA
ENDROOT
BRANCH   1   7
HETATM    7  C   UNL     1     -35.122   0.672 -13.514  1.00  0.00     0.198 C 
BRANCH   7   8
HETATM    8  O   UNL     1     -34.623   0.399 -14.797  1.00  0.00    -0.398 OA
HETATM    9  H   UNL     1     -35.220  -0.289 -15.194  1.00  0.00     0.209 HD
ENDBRANCH   7   8
ENDBRANCH   1   7
BRANCH   2  10
HETATM   10  O   UNL     1     -37.973  -0.863 -11.460  1.00  0.00    -0.390 OA
HETATM   11  H   UNL     1     -38.738  -0.306 -11.758  1.00  0.00     0.210 HD
ENDBRANCH   2  10
BRANCH   3  12
HETATM   12  O   UNL     1     -36.046  -0.555  -9.340  1.00  0.00    -0.391 OA
HETATM   13  H   UNL     1     -35.927  -1.428  -8.886  1.00  0.00     0.210 HD
ENDBRANCH   3  12
BRANCH   5  14
HETATM   14  O   UNL     1     -34.474  -3.489 -12.895  1.00  0.00    -0.369 OA
HETATM   15  H   UNL     1     -33.959  -3.434 -13.742  1.00  0.00     0.212 HD
ENDBRANCH   5  14
BRANCH   4  16
HETATM   16  N   UNL     1     -36.273  -3.141 -10.747  1.00  0.00     0.090 N 
HETATM   17  H   UNL     1     -36.596  -3.124  -9.755  1.00  0.00     0.313 HD
HETATM   18  H   UNL     1     -35.951  -4.099 -11.014  1.00  0.00     0.313 HD
ENDBRANCH   4  16
TORSDOF 6
ENDMDL
