MODEL 1
REMARK VINA RESULT:      -6.7      0.000      0.000
REMARK  14 active torsions:
REMARK  status: ('A' for Active; 'I' for Inactive)
REMARK    1  A    between atoms: C_2  and  C_4 
REMARK    2  A    between atoms: C_4  and  C_5 
REMARK    3  A    between atoms: C_5  and  C_6 
REMARK    4  A    between atoms: C_6  and  C_7 
REMARK    5  A    between atoms: C_7  and  C_8 
REMARK    6  A    between atoms: C_8  and  C_9 
REMARK    7  A    between atoms: C_9  and  O_10 
REMARK    8  A    between atoms: O_10  and  C_11 
REMARK    9  A    between atoms: C_11  and  C_13 
REMARK   10  A    between atoms: C_13  and  C_14 
REMARK   11  A    between atoms: C_14  and  C_15 
REMARK   12  A    between atoms: C_15  and  C_16 
REMARK   13  A    between atoms: C_16  and  C_17 
REMARK   14  A    between atoms: C_17  and  C_18 
ROOT
HETATM    1  O   UNL     1     -20.683  -5.820  -4.967  1.00  0.00    -0.321 OA
ENDROOT
BRANCH   1   2
HETATM    2  C   UNL     1     -21.805  -6.512  -4.399  1.00  0.00     0.178 C 
BRANCH   2   3
HETATM    3  C   UNL     1     -21.549  -7.067  -3.001  1.00  0.00     0.027 C 
BRANCH   3   4
HETATM    4  C   UNL     1     -22.196  -6.217  -1.913  1.00  0.00     0.002 C 
BRANCH   4   5
HETATM    5  C   UNL     1     -22.363  -7.022  -0.624  1.00  0.00     0.000 C 
BRANCH   5   6
HETATM    6  C   UNL     1     -21.621  -8.352  -0.722  1.00  0.00     0.000 C 
BRANCH   6   7
HETATM    7  C   UNL     1     -22.307  -9.441   0.105  1.00  0.00     0.004 C 
BRANCH   7   8
HETATM    8  C   UNL     1     -23.285 -10.299  -0.718  1.00  0.00    -0.023 C 
HETATM    9  C   UNL     1     -22.622 -10.728  -2.028  1.00  0.00     0.009 C 
HETATM   10  C   UNL     1     -23.766 -11.536   0.045  1.00  0.00     0.009 C 
ENDBRANCH   7   8
ENDBRANCH   6   7
ENDBRANCH   5   6
ENDBRANCH   4   5
ENDBRANCH   3   4
ENDBRANCH   2   3
ENDBRANCH   1   2
BRANCH   1  11
HETATM   11  C   UNL     1     -20.486  -6.020  -6.296  1.00  0.00     0.258 C 
HETATM   12  O   UNL     1     -19.655  -6.775  -6.784  1.00  0.00    -0.265 OA
BRANCH  11  13
HETATM   13  C   UNL     1     -21.521  -5.290  -7.111  1.00  0.00     0.111 C 
BRANCH  13  14
HETATM   14  C   UNL     1     -20.979  -3.891  -7.378  1.00  0.00     0.010 C 
BRANCH  14  15
HETATM   15  C   UNL     1     -19.851  -3.869  -8.402  1.00  0.00     0.001 C 
BRANCH  15  16
HETATM   16  C   UNL     1     -20.276  -4.652  -9.645  1.00  0.00     0.000 C 
BRANCH  16  17
HETATM   17  C   UNL     1     -20.577  -3.730 -10.826  1.00  0.00     0.004 C 
BRANCH  17  18
HETATM   18  C   UNL     1     -21.933  -4.028 -11.495  1.00  0.00    -0.023 C 
HETATM   19  C   UNL     1     -22.933  -4.669 -10.531  1.00  0.00     0.009 C 
HETATM   20  C   UNL     1     -22.522  -2.736 -12.066  1.00  0.00     0.009 C 
ENDBRANCH  17  18
ENDBRANCH  16  17
ENDBRANCH  15  16
ENDBRANCH  14  15
ENDBRANCH  13  14
ENDBRANCH  11  13
ENDBRANCH   1  11
TORSDOF 14
ENDMDL
MODEL 2
REMARK VINA RESULT:      -6.6      1.150      9.199
REMARK  14 active torsions:
REMARK  status: ('A' for Active; 'I' for Inactive)
REMARK    1  A    between atoms: C_2  and  C_4 
REMARK    2  A    between atoms: C_4  and  C_5 
REMARK    3  A    between atoms: C_5  and  C_6 
REMARK    4  A    between atoms: C_6  and  C_7 
REMARK    5  A    between atoms: C_7  and  C_8 
REMARK    6  A    between atoms: C_8  and  C_9 
REMARK    7  A    between atoms: C_9  and  O_10 
REMARK    8  A    between atoms: O_10  and  C_11 
REMARK    9  A    between atoms: C_11  and  C_13 
REMARK   10  A    between atoms: C_13  and  C_14 
REMARK   11  A    between atoms: C_14  and  C_15 
REMARK   12  A    between atoms: C_15  and  C_16 
REMARK   13  A    between atoms: C_16  and  C_17 
REMARK   14  A    between atoms: C_17  and  C_18 
ROOT
HETATM    1  O   UNL     1     -20.758  -6.895  -6.775  1.00  0.00    -0.321 OA
ENDROOT
BRANCH   1   2
HETATM    2  C   UNL     1     -21.184  -5.568  -7.116  1.00  0.00     0.178 C 
BRANCH   2   3
HETATM    3  C   UNL     1     -20.047  -4.554  -7.205  1.00  0.00     0.027 C 
BRANCH   3   4
HETATM    4  C   UNL     1     -20.020  -3.829  -8.546  1.00  0.00     0.002 C 
BRANCH   4   5
HETATM    5  C   UNL     1     -20.033  -4.829  -9.703  1.00  0.00     0.000 C 
BRANCH   5   6
HETATM    6  C   UNL     1     -20.597  -4.184 -10.965  1.00  0.00     0.000 C 
BRANCH   6   7
HETATM    7  C   UNL     1     -21.911  -3.453 -10.684  1.00  0.00     0.004 C 
BRANCH   7   8
HETATM    8  C   UNL     1     -23.145  -4.202 -11.220  1.00  0.00    -0.023 C 
HETATM    9  C   UNL     1     -23.907  -4.843 -10.059  1.00  0.00     0.009 C 
HETATM   10  C   UNL     1     -24.085  -3.291 -12.012  1.00  0.00     0.009 C 
ENDBRANCH   7   8
ENDBRANCH   6   7
ENDBRANCH   5   6
ENDBRANCH   4   5
ENDBRANCH   3   4
ENDBRANCH   2   3
ENDBRANCH   1   2
BRANCH   1  11
HETATM   11  C   UNL     1     -21.310  -7.414  -5.649  1.00  0.00     0.258 C 
HETATM   12  O   UNL     1     -21.146  -8.557  -5.240  1.00  0.00    -0.265 OA
BRANCH  11  13
HETATM   13  C   UNL     1     -22.053  -6.357  -4.875  1.00  0.00     0.111 C 
BRANCH  13  14
HETATM   14  C   UNL     1     -21.285  -6.125  -3.579  1.00  0.00     0.010 C 
BRANCH  14  15
HETATM   15  C   UNL     1     -22.102  -6.439  -2.332  1.00  0.00     0.001 C 
BRANCH  15  16
HETATM   16  C   UNL     1     -21.339  -7.437  -1.460  1.00  0.00     0.000 C 
BRANCH  16  17
HETATM   17  C   UNL     1     -21.977  -8.825  -1.488  1.00  0.00     0.004 C 
BRANCH  17  18
HETATM   18  C   UNL     1     -22.528  -9.264  -0.118  1.00  0.00    -0.023 C 
HETATM   19  C   UNL     1     -23.190  -8.113   0.644  1.00  0.00     0.009 C 
HETATM   20  C   UNL     1     -23.532 -10.403  -0.306  1.00  0.00     0.009 C 
ENDBRANCH  17  18
ENDBRANCH  16  17
ENDBRANCH  15  16
ENDBRANCH  14  15
ENDBRANCH  13  14
ENDBRANCH  11  13
ENDBRANCH   1  11
TORSDOF 14
ENDMDL
MODEL 3
REMARK VINA RESULT:      -6.5      1.299      9.241
REMARK  14 active torsions:
REMARK  status: ('A' for Active; 'I' for Inactive)
REMARK    1  A    between atoms: C_2  and  C_4 
REMARK    2  A    between atoms: C_4  and  C_5 
REMARK    3  A    between atoms: C_5  and  C_6 
REMARK    4  A    between atoms: C_6  and  C_7 
REMARK    5  A    between atoms: C_7  and  C_8 
REMARK    6  A    between atoms: C_8  and  C_9 
REMARK    7  A    between atoms: C_9  and  O_10 
REMARK    8  A    between atoms: O_10  and  C_11 
REMARK    9  A    between atoms: C_11  and  C_13 
REMARK   10  A    between atoms: C_13  and  C_14 
REMARK   11  A    between atoms: C_14  and  C_15 
REMARK   12  A    between atoms: C_15  and  C_16 
REMARK   13  A    between atoms: C_16  and  C_17 
REMARK   14  A    between atoms: C_17  and  C_18 
ROOT
HETATM    1  O   UNL     1     -19.588  -6.340  -6.753  1.00  0.00    -0.321 OA
ENDROOT
BRANCH   1   2
HETATM    2  C   UNL     1     -19.783  -5.116  -7.475  1.00  0.00     0.178 C 
BRANCH   2   3
HETATM    3  C   UNL     1     -21.038  -5.100  -8.344  1.00  0.00     0.027 C 
BRANCH   3   4
HETATM    4  C   UNL     1     -21.912  -3.879  -8.079  1.00  0.00     0.002 C 
BRANCH   4   5
HETATM    5  C   UNL     1     -23.389  -4.215  -8.288  1.00  0.00     0.000 C 
BRANCH   5   6
HETATM    6  C   UNL     1     -23.906  -3.584  -9.578  1.00  0.00     0.000 C 
BRANCH   6   7
HETATM    7  C   UNL     1     -23.768  -4.539 -10.765  1.00  0.00     0.004 C 
BRANCH   7   8
HETATM    8  C   UNL     1     -23.143  -3.875 -12.005  1.00  0.00    -0.023 C 
HETATM    9  C   UNL     1     -24.178  -2.982 -12.692  1.00  0.00     0.009 C 
HETATM   10  C   UNL     1     -21.898  -3.052 -11.665  1.00  0.00     0.009 C 
ENDBRANCH   7   8
ENDBRANCH   6   7
ENDBRANCH   5   6
ENDBRANCH   4   5
ENDBRANCH   3   4
ENDBRANCH   2   3
ENDBRANCH   1   2
BRANCH   1  11
HETATM   11  C   UNL     1     -20.652  -6.763  -6.022  1.00  0.00     0.258 C 
HETATM   12  O   UNL     1     -21.282  -7.794  -6.219  1.00  0.00    -0.265 OA
BRANCH  11  13
HETATM   13  C   UNL     1     -20.883  -5.864  -4.836  1.00  0.00     0.111 C 
BRANCH  13  14
HETATM   14  C   UNL     1     -21.901  -6.558  -3.938  1.00  0.00     0.010 C 
BRANCH  14  15
HETATM   15  C   UNL     1     -21.744  -6.202  -2.465  1.00  0.00     0.001 C 
BRANCH  15  16
HETATM   16  C   UNL     1     -20.935  -7.293  -1.761  1.00  0.00     0.000 C 
BRANCH  16  17
HETATM   17  C   UNL     1     -21.732  -8.590  -1.616  1.00  0.00     0.004 C 
BRANCH  17  18
HETATM   18  C   UNL     1     -22.590  -8.632  -0.338  1.00  0.00    -0.023 C 
HETATM   19  C   UNL     1     -23.310  -9.970  -0.158  1.00  0.00     0.009 C 
HETATM   20  C   UNL     1     -21.712  -8.349   0.883  1.00  0.00     0.009 C 
ENDBRANCH  17  18
ENDBRANCH  16  17
ENDBRANCH  15  16
ENDBRANCH  14  15
ENDBRANCH  13  14
ENDBRANCH  11  13
ENDBRANCH   1  11
TORSDOF 14
ENDMDL
MODEL 4
REMARK VINA RESULT:      -6.5      1.277      2.483
REMARK  14 active torsions:
REMARK  status: ('A' for Active; 'I' for Inactive)
REMARK    1  A    between atoms: C_2  and  C_4 
REMARK    2  A    between atoms: C_4  and  C_5 
REMARK    3  A    between atoms: C_5  and  C_6 
REMARK    4  A    between atoms: C_6  and  C_7 
REMARK    5  A    between atoms: C_7  and  C_8 
REMARK    6  A    between atoms: C_8  and  C_9 
REMARK    7  A    between atoms: C_9  and  O_10 
REMARK    8  A    between atoms: O_10  and  C_11 
REMARK    9  A    between atoms: C_11  and  C_13 
REMARK   10  A    between atoms: C_13  and  C_14 
REMARK   11  A    between atoms: C_14  and  C_15 
REMARK   12  A    between atoms: C_15  and  C_16 
REMARK   13  A    between atoms: C_16  and  C_17 
REMARK   14  A    between atoms: C_17  and  C_18 
ROOT
HETATM    1  O   UNL     1     -20.039  -6.511  -6.935  1.00  0.00    -0.321 OA
ENDROOT
BRANCH   1   2
HETATM    2  C   UNL     1     -20.086  -7.264  -5.714  1.00  0.00     0.178 C 
BRANCH   2   3
HETATM    3  C   UNL     1     -21.421  -7.957  -5.461  1.00  0.00     0.027 C 
BRANCH   3   4
HETATM    4  C   UNL     1     -21.607  -8.344  -3.998  1.00  0.00     0.002 C 
BRANCH   4   5
HETATM    5  C   UNL     1     -21.480  -7.118  -3.093  1.00  0.00     0.000 C 
BRANCH   5   6
HETATM    6  C   UNL     1     -21.184  -7.539  -1.657  1.00  0.00     0.000 C 
BRANCH   6   7
HETATM    7  C   UNL     1     -22.294  -7.098  -0.701  1.00  0.00     0.004 C 
BRANCH   7   8
HETATM    8  C   UNL     1     -22.626  -8.154   0.367  1.00  0.00    -0.023 C 
HETATM    9  C   UNL     1     -22.934  -9.493  -0.305  1.00  0.00     0.009 C 
HETATM   10  C   UNL     1     -21.496  -8.336   1.384  1.00  0.00     0.009 C 
ENDBRANCH   7   8
ENDBRANCH   6   7
ENDBRANCH   5   6
ENDBRANCH   4   5
ENDBRANCH   3   4
ENDBRANCH   2   3
ENDBRANCH   1   2
BRANCH   1  11
HETATM   11  C   UNL     1     -20.036  -5.161  -6.788  1.00  0.00     0.258 C 
HETATM   12  O   UNL     1     -19.598  -4.554  -5.819  1.00  0.00    -0.265 OA
BRANCH  11  13
HETATM   13  C   UNL     1     -20.521  -4.481  -8.042  1.00  0.00     0.111 C 
BRANCH  13  14
HETATM   14  C   UNL     1     -21.751  -3.663  -7.663  1.00  0.00     0.010 C 
BRANCH  14  15
HETATM   15  C   UNL     1     -23.058  -4.299  -8.118  1.00  0.00     0.001 C 
BRANCH  15  16
HETATM   16  C   UNL     1     -23.537  -3.618  -9.401  1.00  0.00     0.000 C 
BRANCH  16  17
HETATM   17  C   UNL     1     -23.690  -4.612 -10.552  1.00  0.00     0.004 C 
BRANCH  17  18
HETATM   18  C   UNL     1     -22.996  -4.148 -11.847  1.00  0.00    -0.023 C 
HETATM   19  C   UNL     1     -23.549  -2.819 -12.365  1.00  0.00     0.009 C 
HETATM   20  C   UNL     1     -21.490  -4.022 -11.607  1.00  0.00     0.009 C 
ENDBRANCH  17  18
ENDBRANCH  16  17
ENDBRANCH  15  16
ENDBRANCH  14  15
ENDBRANCH  13  14
ENDBRANCH  11  13
ENDBRANCH   1  11
TORSDOF 14
ENDMDL
MODEL 5
REMARK VINA RESULT:      -6.5      1.118      9.716
REMARK  14 active torsions:
REMARK  status: ('A' for Active; 'I' for Inactive)
REMARK    1  A    between atoms: C_2  and  C_4 
REMARK    2  A    between atoms: C_4  and  C_5 
REMARK    3  A    between atoms: C_5  and  C_6 
REMARK    4  A    between atoms: C_6  and  C_7 
REMARK    5  A    between atoms: C_7  and  C_8 
REMARK    6  A    between atoms: C_8  and  C_9 
REMARK    7  A    between atoms: C_9  and  O_10 
REMARK    8  A    between atoms: O_10  and  C_11 
REMARK    9  A    between atoms: C_11  and  C_13 
REMARK   10  A    between atoms: C_13  and  C_14 
REMARK   11  A    between atoms: C_14  and  C_15 
REMARK   12  A    between atoms: C_15  and  C_16 
REMARK   13  A    between atoms: C_16  and  C_17 
REMARK   14  A    between atoms: C_17  and  C_18 
ROOT
HETATM    1  O   UNL     1     -21.263  -5.548  -4.184  1.00  0.00    -0.321 OA
ENDROOT
BRANCH   1   2
HETATM    2  C   UNL     1     -21.166  -5.736  -5.603  1.00  0.00     0.178 C 
BRANCH   2   3
HETATM    3  C   UNL     1     -20.335  -4.674  -6.316  1.00  0.00     0.027 C 
BRANCH   3   4
HETATM    4  C   UNL     1     -19.811  -5.154  -7.665  1.00  0.00     0.002 C 
BRANCH   4   5
HETATM    5  C   UNL     1     -19.970  -4.066  -8.726  1.00  0.00     0.000 C 
BRANCH   5   6
HETATM    6  C   UNL     1     -21.267  -4.262  -9.506  1.00  0.00     0.000 C 
BRANCH   6   7
HETATM    7  C   UNL     1     -21.138  -3.762 -10.946  1.00  0.00     0.004 C 
BRANCH   7   8
HETATM    8  C   UNL     1     -22.416  -3.977 -11.777  1.00  0.00    -0.023 C 
HETATM    9  C   UNL     1     -23.444  -4.758 -10.955  1.00  0.00     0.009 C 
HETATM   10  C   UNL     1     -23.032  -2.661 -12.257  1.00  0.00     0.009 C 
ENDBRANCH   7   8
ENDBRANCH   6   7
ENDBRANCH   5   6
ENDBRANCH   4   5
ENDBRANCH   3   4
ENDBRANCH   2   3
ENDBRANCH   1   2
BRANCH   1  11
HETATM   11  C   UNL     1     -21.747  -6.608  -3.486  1.00  0.00     0.258 C 
HETATM   12  O   UNL     1     -21.766  -7.768  -3.880  1.00  0.00    -0.265 OA
BRANCH  11  13
HETATM   13  C   UNL     1     -22.141  -6.202  -2.091  1.00  0.00     0.111 C 
BRANCH  13  14
HETATM   14  C   UNL     1     -21.850  -7.387  -1.178  1.00  0.00     0.010 C 
BRANCH  14  15
HETATM   15  C   UNL     1     -22.555  -7.295   0.170  1.00  0.00     0.001 C 
BRANCH  15  16
HETATM   16  C   UNL     1     -23.256  -8.620   0.471  1.00  0.00     0.000 C 
BRANCH  16  17
HETATM   17  C   UNL     1     -22.575  -9.798  -0.227  1.00  0.00     0.004 C 
BRANCH  17  18
HETATM   18  C   UNL     1     -23.575 -10.814  -0.811  1.00  0.00    -0.023 C 
HETATM   19  C   UNL     1     -23.162 -11.313  -2.197  1.00  0.00     0.009 C 
HETATM   20  C   UNL     1     -23.721 -12.001   0.143  1.00  0.00     0.009 C 
ENDBRANCH  17  18
ENDBRANCH  16  17
ENDBRANCH  15  16
ENDBRANCH  14  15
ENDBRANCH  13  14
ENDBRANCH  11  13
ENDBRANCH   1  11
TORSDOF 14
ENDMDL
MODEL 6
REMARK VINA RESULT:      -6.4      1.262      1.991
REMARK  14 active torsions:
REMARK  status: ('A' for Active; 'I' for Inactive)
REMARK    1  A    between atoms: C_2  and  C_4 
REMARK    2  A    between atoms: C_4  and  C_5 
REMARK    3  A    between atoms: C_5  and  C_6 
REMARK    4  A    between atoms: C_6  and  C_7 
REMARK    5  A    between atoms: C_7  and  C_8 
REMARK    6  A    between atoms: C_8  and  C_9 
REMARK    7  A    between atoms: C_9  and  O_10 
REMARK    8  A    between atoms: O_10  and  C_11 
REMARK    9  A    between atoms: C_11  and  C_13 
REMARK   10  A    between atoms: C_13  and  C_14 
REMARK   11  A    between atoms: C_14  and  C_15 
REMARK   12  A    between atoms: C_15  and  C_16 
REMARK   13  A    between atoms: C_16  and  C_17 
REMARK   14  A    between atoms: C_17  and  C_18 
ROOT
HETATM    1  O   UNL     1     -21.339  -5.694  -6.463  1.00  0.00    -0.321 OA
ENDROOT
BRANCH   1   2
HETATM    2  C   UNL     1     -21.031  -5.745  -5.062  1.00  0.00     0.178 C 
BRANCH   2   3
HETATM    3  C   UNL     1     -21.959  -6.647  -4.255  1.00  0.00     0.027 C 
BRANCH   3   4
HETATM    4  C   UNL     1     -21.388  -6.989  -2.883  1.00  0.00     0.002 C 
BRANCH   4   5
HETATM    5  C   UNL     1     -22.283  -6.441  -1.771  1.00  0.00     0.000 C 
BRANCH   5   6
HETATM    6  C   UNL     1     -21.971  -7.126  -0.444  1.00  0.00     0.000 C 
BRANCH   6   7
HETATM    7  C   UNL     1     -23.056  -8.135  -0.063  1.00  0.00     0.004 C 
BRANCH   7   8
HETATM    8  C   UNL     1     -22.701  -9.580  -0.456  1.00  0.00    -0.023 C 
HETATM    9  C   UNL     1     -21.419 -10.012   0.260  1.00  0.00     0.009 C 
HETATM   10  C   UNL     1     -23.826 -10.568  -0.138  1.00  0.00     0.009 C 
ENDBRANCH   7   8
ENDBRANCH   6   7
ENDBRANCH   5   6
ENDBRANCH   4   5
ENDBRANCH   3   4
ENDBRANCH   2   3
ENDBRANCH   1   2
BRANCH   1  11
HETATM   11  C   UNL     1     -21.006  -4.537  -7.091  1.00  0.00     0.258 C 
HETATM   12  O   UNL     1     -21.217  -3.409  -6.662  1.00  0.00    -0.265 OA
BRANCH  11  13
HETATM   13  C   UNL     1     -20.208  -4.811  -8.339  1.00  0.00     0.111 C 
BRANCH  13  14
HETATM   14  C   UNL     1     -21.157  -4.661  -9.522  1.00  0.00     0.010 C 
BRANCH  14  15
HETATM   15  C   UNL     1     -20.568  -3.844 -10.665  1.00  0.00     0.001 C 
BRANCH  15  16
HETATM   16  C   UNL     1     -21.536  -3.852 -11.850  1.00  0.00     0.000 C 
BRANCH  16  17
HETATM   17  C   UNL     1     -22.790  -4.675 -11.556  1.00  0.00     0.004 C 
BRANCH  17  18
HETATM   18  C   UNL     1     -24.090  -3.855 -11.670  1.00  0.00    -0.023 C 
HETATM   19  C   UNL     1     -24.549  -3.294 -10.323  1.00  0.00     0.009 C 
HETATM   20  C   UNL     1     -23.892  -2.710 -12.666  1.00  0.00     0.009 C 
ENDBRANCH  17  18
ENDBRANCH  16  17
ENDBRANCH  15  16
ENDBRANCH  14  15
ENDBRANCH  13  14
ENDBRANCH  11  13
ENDBRANCH   1  11
TORSDOF 14
ENDMDL
MODEL 7
REMARK VINA RESULT:      -6.2     13.849     16.993
REMARK  14 active torsions:
REMARK  status: ('A' for Active; 'I' for Inactive)
REMARK    1  A    between atoms: C_2  and  C_4 
REMARK    2  A    between atoms: C_4  and  C_5 
REMARK    3  A    between atoms: C_5  and  C_6 
REMARK    4  A    between atoms: C_6  and  C_7 
REMARK    5  A    between atoms: C_7  and  C_8 
REMARK    6  A    between atoms: C_8  and  C_9 
REMARK    7  A    between atoms: C_9  and  O_10 
REMARK    8  A    between atoms: O_10  and  C_11 
REMARK    9  A    between atoms: C_11  and  C_13 
REMARK   10  A    between atoms: C_13  and  C_14 
REMARK   11  A    between atoms: C_14  and  C_15 
REMARK   12  A    between atoms: C_15  and  C_16 
REMARK   13  A    between atoms: C_16  and  C_17 
REMARK   14  A    between atoms: C_17  and  C_18 
ROOT
HETATM    1  O   UNL     1     -35.099  -1.969 -15.559  1.00  0.00    -0.321 OA
ENDROOT
BRANCH   1   2
HETATM    2  C   UNL     1     -34.585  -2.675 -16.697  1.00  0.00     0.178 C 
BRANCH   2   3
HETATM    3  C   UNL     1     -33.645  -3.824 -16.343  1.00  0.00     0.027 C 
BRANCH   3   4
HETATM    4  C   UNL     1     -32.440  -3.896 -17.275  1.00  0.00     0.002 C 
BRANCH   4   5
HETATM    5  C   UNL     1     -31.432  -4.933 -16.777  1.00  0.00     0.000 C 
BRANCH   5   6
HETATM    6  C   UNL     1     -31.795  -6.323 -17.291  1.00  0.00     0.000 C 
BRANCH   6   7
HETATM    7  C   UNL     1     -30.548  -7.167 -17.559  1.00  0.00     0.004 C 
BRANCH   7   8
HETATM    8  C   UNL     1     -29.236  -6.394 -17.336  1.00  0.00    -0.023 C 
HETATM    9  C   UNL     1     -28.442  -7.037 -16.197  1.00  0.00     0.009 C 
HETATM   10  C   UNL     1     -28.369  -6.331 -18.596  1.00  0.00     0.009 C 
ENDBRANCH   7   8
ENDBRANCH   6   7
ENDBRANCH   5   6
ENDBRANCH   4   5
ENDBRANCH   3   4
ENDBRANCH   2   3
ENDBRANCH   1   2
BRANCH   1  11
HETATM   11  C   UNL     1     -35.642  -0.753 -15.823  1.00  0.00     0.258 C 
HETATM   12  O   UNL     1     -36.237  -0.450 -16.850  1.00  0.00    -0.265 OA
BRANCH  11  13
HETATM   13  C   UNL     1     -35.542   0.155 -14.626  1.00  0.00     0.111 C 
BRANCH  13  14
HETATM   14  C   UNL     1     -35.840  -0.692 -13.393  1.00  0.00     0.010 C 
BRANCH  14  15
HETATM   15  C   UNL     1     -34.718  -0.671 -12.364  1.00  0.00     0.001 C 
BRANCH  15  16
HETATM   16  C   UNL     1     -34.959  -1.766 -11.324  1.00  0.00     0.000 C 
BRANCH  16  17
HETATM   17  C   UNL     1     -33.651  -2.284 -10.726  1.00  0.00     0.004 C 
BRANCH  17  18
HETATM   18  C   UNL     1     -33.523  -3.818 -10.793  1.00  0.00    -0.023 C 
HETATM   19  C   UNL     1     -34.882  -4.518 -10.853  1.00  0.00     0.009 C 
HETATM   20  C   UNL     1     -32.684  -4.213 -12.010  1.00  0.00     0.009 C 
ENDBRANCH  17  18
ENDBRANCH  16  17
ENDBRANCH  15  16
ENDBRANCH  14  15
ENDBRANCH  13  14
ENDBRANCH  11  13
ENDBRANCH   1  11
TORSDOF 14
ENDMDL
MODEL 8
REMARK VINA RESULT:      -5.9     13.737     17.569
REMARK  14 active torsions:
REMARK  status: ('A' for Active; 'I' for Inactive)
REMARK    1  A    between atoms: C_2  and  C_4 
REMARK    2  A    between atoms: C_4  and  C_5 
REMARK    3  A    between atoms: C_5  and  C_6 
REMARK    4  A    between atoms: C_6  and  C_7 
REMARK    5  A    between atoms: C_7  and  C_8 
REMARK    6  A    between atoms: C_8  and  C_9 
REMARK    7  A    between atoms: C_9  and  O_10 
REMARK    8  A    between atoms: O_10  and  C_11 
REMARK    9  A    between atoms: C_11  and  C_13 
REMARK   10  A    between atoms: C_13  and  C_14 
REMARK   11  A    between atoms: C_14  and  C_15 
REMARK   12  A    between atoms: C_15  and  C_16 
REMARK   13  A    between atoms: C_16  and  C_17 
REMARK   14  A    between atoms: C_17  and  C_18 
ROOT
HETATM    1  O   UNL     1     -36.048  -1.019  -9.630  1.00  0.00    -0.321 OA
ENDROOT
BRANCH   1   2
HETATM    2  C   UNL     1     -36.234   0.123 -10.479  1.00  0.00     0.178 C 
BRANCH   2   3
HETATM    3  C   UNL     1     -37.335  -0.051 -11.521  1.00  0.00     0.027 C 
BRANCH   3   4
HETATM    4  C   UNL     1     -36.778  -0.261 -12.925  1.00  0.00     0.002 C 
BRANCH   4   5
HETATM    5  C   UNL     1     -35.410   0.406 -13.070  1.00  0.00     0.000 C 
BRANCH   5   6
HETATM    6  C   UNL     1     -34.918   0.312 -14.511  1.00  0.00     0.000 C 
BRANCH   6   7
HETATM    7  C   UNL     1     -35.982   0.788 -15.502  1.00  0.00     0.004 C 
BRANCH   7   8
HETATM    8  C   UNL     1     -36.370  -0.285 -16.534  1.00  0.00    -0.023 C 
HETATM    9  C   UNL     1     -35.346  -1.422 -16.510  1.00  0.00     0.009 C 
HETATM   10  C   UNL     1     -37.772  -0.850 -16.296  1.00  0.00     0.009 C 
ENDBRANCH   7   8
ENDBRANCH   6   7
ENDBRANCH   5   6
ENDBRANCH   4   5
ENDBRANCH   3   4
ENDBRANCH   2   3
ENDBRANCH   1   2
BRANCH   1  11
HETATM   11  C   UNL     1     -35.595  -2.139 -10.250  1.00  0.00     0.258 C 
HETATM   12  O   UNL     1     -36.293  -2.961 -10.829  1.00  0.00    -0.265 OA
BRANCH  11  13
HETATM   13  C   UNL     1     -34.089  -2.181 -10.257  1.00  0.00     0.111 C 
BRANCH  13  14
HETATM   14  C   UNL     1     -33.657  -2.594 -11.659  1.00  0.00     0.010 C 
BRANCH  14  15
HETATM   15  C   UNL     1     -32.899  -3.915 -11.690  1.00  0.00     0.001 C 
BRANCH  15  16
HETATM   16  C   UNL     1     -33.896  -5.075 -11.693  1.00  0.00     0.000 C 
BRANCH  16  17
HETATM   17  C   UNL     1     -33.309  -6.334 -11.054  1.00  0.00     0.004 C 
BRANCH  17  18
HETATM   18  C   UNL     1     -34.385  -7.291 -10.508  1.00  0.00    -0.023 C 
HETATM   19  C   UNL     1     -33.785  -8.547  -9.872  1.00  0.00     0.009 C 
HETATM   20  C   UNL     1     -35.254  -6.559  -9.483  1.00  0.00     0.009 C 
ENDBRANCH  17  18
ENDBRANCH  16  17
ENDBRANCH  15  16
ENDBRANCH  14  15
ENDBRANCH  13  14
ENDBRANCH  11  13
ENDBRANCH   1  11
TORSDOF 14
ENDMDL
MODEL 9
REMARK VINA RESULT:      -5.7      1.568      9.354
REMARK  14 active torsions:
REMARK  status: ('A' for Active; 'I' for Inactive)
REMARK    1  A    between atoms: C_2  and  C_4 
REMARK    2  A    between atoms: C_4  and  C_5 
REMARK    3  A    between atoms: C_5  and  C_6 
REMARK    4  A    between atoms: C_6  and  C_7 
REMARK    5  A    between atoms: C_7  and  C_8 
REMARK    6  A    between atoms: C_8  and  C_9 
REMARK    7  A    between atoms: C_9  and  O_10 
REMARK    8  A    between atoms: O_10  and  C_11 
REMARK    9  A    between atoms: C_11  and  C_13 
REMARK   10  A    between atoms: C_13  and  C_14 
REMARK   11  A    between atoms: C_14  and  C_15 
REMARK   12  A    between atoms: C_15  and  C_16 
REMARK   13  A    between atoms: C_16  and  C_17 
REMARK   14  A    between atoms: C_17  and  C_18 
ROOT
HETATM    1  O   UNL     1     -19.811  -7.684  -5.723  1.00  0.00    -0.321 OA
ENDROOT
BRANCH   1   2
HETATM    2  C   UNL     1     -20.771  -6.636  -5.526  1.00  0.00     0.178 C 
BRANCH   2   3
HETATM    3  C   UNL     1     -20.320  -5.275  -6.048  1.00  0.00     0.027 C 
BRANCH   3   4
HETATM    4  C   UNL     1     -20.821  -4.999  -7.461  1.00  0.00     0.002 C 
BRANCH   4   5
HETATM    5  C   UNL     1     -21.676  -3.732  -7.495  1.00  0.00     0.000 C 
BRANCH   5   6
HETATM    6  C   UNL     1     -22.799  -3.870  -8.519  1.00  0.00     0.000 C 
BRANCH   6   7
HETATM    7  C   UNL     1     -22.319  -4.574  -9.790  1.00  0.00     0.004 C 
BRANCH   7   8
HETATM    8  C   UNL     1     -21.646  -3.618 -10.791  1.00  0.00    -0.023 C 
HETATM    9  C   UNL     1     -20.220  -4.092 -11.082  1.00  0.00     0.009 C 
HETATM   10  C   UNL     1     -22.426  -3.498 -12.103  1.00  0.00     0.009 C 
ENDBRANCH   7   8
ENDBRANCH   6   7
ENDBRANCH   5   6
ENDBRANCH   4   5
ENDBRANCH   3   4
ENDBRANCH   2   3
ENDBRANCH   1   2
BRANCH   1  11
HETATM   11  C   UNL     1     -19.799  -8.651  -4.769  1.00  0.00     0.258 C 
HETATM   12  O   UNL     1     -18.821  -8.990  -4.115  1.00  0.00    -0.265 OA
BRANCH  11  13
HETATM   13  C   UNL     1     -21.188  -9.172  -4.512  1.00  0.00     0.111 C 
BRANCH  13  14
HETATM   14  C   UNL     1     -21.094 -10.146  -3.343  1.00  0.00     0.010 C 
BRANCH  14  15
HETATM   15  C   UNL     1     -22.447 -10.697  -2.910  1.00  0.00     0.001 C 
BRANCH  15  16
HETATM   16  C   UNL     1     -22.391 -11.080  -1.430  1.00  0.00     0.000 C 
BRANCH  16  17
HETATM   17  C   UNL     1     -23.301 -10.195  -0.578  1.00  0.00     0.004 C 
BRANCH  17  18
HETATM   18  C   UNL     1     -22.522  -9.270   0.376  1.00  0.00    -0.023 C 
HETATM   19  C   UNL     1     -21.027  -9.593   0.415  1.00  0.00     0.009 C 
HETATM   20  C   UNL     1     -22.724  -7.812  -0.041  1.00  0.00     0.009 C 
ENDBRANCH  17  18
ENDBRANCH  16  17
ENDBRANCH  15  16
ENDBRANCH  14  15
ENDBRANCH  13  14
ENDBRANCH  11  13
ENDBRANCH   1  11
TORSDOF 14
ENDMDL
