MODEL 1
REMARK VINA RESULT:      -9.6      0.000      0.000
REMARK  6 active torsions:
REMARK  status: ('A' for Active; 'I' for Inactive)
REMARK    1  A    between atoms: C_2  and  C_5 
REMARK    2  A    between atoms: C_8  and  C_11 
REMARK    3  A    between atoms: C_11  and  C_13 
REMARK    4  A    between atoms: C_13  and  C_14 
REMARK    5  A    between atoms: C_14  and  C_16 
REMARK    6  A    between atoms: C_19  and  O_22 
ROOT
HETATM    1  C   UNL     1     -20.846  -6.576  -5.295  1.00  0.00     0.166 C 
HETATM    2  O   UNL     1     -20.668  -7.346  -6.235  1.00  0.00    -0.292 OA
ENDROOT
BRANCH   1   3
HETATM    3  C   UNL     1     -21.218  -7.113  -3.956  1.00  0.00     0.010 A 
HETATM    4  C   UNL     1     -21.179  -8.491  -3.743  1.00  0.00     0.015 A 
HETATM    5  C   UNL     1     -21.532  -9.022  -2.495  1.00  0.00     0.009 A 
HETATM    6  C   UNL     1     -21.949  -8.193  -1.440  1.00  0.00    -0.051 A 
HETATM    7  C   UNL     1     -21.973  -6.807  -1.679  1.00  0.00     0.009 A 
HETATM    8  C   UNL     1     -21.613  -6.269  -2.917  1.00  0.00     0.015 A 
BRANCH   6   9
HETATM    9  C   UNL     1     -22.386  -8.744  -0.070  1.00  0.00    -0.024 C 
HETATM   10  C   UNL     1     -23.275  -7.769   0.732  1.00  0.00     0.019 C 
HETATM   11  C   UNL     1     -21.136  -9.038   0.788  1.00  0.00     0.019 C 
HETATM   12  C   UNL     1     -23.190 -10.049  -0.257  1.00  0.00     0.019 C 
ENDBRANCH   6   9
ENDBRANCH   1   3
BRANCH   1  13
HETATM   13  C   UNL     1     -20.661  -5.087  -5.455  1.00  0.00     0.167 C 
BRANCH  13  14
HETATM   14  C   UNL     1     -20.125  -4.702  -6.810  1.00  0.00     0.166 C 
HETATM   15  O   UNL     1     -18.915  -4.670  -7.028  1.00  0.00    -0.292 OA
BRANCH  14  16
HETATM   16  C   UNL     1     -21.080  -4.379  -7.909  1.00  0.00     0.010 A 
HETATM   17  C   UNL     1     -22.448  -4.197  -7.682  1.00  0.00     0.018 A 
HETATM   18  C   UNL     1     -23.304  -3.882  -8.746  1.00  0.00     0.037 A 
HETATM   19  C   UNL     1     -22.801  -3.755 -10.042  1.00  0.00     0.068 A 
HETATM   20  C   UNL     1     -21.435  -3.943 -10.265  1.00  0.00     0.037 A 
HETATM   21  C   UNL     1     -20.576  -4.247  -9.206  1.00  0.00     0.018 A 
BRANCH  19  22
HETATM   22  O   UNL     1     -23.526  -3.461 -11.162  1.00  0.00    -0.356 OA
HETATM   23  C   UNL     1     -22.887  -2.673 -12.158  1.00  0.00     0.210 C 
ENDBRANCH  19  22
ENDBRANCH  14  16
ENDBRANCH  13  14
ENDBRANCH   1  13
TORSDOF 6
ENDMDL
MODEL 2
REMARK VINA RESULT:      -9.6      0.952      2.033
REMARK  6 active torsions:
REMARK  status: ('A' for Active; 'I' for Inactive)
REMARK    1  A    between atoms: C_2  and  C_5 
REMARK    2  A    between atoms: C_8  and  C_11 
REMARK    3  A    between atoms: C_11  and  C_13 
REMARK    4  A    between atoms: C_13  and  C_14 
REMARK    5  A    between atoms: C_14  and  C_16 
REMARK    6  A    between atoms: C_19  and  O_22 
ROOT
HETATM    1  C   UNL     1     -20.529  -6.726  -5.257  1.00  0.00     0.166 C 
HETATM    2  O   UNL     1     -19.915  -7.455  -6.033  1.00  0.00    -0.292 OA
ENDROOT
BRANCH   1   3
HETATM    3  C   UNL     1     -21.005  -7.264  -3.952  1.00  0.00     0.010 A 
HETATM    4  C   UNL     1     -21.496  -6.380  -2.993  1.00  0.00     0.015 A 
HETATM    5  C   UNL     1     -21.942  -6.859  -1.753  1.00  0.00     0.009 A 
HETATM    6  C   UNL     1     -21.889  -8.228  -1.438  1.00  0.00    -0.051 A 
HETATM    7  C   UNL     1     -21.394  -9.099  -2.425  1.00  0.00     0.009 A 
HETATM    8  C   UNL     1     -20.958  -8.629  -3.667  1.00  0.00     0.015 A 
BRANCH   6   9
HETATM    9  C   UNL     1     -22.327  -8.785  -0.071  1.00  0.00    -0.024 C 
HETATM   10  C   UNL     1     -21.145  -9.149   0.855  1.00  0.00     0.019 C 
HETATM   11  C   UNL     1     -23.156 -10.070  -0.283  1.00  0.00     0.019 C 
HETATM   12  C   UNL     1     -23.189  -7.743   0.674  1.00  0.00     0.019 C 
ENDBRANCH   6   9
ENDBRANCH   1   3
BRANCH   1  13
HETATM   13  C   UNL     1     -20.786  -5.275  -5.582  1.00  0.00     0.167 C 
BRANCH  13  14
HETATM   14  C   UNL     1     -21.984  -5.073  -6.474  1.00  0.00     0.166 C 
HETATM   15  O   UNL     1     -23.125  -5.249  -6.051  1.00  0.00    -0.292 OA
BRANCH  14  16
HETATM   16  C   UNL     1     -21.780  -4.631  -7.884  1.00  0.00     0.010 A 
HETATM   17  C   UNL     1     -20.546  -4.747  -8.532  1.00  0.00     0.018 A 
HETATM   18  C   UNL     1     -20.407  -4.328  -9.863  1.00  0.00     0.037 A 
HETATM   19  C   UNL     1     -21.496  -3.786 -10.549  1.00  0.00     0.068 A 
HETATM   20  C   UNL     1     -22.724  -3.668  -9.895  1.00  0.00     0.037 A 
HETATM   21  C   UNL     1     -22.871  -4.093  -8.573  1.00  0.00     0.018 A 
BRANCH  19  22
HETATM   22  O   UNL     1     -21.490  -3.335 -11.839  1.00  0.00    -0.356 OA
HETATM   23  C   UNL     1     -22.730  -2.889 -12.372  1.00  0.00     0.210 C 
ENDBRANCH  19  22
ENDBRANCH  14  16
ENDBRANCH  13  14
ENDBRANCH   1  13
TORSDOF 6
ENDMDL
MODEL 3
REMARK VINA RESULT:      -9.0      1.611      8.706
REMARK  6 active torsions:
REMARK  status: ('A' for Active; 'I' for Inactive)
REMARK    1  A    between atoms: C_2  and  C_5 
REMARK    2  A    between atoms: C_8  and  C_11 
REMARK    3  A    between atoms: C_11  and  C_13 
REMARK    4  A    between atoms: C_13  and  C_14 
REMARK    5  A    between atoms: C_14  and  C_16 
REMARK    6  A    between atoms: C_19  and  O_22 
ROOT
HETATM    1  C   UNL     1     -19.825  -4.743  -6.628  1.00  0.00     0.166 C 
HETATM    2  O   UNL     1     -18.609  -4.725  -6.799  1.00  0.00    -0.292 OA
ENDROOT
BRANCH   1   3
HETATM    3  C   UNL     1     -20.741  -4.495  -7.776  1.00  0.00     0.010 A 
HETATM    4  C   UNL     1     -20.219  -4.486  -9.070  1.00  0.00     0.015 A 
HETATM    5  C   UNL     1     -21.058  -4.246 -10.167  1.00  0.00     0.009 A 
HETATM    6  C   UNL     1     -22.430  -3.992  -9.996  1.00  0.00    -0.051 A 
HETATM    7  C   UNL     1     -22.931  -4.014  -8.682  1.00  0.00     0.009 A 
HETATM    8  C   UNL     1     -22.103  -4.263  -7.584  1.00  0.00     0.015 A 
BRANCH   6   9
HETATM    9  C   UNL     1     -23.372  -3.681 -11.173  1.00  0.00    -0.024 C 
HETATM   10  C   UNL     1     -22.847  -2.569 -12.107  1.00  0.00     0.019 C 
HETATM   11  C   UNL     1     -24.739  -3.214 -10.627  1.00  0.00     0.019 C 
HETATM   12  C   UNL     1     -23.577  -4.945 -12.036  1.00  0.00     0.019 C 
ENDBRANCH   6   9
ENDBRANCH   1   3
BRANCH   1  13
HETATM   13  C   UNL     1     -20.421  -5.051  -5.276  1.00  0.00     0.167 C 
BRANCH  13  14
HETATM   14  C   UNL     1     -20.662  -6.524  -5.060  1.00  0.00     0.166 C 
HETATM   15  O   UNL     1     -20.500  -7.333  -5.972  1.00  0.00    -0.292 OA
BRANCH  14  16
HETATM   16  C   UNL     1     -21.079  -7.007  -3.712  1.00  0.00     0.010 A 
HETATM   17  C   UNL     1     -21.799  -6.204  -2.821  1.00  0.00     0.018 A 
HETATM   18  C   UNL     1     -22.180  -6.707  -1.569  1.00  0.00     0.037 A 
HETATM   19  C   UNL     1     -21.838  -8.009  -1.199  1.00  0.00     0.068 A 
HETATM   20  C   UNL     1     -21.113  -8.804  -2.090  1.00  0.00     0.037 A 
HETATM   21  C   UNL     1     -20.741  -8.311  -3.342  1.00  0.00     0.018 A 
BRANCH  19  22
HETATM   22  O   UNL     1     -22.139  -8.613  -0.011  1.00  0.00    -0.356 OA
HETATM   23  C   UNL     1     -23.205  -8.054   0.747  1.00  0.00     0.210 C 
ENDBRANCH  19  22
ENDBRANCH  14  16
ENDBRANCH  13  14
ENDBRANCH   1  13
TORSDOF 6
ENDMDL
MODEL 4
REMARK VINA RESULT:      -8.4      1.964      3.828
REMARK  6 active torsions:
REMARK  status: ('A' for Active; 'I' for Inactive)
REMARK    1  A    between atoms: C_2  and  C_5 
REMARK    2  A    between atoms: C_8  and  C_11 
REMARK    3  A    between atoms: C_11  and  C_13 
REMARK    4  A    between atoms: C_13  and  C_14 
REMARK    5  A    between atoms: C_14  and  C_16 
REMARK    6  A    between atoms: C_19  and  O_22 
ROOT
HETATM    1  C   UNL     1     -21.283  -4.533  -7.286  1.00  0.00     0.166 C 
HETATM    2  O   UNL     1     -21.125  -3.382  -6.885  1.00  0.00    -0.292 OA
ENDROOT
BRANCH   1   3
HETATM    3  C   UNL     1     -21.186  -5.672  -6.330  1.00  0.00     0.010 A 
HETATM    4  C   UNL     1     -22.235  -5.901  -5.440  1.00  0.00     0.015 A 
HETATM    5  C   UNL     1     -22.165  -6.960  -4.525  1.00  0.00     0.009 A 
HETATM    6  C   UNL     1     -21.041  -7.801  -4.466  1.00  0.00    -0.051 A 
HETATM    7  C   UNL     1     -20.000  -7.552  -5.379  1.00  0.00     0.009 A 
HETATM    8  C   UNL     1     -20.068  -6.504  -6.301  1.00  0.00     0.015 A 
BRANCH   6   9
HETATM    9  C   UNL     1     -20.910  -8.946  -3.445  1.00  0.00    -0.024 C 
HETATM   10  C   UNL     1     -19.516  -9.613  -3.441  1.00  0.00     0.019 C 
HETATM   11  C   UNL     1     -21.943 -10.046  -3.772  1.00  0.00     0.019 C 
HETATM   12  C   UNL     1     -21.168  -8.416  -2.018  1.00  0.00     0.019 C 
ENDBRANCH   6   9
ENDBRANCH   1   3
BRANCH   1  13
HETATM   13  C   UNL     1     -21.613  -4.822  -8.730  1.00  0.00     0.167 C 
BRANCH  13  14
HETATM   14  C   UNL     1     -22.944  -4.257  -9.155  1.00  0.00     0.166 C 
HETATM   15  O   UNL     1     -23.884  -4.186  -8.364  1.00  0.00    -0.292 OA
BRANCH  14  16
HETATM   16  C   UNL     1     -23.115  -3.756 -10.548  1.00  0.00     0.010 A 
HETATM   17  C   UNL     1     -22.029  -3.533 -11.401  1.00  0.00     0.018 A 
HETATM   18  C   UNL     1     -22.241  -3.073 -12.708  1.00  0.00     0.037 A 
HETATM   19  C   UNL     1     -23.536  -2.826 -13.167  1.00  0.00     0.068 A 
HETATM   20  C   UNL     1     -24.617  -3.045 -12.310  1.00  0.00     0.037 A 
HETATM   21  C   UNL     1     -24.412  -3.513 -11.010  1.00  0.00     0.018 A 
BRANCH  19  22
HETATM   22  O   UNL     1     -23.876  -2.370 -14.409  1.00  0.00    -0.356 OA
HETATM   23  C   UNL     1     -22.823  -1.879 -15.228  1.00  0.00     0.210 C 
ENDBRANCH  19  22
ENDBRANCH  14  16
ENDBRANCH  13  14
ENDBRANCH   1  13
TORSDOF 6
ENDMDL
MODEL 5
REMARK VINA RESULT:      -8.1      1.719      2.418
REMARK  6 active torsions:
REMARK  status: ('A' for Active; 'I' for Inactive)
REMARK    1  A    between atoms: C_2  and  C_5 
REMARK    2  A    between atoms: C_8  and  C_11 
REMARK    3  A    between atoms: C_11  and  C_13 
REMARK    4  A    between atoms: C_13  and  C_14 
REMARK    5  A    between atoms: C_14  and  C_16 
REMARK    6  A    between atoms: C_19  and  O_22 
ROOT
HETATM    1  C   UNL     1     -20.523  -7.925  -4.817  1.00  0.00     0.166 C 
HETATM    2  O   UNL     1     -19.855  -8.466  -5.695  1.00  0.00    -0.292 OA
ENDROOT
BRANCH   1   3
HETATM    3  C   UNL     1     -21.144  -8.750  -3.743  1.00  0.00     0.010 A 
HETATM    4  C   UNL     1     -21.759  -9.955  -4.084  1.00  0.00     0.015 A 
HETATM    5  C   UNL     1     -22.359 -10.745  -3.094  1.00  0.00     0.009 A 
HETATM    6  C   UNL     1     -22.374 -10.342  -1.747  1.00  0.00    -0.051 A 
HETATM    7  C   UNL     1     -21.742  -9.127  -1.430  1.00  0.00     0.009 A 
HETATM    8  C   UNL     1     -21.132  -8.339  -2.411  1.00  0.00     0.015 A 
BRANCH   6   9
HETATM    9  C   UNL     1     -23.061 -11.163  -0.641  1.00  0.00    -0.024 C 
HETATM   10  C   UNL     1     -22.075 -11.767   0.383  1.00  0.00     0.019 C 
HETATM   11  C   UNL     1     -23.838 -12.336  -1.277  1.00  0.00     0.019 C 
HETATM   12  C   UNL     1     -24.047 -10.270   0.145  1.00  0.00     0.019 C 
ENDBRANCH   6   9
ENDBRANCH   1   3
BRANCH   1  13
HETATM   13  C   UNL     1     -20.700  -6.427  -4.777  1.00  0.00     0.167 C 
BRANCH  13  14
HETATM   14  C   UNL     1     -21.905  -5.956  -5.551  1.00  0.00     0.166 C 
HETATM   15  O   UNL     1     -23.042  -6.104  -5.105  1.00  0.00    -0.292 OA
BRANCH  14  16
HETATM   16  C   UNL     1     -21.712  -5.279  -6.865  1.00  0.00     0.010 A 
HETATM   17  C   UNL     1     -22.668  -4.415  -7.408  1.00  0.00     0.018 A 
HETATM   18  C   UNL     1     -22.436  -3.792  -8.642  1.00  0.00     0.037 A 
HETATM   19  C   UNL     1     -21.253  -4.034  -9.343  1.00  0.00     0.068 A 
HETATM   20  C   UNL     1     -20.303  -4.902  -8.798  1.00  0.00     0.037 A 
HETATM   21  C   UNL     1     -20.526  -5.517  -7.565  1.00  0.00     0.018 A 
BRANCH  19  22
HETATM   22  O   UNL     1     -20.910  -3.500 -10.552  1.00  0.00    -0.356 OA
HETATM   23  C   UNL     1     -21.405  -4.155 -11.713  1.00  0.00     0.210 C 
ENDBRANCH  19  22
ENDBRANCH  14  16
ENDBRANCH  13  14
ENDBRANCH   1  13
TORSDOF 6
ENDMDL
MODEL 6
REMARK VINA RESULT:      -8.0      2.670      8.757
REMARK  6 active torsions:
REMARK  status: ('A' for Active; 'I' for Inactive)
REMARK    1  A    between atoms: C_2  and  C_5 
REMARK    2  A    between atoms: C_8  and  C_11 
REMARK    3  A    between atoms: C_11  and  C_13 
REMARK    4  A    between atoms: C_13  and  C_14 
REMARK    5  A    between atoms: C_14  and  C_16 
REMARK    6  A    between atoms: C_19  and  O_22 
ROOT
HETATM    1  C   UNL     1     -20.612  -5.098  -5.690  1.00  0.00     0.166 C 
HETATM    2  O   UNL     1     -19.631  -4.462  -5.315  1.00  0.00    -0.292 OA
ENDROOT
BRANCH   1   3
HETATM    3  C   UNL     1     -21.212  -4.819  -7.025  1.00  0.00     0.010 A 
HETATM    4  C   UNL     1     -20.387  -4.806  -8.150  1.00  0.00     0.015 A 
HETATM    5  C   UNL     1     -20.925  -4.538  -9.416  1.00  0.00     0.009 A 
HETATM    6  C   UNL     1     -22.292  -4.259  -9.585  1.00  0.00    -0.051 A 
HETATM    7  C   UNL     1     -23.102  -4.284  -8.436  1.00  0.00     0.009 A 
HETATM    8  C   UNL     1     -22.575  -4.562  -7.171  1.00  0.00     0.015 A 
BRANCH   6   9
HETATM    9  C   UNL     1     -22.909  -3.917 -10.953  1.00  0.00    -0.024 C 
HETATM   10  C   UNL     1     -24.115  -2.956 -10.863  1.00  0.00     0.019 C 
HETATM   11  C   UNL     1     -23.405  -5.212 -11.632  1.00  0.00     0.019 C 
HETATM   12  C   UNL     1     -21.853  -3.243 -11.857  1.00  0.00     0.019 C 
ENDBRANCH   6   9
ENDBRANCH   1   3
BRANCH   1  13
HETATM   13  C   UNL     1     -21.210  -6.192  -4.839  1.00  0.00     0.167 C 
BRANCH  13  14
HETATM   14  C   UNL     1     -20.858  -7.575  -5.325  1.00  0.00     0.166 C 
HETATM   15  O   UNL     1     -21.363  -8.036  -6.347  1.00  0.00    -0.292 OA
BRANCH  14  16
HETATM   16  C   UNL     1     -19.863  -8.386  -4.565  1.00  0.00     0.010 A 
HETATM   17  C   UNL     1     -18.803  -9.048  -5.193  1.00  0.00     0.018 A 
HETATM   18  C   UNL     1     -17.886  -9.788  -4.434  1.00  0.00     0.037 A 
HETATM   19  C   UNL     1     -18.027  -9.878  -3.048  1.00  0.00     0.068 A 
HETATM   20  C   UNL     1     -19.091  -9.220  -2.427  1.00  0.00     0.037 A 
HETATM   21  C   UNL     1     -20.001  -8.473  -3.177  1.00  0.00     0.018 A 
BRANCH  19  22
HETATM   22  O   UNL     1     -17.210 -10.571  -2.199  1.00  0.00    -0.356 OA
HETATM   23  C   UNL     1     -15.809 -10.399  -2.366  1.00  0.00     0.210 C 
ENDBRANCH  19  22
ENDBRANCH  14  16
ENDBRANCH  13  14
ENDBRANCH   1  13
TORSDOF 6
ENDMDL
MODEL 7
REMARK VINA RESULT:      -7.9      2.893      5.340
REMARK  6 active torsions:
REMARK  status: ('A' for Active; 'I' for Inactive)
REMARK    1  A    between atoms: C_2  and  C_5 
REMARK    2  A    between atoms: C_8  and  C_11 
REMARK    3  A    between atoms: C_11  and  C_13 
REMARK    4  A    between atoms: C_13  and  C_14 
REMARK    5  A    between atoms: C_14  and  C_16 
REMARK    6  A    between atoms: C_19  and  O_22 
ROOT
HETATM    1  C   UNL     1     -22.439  -8.253  -0.386  1.00  0.00     0.166 C 
HETATM    2  O   UNL     1     -23.257  -7.468   0.087  1.00  0.00    -0.292 OA
ENDROOT
BRANCH   1   3
HETATM    3  C   UNL     1     -22.520  -9.702  -0.050  1.00  0.00     0.010 A 
HETATM    4  C   UNL     1     -23.730 -10.373  -0.231  1.00  0.00     0.015 A 
HETATM    5  C   UNL     1     -23.835 -11.734   0.086  1.00  0.00     0.009 A 
HETATM    6  C   UNL     1     -22.743 -12.450   0.607  1.00  0.00    -0.051 A 
HETATM    7  C   UNL     1     -21.534 -11.751   0.774  1.00  0.00     0.009 A 
HETATM    8  C   UNL     1     -21.419 -10.396   0.450  1.00  0.00     0.015 A 
BRANCH   6   9
HETATM    9  C   UNL     1     -22.835 -13.933   1.007  1.00  0.00    -0.024 C 
HETATM   10  C   UNL     1     -23.435 -14.157   2.413  1.00  0.00     0.019 C 
HETATM   11  C   UNL     1     -21.421 -14.553   1.008  1.00  0.00     0.019 C 
HETATM   12  C   UNL     1     -23.723 -14.699   0.003  1.00  0.00     0.019 C 
ENDBRANCH   6   9
ENDBRANCH   1   3
BRANCH   1  13
HETATM   13  C   UNL     1     -21.364  -7.786  -1.337  1.00  0.00     0.167 C 
BRANCH  13  14
HETATM   14  C   UNL     1     -21.801  -6.628  -2.198  1.00  0.00     0.166 C 
HETATM   15  O   UNL     1     -22.449  -5.696  -1.725  1.00  0.00    -0.292 OA
BRANCH  14  16
HETATM   16  C   UNL     1     -21.420  -6.604  -3.639  1.00  0.00     0.010 A 
HETATM   17  C   UNL     1     -21.637  -7.694  -4.488  1.00  0.00     0.018 A 
HETATM   18  C   UNL     1     -21.273  -7.618  -5.839  1.00  0.00     0.037 A 
HETATM   19  C   UNL     1     -20.683  -6.460  -6.347  1.00  0.00     0.068 A 
HETATM   20  C   UNL     1     -20.462  -5.376  -5.494  1.00  0.00     0.037 A 
HETATM   21  C   UNL     1     -20.833  -5.442  -4.149  1.00  0.00     0.018 A 
BRANCH  19  22
HETATM   22  O   UNL     1     -20.276  -6.262  -7.637  1.00  0.00    -0.356 OA
HETATM   23  C   UNL     1     -19.876  -4.945  -7.994  1.00  0.00     0.210 C 
ENDBRANCH  19  22
ENDBRANCH  14  16
ENDBRANCH  13  14
ENDBRANCH   1  13
TORSDOF 6
ENDMDL
MODEL 8
REMARK VINA RESULT:      -7.9      2.208      8.773
REMARK  6 active torsions:
REMARK  status: ('A' for Active; 'I' for Inactive)
REMARK    1  A    between atoms: C_2  and  C_5 
REMARK    2  A    between atoms: C_8  and  C_11 
REMARK    3  A    between atoms: C_11  and  C_13 
REMARK    4  A    between atoms: C_13  and  C_14 
REMARK    5  A    between atoms: C_14  and  C_16 
REMARK    6  A    between atoms: C_19  and  O_22 
ROOT
HETATM    1  C   UNL     1     -19.906  -4.788  -6.623  1.00  0.00     0.166 C 
HETATM    2  O   UNL     1     -18.724  -5.095  -6.755  1.00  0.00    -0.292 OA
ENDROOT
BRANCH   1   3
HETATM    3  C   UNL     1     -20.734  -4.487  -7.824  1.00  0.00     0.010 A 
HETATM    4  C   UNL     1     -22.021  -3.976  -7.650  1.00  0.00     0.015 A 
HETATM    5  C   UNL     1     -22.823  -3.692  -8.764  1.00  0.00     0.009 A 
HETATM    6  C   UNL     1     -22.367  -3.928 -10.072  1.00  0.00    -0.051 A 
HETATM    7  C   UNL     1     -21.065  -4.437 -10.219  1.00  0.00     0.009 A 
HETATM    8  C   UNL     1     -20.255  -4.713  -9.114  1.00  0.00     0.015 A 
BRANCH   6   9
HETATM    9  C   UNL     1     -23.237  -3.670 -11.316  1.00  0.00    -0.024 C 
HETATM   10  C   UNL     1     -23.443  -4.923 -12.195  1.00  0.00     0.019 C 
HETATM   11  C   UNL     1     -22.564  -2.596 -12.199  1.00  0.00     0.019 C 
HETATM   12  C   UNL     1     -24.635  -3.173 -10.891  1.00  0.00     0.019 C 
ENDBRANCH   6   9
ENDBRANCH   1   3
BRANCH   1  13
HETATM   13  C   UNL     1     -20.557  -4.745  -5.262  1.00  0.00     0.167 C 
BRANCH  13  14
HETATM   14  C   UNL     1     -21.367  -5.979  -4.956  1.00  0.00     0.166 C 
HETATM   15  O   UNL     1     -22.552  -6.055  -5.275  1.00  0.00    -0.292 OA
BRANCH  14  16
HETATM   16  C   UNL     1     -20.712  -7.134  -4.277  1.00  0.00     0.010 A 
HETATM   17  C   UNL     1     -19.899  -8.042  -4.963  1.00  0.00     0.018 A 
HETATM   18  C   UNL     1     -19.295  -9.105  -4.278  1.00  0.00     0.037 A 
HETATM   19  C   UNL     1     -19.505  -9.272  -2.908  1.00  0.00     0.068 A 
HETATM   20  C   UNL     1     -20.323  -8.365  -2.228  1.00  0.00     0.037 A 
HETATM   21  C   UNL     1     -20.918  -7.299  -2.904  1.00  0.00     0.018 A 
BRANCH  19  22
HETATM   22  O   UNL     1     -18.984 -10.266  -2.129  1.00  0.00    -0.356 OA
HETATM   23  C   UNL     1     -19.862 -10.882  -1.196  1.00  0.00     0.210 C 
ENDBRANCH  19  22
ENDBRANCH  14  16
ENDBRANCH  13  14
ENDBRANCH   1  13
TORSDOF 6
ENDMDL
MODEL 9
REMARK VINA RESULT:      -7.7      4.123      6.479
REMARK  6 active torsions:
REMARK  status: ('A' for Active; 'I' for Inactive)
REMARK    1  A    between atoms: C_2  and  C_5 
REMARK    2  A    between atoms: C_8  and  C_11 
REMARK    3  A    between atoms: C_11  and  C_13 
REMARK    4  A    between atoms: C_13  and  C_14 
REMARK    5  A    between atoms: C_14  and  C_16 
REMARK    6  A    between atoms: C_19  and  O_22 
ROOT
HETATM    1  C   UNL     1     -22.714  -8.156   0.023  1.00  0.00     0.166 C 
HETATM    2  O   UNL     1     -23.740  -7.557   0.337  1.00  0.00    -0.292 OA
ENDROOT
BRANCH   1   3
HETATM    3  C   UNL     1     -22.645  -9.637   0.168  1.00  0.00     0.010 A 
HETATM    4  C   UNL     1     -23.797 -10.394  -0.046  1.00  0.00     0.015 A 
HETATM    5  C   UNL     1     -23.761 -11.788   0.093  1.00  0.00     0.009 A 
HETATM    6  C   UNL     1     -22.581 -12.455   0.465  1.00  0.00    -0.051 A 
HETATM    7  C   UNL     1     -21.433 -11.669   0.669  1.00  0.00     0.009 A 
HETATM    8  C   UNL     1     -21.459 -10.279   0.522  1.00  0.00     0.015 A 
BRANCH   6   9
HETATM    9  C   UNL     1     -22.515 -13.979   0.670  1.00  0.00    -0.024 C 
HETATM   10  C   UNL     1     -21.229 -14.622   0.107  1.00  0.00     0.019 C 
HETATM   11  C   UNL     1     -23.711 -14.646  -0.044  1.00  0.00     0.019 C 
HETATM   12  C   UNL     1     -22.574 -14.314   2.176  1.00  0.00     0.019 C 
ENDBRANCH   6   9
ENDBRANCH   1   3
BRANCH   1  13
HETATM   13  C   UNL     1     -21.524  -7.425  -0.547  1.00  0.00     0.167 C 
BRANCH  13  14
HETATM   14  C   UNL     1     -21.762  -6.908  -1.943  1.00  0.00     0.166 C 
HETATM   15  O   UNL     1     -22.578  -6.013  -2.156  1.00  0.00    -0.292 OA
BRANCH  14  16
HETATM   16  C   UNL     1     -20.980  -7.477  -3.078  1.00  0.00     0.010 A 
HETATM   17  C   UNL     1     -21.101  -6.994  -4.385  1.00  0.00     0.018 A 
HETATM   18  C   UNL     1     -20.334  -7.553  -5.417  1.00  0.00     0.037 A 
HETATM   19  C   UNL     1     -19.451  -8.600  -5.151  1.00  0.00     0.068 A 
HETATM   20  C   UNL     1     -19.338  -9.083  -3.845  1.00  0.00     0.037 A 
HETATM   21  C   UNL     1     -20.091  -8.522  -2.812  1.00  0.00     0.018 A 
BRANCH  19  22
HETATM   22  O   UNL     1     -18.657  -9.235  -6.064  1.00  0.00    -0.356 OA
HETATM   23  C   UNL     1     -17.807 -10.265  -5.576  1.00  0.00     0.210 C 
ENDBRANCH  19  22
ENDBRANCH  14  16
ENDBRANCH  13  14
ENDBRANCH   1  13
TORSDOF 6
ENDMDL
