MODEL 1
REMARK VINA RESULT:      -7.0      0.000      0.000
REMARK  18 active torsions:
REMARK  status: ('A' for Active; 'I' for Inactive)
REMARK    1  A    between atoms: CB_2  and  CA_4 
REMARK    2  A    between atoms: CA_4  and  C_5 
REMARK    3  A    between atoms: CA_4  and  N_19 
REMARK       I    between atoms: C_5  and  N_7 
REMARK    4  A    between atoms: N_7  and  CA_8 
REMARK    5  A    between atoms: CA_8  and  CB_9 
REMARK    6  A    between atoms: CA_8  and  C_16 
REMARK    7  A    between atoms: CB_9  and  CG_10 
REMARK    8  A    between atoms: C_16  and  OXT_18 
REMARK       I    between atoms: N_19  and  C_20 
REMARK    9  A    between atoms: C_20  and  CA_22 
REMARK   10  A    between atoms: CA_22  and  CB_23 
REMARK   11  A    between atoms: CA_22  and  N_27 
REMARK   12  A    between atoms: CB_23  and  CG_24 
REMARK   13  A    between atoms: CG_24  and  OD2_26 
REMARK       I    between atoms: N_27  and  C_28 
REMARK   14  A    between atoms: C_28  and  CA_30 
REMARK   15  A    between atoms: CA_30  and  CB_31 
REMARK   16  A    between atoms: CA_30  and  N_36 
REMARK   17  A    between atoms: CB_31  and  CG_32 
REMARK   18  A    between atoms: CG_32  and  CD_33 
REMARK       I    between atoms: CD_33  and  NE2_35 
REMARK       I    between atoms: N_36  and  C_46 
ROOT
ATOM      1  N   GLN A   1     -20.870  -9.279  -4.091  1.00  0.00    -0.346 N 
ATOM      2  C   GLN A   1     -21.504 -10.477  -3.860  1.00  0.00     0.241 C 
ATOM      3  O   GLN A   1     -22.729 -10.536  -3.726  1.00  0.00    -0.271 OA
ATOM      4  H   GLN A   1     -19.857  -9.275  -3.986  1.00  0.00     0.163 HD
ENDROOT
BRANCH   2   5
ATOM      5  CA  GLN A   1     -20.613 -11.743  -3.801  1.00  0.00     0.186 C 
BRANCH   5   6
ATOM      6  CB  GLN A   1     -20.778 -12.686  -5.001  1.00  0.00     0.144 C 
BRANCH   6   7
ATOM      7  CG  GLN A   1     -20.795 -11.968  -6.323  1.00  0.00     0.141 C 
ATOM      8  OD1 GLN A   1     -21.776 -11.908  -7.049  1.00  0.00    -0.650 OA
BRANCH   7   9
ATOM      9  OD2 GLN A   1     -19.610 -11.433  -6.678  1.00  0.00    -0.776 OA
ATOM     10  HD2 GLN A   1     -19.549 -10.457  -6.574  1.00  0.00     0.167 HD
ENDBRANCH   7   9
ENDBRANCH   6   7
ENDBRANCH   5   6
BRANCH   5  11
ATOM     11  N   GLN A   1     -19.225 -11.380  -3.534  1.00  0.00    -0.346 N 
ATOM     12  C   GLN A   1     -18.630 -11.615  -2.311  1.00  0.00     0.241 C 
ATOM     13  O   GLN A   1     -19.212 -12.179  -1.388  1.00  0.00    -0.271 OA
ATOM     14  H   GLN A   1     -18.624 -11.158  -4.323  1.00  0.00     0.163 HD
BRANCH  12  15
ATOM     15  CA  GLN A   1     -17.131 -11.260  -2.266  1.00  0.00     0.177 C 
BRANCH  15  16
ATOM     16  CB  GLN A   1     -16.883  -9.799  -2.667  1.00  0.00     0.044 C 
BRANCH  16  17
ATOM     17  CG  GLN A   1     -15.828  -9.655  -3.769  1.00  0.00     0.105 C 
BRANCH  17  18
ATOM     18  CD  GLN A   1     -16.274 -10.275  -5.074  1.00  0.00     0.215 C 
ATOM     19  OE1 GLN A   1     -17.344 -10.023  -5.617  1.00  0.00    -0.274 OA
ATOM     20  NE2 GLN A   1     -15.364 -11.113  -5.653  1.00  0.00    -0.370 N 
ATOM     21 1HE2 GLN A   1     -14.678 -11.588  -5.083  1.00  0.00     0.159 HD
ATOM     22 2HE2 GLN A   1     -15.705 -11.628  -6.454  1.00  0.00     0.159 HD
ENDBRANCH  17  18
ENDBRANCH  16  17
ENDBRANCH  15  16
BRANCH  15  23
ATOM     23  N   GLN A   1     -16.681 -11.492  -0.894  1.00  0.00    -0.348 N 
HETATM   24  C   UNK A   0     -15.667 -12.366  -0.595  1.00  0.00     0.214 C 
HETATM   25  O   UNK A   0     -15.064 -13.015  -1.442  1.00  0.00    -0.274 OA
HETATM   26  C   UNK A   0     -15.291 -12.417   0.861  1.00  0.00     0.117 C 
ATOM     27  H   GLN A   1     -17.169 -11.002  -0.153  1.00  0.00     0.163 HD
ENDBRANCH  15  23
ENDBRANCH  12  15
ENDBRANCH   5  11
ENDBRANCH   2   5
BRANCH   1  28
ATOM     28  CA  GLN A   1     -21.515  -7.946  -4.074  1.00  0.00     0.180 C 
BRANCH  28  29
ATOM     29  CB  GLN A   1     -21.039  -7.117  -2.840  1.00  0.00     0.009 C 
ATOM     30  CG1 GLN A   1     -22.195  -6.393  -2.129  1.00  0.00     0.012 C 
ATOM     31  CG2 GLN A   1     -20.322  -7.970  -1.782  1.00  0.00     0.012 C 
ENDBRANCH  28  29
BRANCH  28  32
ATOM     32  C   GLN A   1     -21.195  -7.178  -5.399  1.00  0.00     0.241 C 
ATOM     33  O   GLN A   1     -20.331  -7.526  -6.198  1.00  0.00    -0.271 OA
ATOM     34  N   GLN A   1     -21.929  -6.027  -5.602  1.00  0.00    -0.344 N 
ATOM     35  H   GLN A   1     -22.831  -6.021  -5.125  1.00  0.00     0.163 HD
BRANCH  34  36
ATOM     36  CA  GLN A   1     -21.787  -5.218  -6.820  1.00  0.00     0.188 C 
BRANCH  36  37
ATOM     37  CB  GLN A   1     -22.962  -4.268  -7.121  1.00  0.00     0.094 C 
BRANCH  37  38
ATOM     38  CG  GLN A   1     -23.345  -4.208  -8.559  1.00  0.00     0.028 A 
ATOM     39  CD2 GLN A   1     -22.779  -4.770  -9.679  1.00  0.00     0.114 A 
ATOM     40  NE2 GLN A   1     -23.456  -4.399 -10.813  1.00  0.00    -0.360 N 
ATOM     41  CE1 GLN A   1     -24.407  -3.590 -10.392  1.00  0.00     0.180 A 
ATOM     42  HE2 GLN A   1     -23.265  -4.686 -11.774  1.00  0.00     0.166 HD
ATOM     43  ND1 GLN A   1     -24.398  -3.465  -9.028  1.00  0.00    -0.354 N 
ATOM     44  HD1 GLN A   1     -25.038  -2.910  -8.470  1.00  0.00     0.166 HD
ENDBRANCH  37  38
ENDBRANCH  36  37
BRANCH  36  45
ATOM     45  C   GLN A   1     -20.463  -4.438  -6.818  1.00  0.00     0.163 C 
ATOM     46  O   GLN A   1     -19.986  -3.886  -7.802  1.00  0.00    -0.648 OA
BRANCH  45  47
ATOM     47  OXT GLN A   1     -19.802  -4.472  -5.636  1.00  0.00    -0.775 OA
ATOM     48  HXT GLN A   1     -19.151  -5.201  -5.582  1.00  0.00     0.167 HD
ENDBRANCH  45  47
ENDBRANCH  36  45
ENDBRANCH  34  36
ENDBRANCH  28  32
ENDBRANCH   1  28
TORSDOF 18
ENDMDL
MODEL 2
REMARK VINA RESULT:      -6.7      1.824      3.267
REMARK  18 active torsions:
REMARK  status: ('A' for Active; 'I' for Inactive)
REMARK    1  A    between atoms: CB_2  and  CA_4 
REMARK    2  A    between atoms: CA_4  and  C_5 
REMARK    3  A    between atoms: CA_4  and  N_19 
REMARK       I    between atoms: C_5  and  N_7 
REMARK    4  A    between atoms: N_7  and  CA_8 
REMARK    5  A    between atoms: CA_8  and  CB_9 
REMARK    6  A    between atoms: CA_8  and  C_16 
REMARK    7  A    between atoms: CB_9  and  CG_10 
REMARK    8  A    between atoms: C_16  and  OXT_18 
REMARK       I    between atoms: N_19  and  C_20 
REMARK    9  A    between atoms: C_20  and  CA_22 
REMARK   10  A    between atoms: CA_22  and  CB_23 
REMARK   11  A    between atoms: CA_22  and  N_27 
REMARK   12  A    between atoms: CB_23  and  CG_24 
REMARK   13  A    between atoms: CG_24  and  OD2_26 
REMARK       I    between atoms: N_27  and  C_28 
REMARK   14  A    between atoms: C_28  and  CA_30 
REMARK   15  A    between atoms: CA_30  and  CB_31 
REMARK   16  A    between atoms: CA_30  and  N_36 
REMARK   17  A    between atoms: CB_31  and  CG_32 
REMARK   18  A    between atoms: CG_32  and  CD_33 
REMARK       I    between atoms: CD_33  and  NE2_35 
REMARK       I    between atoms: N_36  and  C_46 
ROOT
ATOM      1  N   GLN A   1     -19.974  -8.343  -4.268  1.00  0.00    -0.346 N 
ATOM      2  C   GLN A   1     -20.051  -9.443  -5.090  1.00  0.00     0.241 C 
ATOM      3  O   GLN A   1     -21.040  -9.643  -5.799  1.00  0.00    -0.271 OA
ATOM      4  H   GLN A   1     -19.234  -8.351  -3.569  1.00  0.00     0.163 HD
ENDROOT
BRANCH   2   5
ATOM      5  CA  GLN A   1     -18.832 -10.400  -5.098  1.00  0.00     0.186 C 
BRANCH   5   6
ATOM      6  CB  GLN A   1     -17.731 -10.008  -6.094  1.00  0.00     0.144 C 
BRANCH   6   7
ATOM      7  CG  GLN A   1     -16.363 -10.481  -5.683  1.00  0.00     0.141 C 
ATOM      8  OD1 GLN A   1     -15.948 -11.612  -5.886  1.00  0.00    -0.650 OA
BRANCH   7   9
ATOM      9  OD2 GLN A   1     -15.638  -9.564  -5.013  1.00  0.00    -0.776 OA
ATOM     10  HD2 GLN A   1     -16.062  -9.215  -4.198  1.00  0.00     0.167 HD
ENDBRANCH   7   9
ENDBRANCH   6   7
ENDBRANCH   5   6
BRANCH   5  11
ATOM     11  N   GLN A   1     -18.340 -10.612  -3.741  1.00  0.00    -0.346 N 
ATOM     12  C   GLN A   1     -18.895 -11.556  -2.901  1.00  0.00     0.241 C 
ATOM     13  O   GLN A   1     -19.805 -12.303  -3.253  1.00  0.00    -0.271 OA
ATOM     14  H   GLN A   1     -17.437 -10.221  -3.488  1.00  0.00     0.163 HD
BRANCH  12  15
ATOM     15  CA  GLN A   1     -18.164 -11.702  -1.552  1.00  0.00     0.177 C 
BRANCH  15  16
ATOM     16  CB  GLN A   1     -19.065 -12.342  -0.486  1.00  0.00     0.044 C 
BRANCH  16  17
ATOM     17  CG  GLN A   1     -19.943 -11.318   0.242  1.00  0.00     0.105 C 
BRANCH  17  18
ATOM     18  CD  GLN A   1     -21.416 -11.536  -0.021  1.00  0.00     0.215 C 
ATOM     19  OE1 GLN A   1     -22.014 -11.062  -0.981  1.00  0.00    -0.274 OA
ATOM     20  NE2 GLN A   1     -22.044 -12.357   0.870  1.00  0.00    -0.370 N 
ATOM     21 1HE2 GLN A   1     -21.685 -12.456   1.810  1.00  0.00     0.159 HD
ATOM     22 2HE2 GLN A   1     -23.051 -12.403   0.776  1.00  0.00     0.159 HD
ENDBRANCH  17  18
ENDBRANCH  16  17
ENDBRANCH  15  16
BRANCH  15  23
ATOM     23  N   GLN A   1     -16.991 -12.541  -1.794  1.00  0.00    -0.348 N 
HETATM   24  C   UNK A   0     -15.771 -12.012  -2.131  1.00  0.00     0.214 C 
HETATM   25  O   UNK A   0     -15.568 -10.810  -2.255  1.00  0.00    -0.274 OA
HETATM   26  C   UNK A   0     -14.664 -13.023  -2.266  1.00  0.00     0.117 C 
ATOM     27  H   GLN A   1     -17.114 -13.545  -1.734  1.00  0.00     0.163 HD
ENDBRANCH  15  23
ENDBRANCH  12  15
ENDBRANCH   5  11
ENDBRANCH   2   5
BRANCH   1  28
ATOM     28  CA  GLN A   1     -21.064  -7.371  -4.028  1.00  0.00     0.180 C 
BRANCH  28  29
ATOM     29  CB  GLN A   1     -21.002  -6.820  -2.568  1.00  0.00     0.009 C 
ATOM     30  CG1 GLN A   1     -22.360  -6.289  -2.075  1.00  0.00     0.012 C 
ATOM     31  CG2 GLN A   1     -20.531  -7.869  -1.549  1.00  0.00     0.012 C 
ENDBRANCH  28  29
BRANCH  28  32
ATOM     32  C   GLN A   1     -20.971  -6.193  -5.055  1.00  0.00     0.241 C 
ATOM     33  O   GLN A   1     -20.570  -5.069  -4.770  1.00  0.00    -0.271 OA
ATOM     34  N   GLN A   1     -21.421  -6.487  -6.326  1.00  0.00    -0.344 N 
ATOM     35  H   GLN A   1     -21.371  -7.478  -6.565  1.00  0.00     0.163 HD
BRANCH  34  36
ATOM     36  CA  GLN A   1     -21.352  -5.509  -7.421  1.00  0.00     0.188 C 
BRANCH  36  37
ATOM     37  CB  GLN A   1     -22.364  -4.351  -7.334  1.00  0.00     0.094 C 
BRANCH  37  38
ATOM     38  CG  GLN A   1     -23.081  -4.071  -8.608  1.00  0.00     0.028 A 
ATOM     39  CD2 GLN A   1     -22.665  -4.110  -9.918  1.00  0.00     0.114 A 
ATOM     40  NE2 GLN A   1     -23.670  -3.723 -10.768  1.00  0.00    -0.360 N 
ATOM     41  CE1 GLN A   1     -24.681  -3.416  -9.980  1.00  0.00     0.180 A 
ATOM     42  HE2 GLN A   1     -23.642  -3.681 -11.787  1.00  0.00     0.166 HD
ATOM     43  ND1 GLN A   1     -24.382  -3.638  -8.662  1.00  0.00    -0.354 N 
ATOM     44  HD1 GLN A   1     -24.999  -3.489  -7.871  1.00  0.00     0.166 HD
ENDBRANCH  37  38
ENDBRANCH  36  37
BRANCH  36  45
ATOM     45  C   GLN A   1     -19.927  -4.957  -7.581  1.00  0.00     0.163 C 
ATOM     46  O   GLN A   1     -19.667  -3.824  -7.969  1.00  0.00    -0.648 OA
BRANCH  45  47
ATOM     47  OXT GLN A   1     -18.950  -5.861  -7.332  1.00  0.00    -0.775 OA
ATOM     48  HXT GLN A   1     -18.276  -5.532  -6.702  1.00  0.00     0.167 HD
ENDBRANCH  45  47
ENDBRANCH  36  45
ENDBRANCH  34  36
ENDBRANCH  28  32
ENDBRANCH   1  28
TORSDOF 18
ENDMDL
MODEL 3
REMARK VINA RESULT:      -6.6      2.868      8.180
REMARK  18 active torsions:
REMARK  status: ('A' for Active; 'I' for Inactive)
REMARK    1  A    between atoms: CB_2  and  CA_4 
REMARK    2  A    between atoms: CA_4  and  C_5 
REMARK    3  A    between atoms: CA_4  and  N_19 
REMARK       I    between atoms: C_5  and  N_7 
REMARK    4  A    between atoms: N_7  and  CA_8 
REMARK    5  A    between atoms: CA_8  and  CB_9 
REMARK    6  A    between atoms: CA_8  and  C_16 
REMARK    7  A    between atoms: CB_9  and  CG_10 
REMARK    8  A    between atoms: C_16  and  OXT_18 
REMARK       I    between atoms: N_19  and  C_20 
REMARK    9  A    between atoms: C_20  and  CA_22 
REMARK   10  A    between atoms: CA_22  and  CB_23 
REMARK   11  A    between atoms: CA_22  and  N_27 
REMARK   12  A    between atoms: CB_23  and  CG_24 
REMARK   13  A    between atoms: CG_24  and  OD2_26 
REMARK       I    between atoms: N_27  and  C_28 
REMARK   14  A    between atoms: C_28  and  CA_30 
REMARK   15  A    between atoms: CA_30  and  CB_31 
REMARK   16  A    between atoms: CA_30  and  N_36 
REMARK   17  A    between atoms: CB_31  and  CG_32 
REMARK   18  A    between atoms: CG_32  and  CD_33 
REMARK       I    between atoms: CD_33  and  NE2_35 
REMARK       I    between atoms: N_36  and  C_46 
ROOT
ATOM      1  N   GLN A   1     -17.818 -11.955  -1.469  1.00  0.00    -0.346 N 
ATOM      2  C   GLN A   1     -18.433 -10.882  -2.069  1.00  0.00     0.241 C 
ATOM      3  O   GLN A   1     -17.787 -10.064  -2.730  1.00  0.00    -0.271 OA
ATOM      4  H   GLN A   1     -18.369 -12.465  -0.780  1.00  0.00     0.163 HD
ENDROOT
BRANCH   2   5
ATOM      5  CA  GLN A   1     -19.968 -10.765  -1.897  1.00  0.00     0.186 C 
BRANCH   5   6
ATOM      6  CB  GLN A   1     -20.493 -11.290  -0.553  1.00  0.00     0.144 C 
BRANCH   6   7
ATOM      7  CG  GLN A   1     -21.946 -11.675  -0.592  1.00  0.00     0.141 C 
ATOM      8  OD1 GLN A   1     -22.856 -10.874  -0.743  1.00  0.00    -0.650 OA
BRANCH   7   9
ATOM      9  OD2 GLN A   1     -22.177 -12.988  -0.390  1.00  0.00    -0.776 OA
ATOM     10  HD2 GLN A   1     -22.914 -13.189   0.229  1.00  0.00     0.167 HD
ENDBRANCH   7   9
ENDBRANCH   6   7
ENDBRANCH   5   6
BRANCH   5  11
ATOM     11  N   GLN A   1     -20.415  -9.411  -2.207  1.00  0.00    -0.346 N 
ATOM     12  C   GLN A   1     -21.260  -9.144  -3.265  1.00  0.00     0.241 C 
ATOM     13  O   GLN A   1     -21.721 -10.027  -3.984  1.00  0.00    -0.271 OA
ATOM     14  H   GLN A   1     -20.286  -8.688  -1.505  1.00  0.00     0.163 HD
BRANCH  12  15
ATOM     15  CA  GLN A   1     -21.702  -7.670  -3.358  1.00  0.00     0.177 C 
BRANCH  15  16
ATOM     16  CB  GLN A   1     -21.271  -6.872  -2.118  1.00  0.00     0.044 C 
BRANCH  16  17
ATOM     17  CG  GLN A   1     -22.413  -6.670  -1.115  1.00  0.00     0.105 C 
BRANCH  17  18
ATOM     18  CD  GLN A   1     -22.349  -7.653   0.032  1.00  0.00     0.215 C 
ATOM     19  OE1 GLN A   1     -21.301  -8.082   0.503  1.00  0.00    -0.274 OA
ATOM     20  NE2 GLN A   1     -23.559  -8.001   0.559  1.00  0.00    -0.370 N 
ATOM     21 1HE2 GLN A   1     -24.393  -7.951  -0.009  1.00  0.00     0.159 HD
ATOM     22 2HE2 GLN A   1     -23.531  -8.753   1.237  1.00  0.00     0.159 HD
ENDBRANCH  17  18
ENDBRANCH  16  17
ENDBRANCH  15  16
BRANCH  15  23
ATOM     23  N   GLN A   1     -21.079  -7.115  -4.558  1.00  0.00    -0.348 N 
HETATM   24  C   UNK A   0     -21.759  -6.294  -5.421  1.00  0.00     0.214 C 
HETATM   25  O   UNK A   0     -22.928  -5.963  -5.258  1.00  0.00    -0.274 OA
HETATM   26  C   UNK A   0     -20.934  -5.759  -6.560  1.00  0.00     0.117 C 
ATOM     27  H   GLN A   1     -20.122  -7.384  -4.755  1.00  0.00     0.163 HD
ENDBRANCH  15  23
ENDBRANCH  12  15
ENDBRANCH   5  11
ENDBRANCH   2   5
BRANCH   1  28
ATOM     28  CA  GLN A   1     -16.358 -12.193  -1.416  1.00  0.00     0.180 C 
BRANCH  28  29
ATOM     29  CB  GLN A   1     -15.985 -13.075  -0.182  1.00  0.00     0.009 C 
ATOM     30  CG1 GLN A   1     -15.263 -12.280   0.920  1.00  0.00     0.012 C 
ATOM     31  CG2 GLN A   1     -17.205 -13.743   0.470  1.00  0.00     0.012 C 
ENDBRANCH  28  29
BRANCH  28  32
ATOM     32  C   GLN A   1     -15.877 -12.879  -2.737  1.00  0.00     0.241 C 
ATOM     33  O   GLN A   1     -15.724 -14.090  -2.860  1.00  0.00    -0.271 OA
ATOM     34  N   GLN A   1     -15.581 -12.015  -3.773  1.00  0.00    -0.344 N 
ATOM     35  H   GLN A   1     -16.074 -11.123  -3.722  1.00  0.00     0.163 HD
BRANCH  34  36
ATOM     36  CA  GLN A   1     -15.167 -12.501  -5.096  1.00  0.00     0.188 C 
BRANCH  36  37
ATOM     37  CB  GLN A   1     -15.715 -11.700  -6.293  1.00  0.00     0.094 C 
BRANCH  37  38
ATOM     38  CG  GLN A   1     -17.125 -11.249  -6.130  1.00  0.00     0.028 A 
ATOM     39  CD2 GLN A   1     -17.674  -9.993  -6.015  1.00  0.00     0.114 A 
ATOM     40  NE2 GLN A   1     -19.032 -10.063  -5.834  1.00  0.00    -0.360 N 
ATOM     41  CE1 GLN A   1     -19.304 -11.353  -5.804  1.00  0.00     0.180 A 
ATOM     42  HE2 GLN A   1     -19.688  -9.288  -5.742  1.00  0.00     0.166 HD
ATOM     43  ND1 GLN A   1     -18.183 -12.112  -6.008  1.00  0.00    -0.354 N 
ATOM     44  HD1 GLN A   1     -18.140 -13.125  -6.041  1.00  0.00     0.166 HD
ENDBRANCH  37  38
ENDBRANCH  36  37
BRANCH  36  45
ATOM     45  C   GLN A   1     -13.637 -12.616  -5.191  1.00  0.00     0.163 C 
ATOM     46  O   GLN A   1     -13.016 -12.693  -6.244  1.00  0.00    -0.648 OA
BRANCH  45  47
ATOM     47  OXT GLN A   1     -13.012 -12.707  -3.993  1.00  0.00    -0.775 OA
ATOM     48  HXT GLN A   1     -13.293 -13.488  -3.473  1.00  0.00     0.167 HD
ENDBRANCH  45  47
ENDBRANCH  36  45
ENDBRANCH  34  36
ENDBRANCH  28  32
ENDBRANCH   1  28
TORSDOF 18
ENDMDL
MODEL 4
REMARK VINA RESULT:      -6.6      2.579      5.013
REMARK  18 active torsions:
REMARK  status: ('A' for Active; 'I' for Inactive)
REMARK    1  A    between atoms: CB_2  and  CA_4 
REMARK    2  A    between atoms: CA_4  and  C_5 
REMARK    3  A    between atoms: CA_4  and  N_19 
REMARK       I    between atoms: C_5  and  N_7 
REMARK    4  A    between atoms: N_7  and  CA_8 
REMARK    5  A    between atoms: CA_8  and  CB_9 
REMARK    6  A    between atoms: CA_8  and  C_16 
REMARK    7  A    between atoms: CB_9  and  CG_10 
REMARK    8  A    between atoms: C_16  and  OXT_18 
REMARK       I    between atoms: N_19  and  C_20 
REMARK    9  A    between atoms: C_20  and  CA_22 
REMARK   10  A    between atoms: CA_22  and  CB_23 
REMARK   11  A    between atoms: CA_22  and  N_27 
REMARK   12  A    between atoms: CB_23  and  CG_24 
REMARK   13  A    between atoms: CG_24  and  OD2_26 
REMARK       I    between atoms: N_27  and  C_28 
REMARK   14  A    between atoms: C_28  and  CA_30 
REMARK   15  A    between atoms: CA_30  and  CB_31 
REMARK   16  A    between atoms: CA_30  and  N_36 
REMARK   17  A    between atoms: CB_31  and  CG_32 
REMARK   18  A    between atoms: CG_32  and  CD_33 
REMARK       I    between atoms: CD_33  and  NE2_35 
REMARK       I    between atoms: N_36  and  C_46 
ROOT
ATOM      1  N   GLN A   1     -21.231  -6.576  -6.221  1.00  0.00    -0.346 N 
ATOM      2  C   GLN A   1     -21.653  -7.289  -5.124  1.00  0.00     0.241 C 
ATOM      3  O   GLN A   1     -22.429  -6.794  -4.302  1.00  0.00    -0.271 OA
ATOM      4  H   GLN A   1     -20.443  -6.964  -6.737  1.00  0.00     0.163 HD
ENDROOT
BRANCH   2   5
ATOM      5  CA  GLN A   1     -21.128  -8.739  -4.984  1.00  0.00     0.186 C 
BRANCH   5   6
ATOM      6  CB  GLN A   1     -19.647  -8.912  -5.352  1.00  0.00     0.144 C 
BRANCH   6   7
ATOM      7  CG  GLN A   1     -18.812  -9.442  -4.219  1.00  0.00     0.141 C 
ATOM      8  OD1 GLN A   1     -18.737  -8.907  -3.124  1.00  0.00    -0.650 OA
BRANCH   7   9
ATOM      9  OD2 GLN A   1     -18.095 -10.541  -4.527  1.00  0.00    -0.776 OA
ATOM     10  HD2 GLN A   1     -17.474 -10.434  -5.282  1.00  0.00     0.167 HD
ENDBRANCH   7   9
ENDBRANCH   6   7
ENDBRANCH   5   6
BRANCH   5  11
ATOM     11  N   GLN A   1     -21.468  -9.281  -3.672  1.00  0.00    -0.346 N 
ATOM     12  C   GLN A   1     -22.106 -10.496  -3.525  1.00  0.00     0.241 C 
ATOM     13  O   GLN A   1     -22.390 -11.215  -4.481  1.00  0.00    -0.271 OA
ATOM     14  H   GLN A   1     -21.031  -8.870  -2.852  1.00  0.00     0.163 HD
BRANCH  12  15
ATOM     15  CA  GLN A   1     -22.277 -10.941  -2.060  1.00  0.00     0.177 C 
BRANCH  15  16
ATOM     16  CB  GLN A   1     -21.212 -11.970  -1.654  1.00  0.00     0.044 C 
BRANCH  16  17
ATOM     17  CG  GLN A   1     -20.067 -11.353  -0.844  1.00  0.00     0.105 C 
BRANCH  17  18
ATOM     18  CD  GLN A   1     -18.912 -12.313  -0.661  1.00  0.00     0.215 C 
ATOM     19  OE1 GLN A   1     -18.733 -13.303  -1.360  1.00  0.00    -0.274 OA
ATOM     20  NE2 GLN A   1     -18.030 -11.969   0.324  1.00  0.00    -0.370 N 
ATOM     21 1HE2 GLN A   1     -18.334 -11.399   1.101  1.00  0.00     0.159 HD
ATOM     22 2HE2 GLN A   1     -17.332 -12.670   0.537  1.00  0.00     0.159 HD
ENDBRANCH  17  18
ENDBRANCH  16  17
ENDBRANCH  15  16
BRANCH  15  23
ATOM     23  N   GLN A   1     -22.160  -9.740  -1.235  1.00  0.00    -0.348 N 
HETATM   24  C   UNK A   0     -23.053  -9.450  -0.234  1.00  0.00     0.214 C 
HETATM   25  O   UNK A   0     -24.008 -10.166   0.046  1.00  0.00    -0.274 OA
HETATM   26  C   UNK A   0     -22.729  -8.212   0.557  1.00  0.00     0.117 C 
ATOM     27  H   GLN A   1     -21.404  -9.098  -1.447  1.00  0.00     0.163 HD
ENDBRANCH  15  23
ENDBRANCH  12  15
ENDBRANCH   5  11
ENDBRANCH   2   5
BRANCH   1  28
ATOM     28  CA  GLN A   1     -21.522  -5.149  -6.485  1.00  0.00     0.180 C 
BRANCH  28  29
ATOM     29  CB  GLN A   1     -20.265  -4.266  -6.201  1.00  0.00     0.009 C 
ATOM     30  CG1 GLN A   1     -19.733  -4.434  -4.767  1.00  0.00     0.012 C 
ATOM     31  CG2 GLN A   1     -19.096  -4.561  -7.153  1.00  0.00     0.012 C 
ENDBRANCH  28  29
BRANCH  28  32
ATOM     32  C   GLN A   1     -21.992  -4.961  -7.966  1.00  0.00     0.241 C 
ATOM     33  O   GLN A   1     -21.793  -5.784  -8.855  1.00  0.00    -0.271 OA
ATOM     34  N   GLN A   1     -22.620  -3.761  -8.235  1.00  0.00    -0.344 N 
ATOM     35  H   GLN A   1     -23.064  -3.334  -7.421  1.00  0.00     0.163 HD
BRANCH  34  36
ATOM     36  CA  GLN A   1     -23.168  -3.451  -9.562  1.00  0.00     0.188 C 
BRANCH  36  37
ATOM     37  CB  GLN A   1     -22.260  -3.816 -10.752  1.00  0.00     0.094 C 
BRANCH  37  38
ATOM     38  CG  GLN A   1     -22.683  -3.217 -12.048  1.00  0.00     0.028 A 
ATOM     39  CD2 GLN A   1     -23.721  -2.374 -12.369  1.00  0.00     0.114 A 
ATOM     40  NE2 GLN A   1     -23.752  -2.120 -13.717  1.00  0.00    -0.360 N 
ATOM     41  CE1 GLN A   1     -22.761  -2.829 -14.219  1.00  0.00     0.180 A 
ATOM     42  HE2 GLN A   1     -24.399  -1.514 -14.221  1.00  0.00     0.166 HD
ATOM     43  ND1 GLN A   1     -22.065  -3.490 -13.241  1.00  0.00    -0.354 N 
ATOM     44  HD1 GLN A   1     -21.257  -4.088 -13.377  1.00  0.00     0.166 HD
ENDBRANCH  37  38
ENDBRANCH  36  37
BRANCH  36  45
ATOM     45  C   GLN A   1     -24.560  -4.076  -9.747  1.00  0.00     0.163 C 
ATOM     46  O   GLN A   1     -24.754  -5.241 -10.073  1.00  0.00    -0.648 OA
BRANCH  45  47
ATOM     47  OXT GLN A   1     -25.585  -3.203  -9.597  1.00  0.00    -0.775 OA
ATOM     48  HXT GLN A   1     -25.393  -2.319  -9.973  1.00  0.00     0.167 HD
ENDBRANCH  45  47
ENDBRANCH  36  45
ENDBRANCH  34  36
ENDBRANCH  28  32
ENDBRANCH   1  28
TORSDOF 18
ENDMDL
MODEL 5
REMARK VINA RESULT:      -6.6      2.672      8.737
REMARK  18 active torsions:
REMARK  status: ('A' for Active; 'I' for Inactive)
REMARK    1  A    between atoms: CB_2  and  CA_4 
REMARK    2  A    between atoms: CA_4  and  C_5 
REMARK    3  A    between atoms: CA_4  and  N_19 
REMARK       I    between atoms: C_5  and  N_7 
REMARK    4  A    between atoms: N_7  and  CA_8 
REMARK    5  A    between atoms: CA_8  and  CB_9 
REMARK    6  A    between atoms: CA_8  and  C_16 
REMARK    7  A    between atoms: CB_9  and  CG_10 
REMARK    8  A    between atoms: C_16  and  OXT_18 
REMARK       I    between atoms: N_19  and  C_20 
REMARK    9  A    between atoms: C_20  and  CA_22 
REMARK   10  A    between atoms: CA_22  and  CB_23 
REMARK   11  A    between atoms: CA_22  and  N_27 
REMARK   12  A    between atoms: CB_23  and  CG_24 
REMARK   13  A    between atoms: CG_24  and  OD2_26 
REMARK       I    between atoms: N_27  and  C_28 
REMARK   14  A    between atoms: C_28  and  CA_30 
REMARK   15  A    between atoms: CA_30  and  CB_31 
REMARK   16  A    between atoms: CA_30  and  N_36 
REMARK   17  A    between atoms: CB_31  and  CG_32 
REMARK   18  A    between atoms: CG_32  and  CD_33 
REMARK       I    between atoms: CD_33  and  NE2_35 
REMARK       I    between atoms: N_36  and  C_46 
ROOT
ATOM      1  N   GLN A   1     -21.003 -10.717  -1.745  1.00  0.00    -0.346 N 
ATOM      2  C   GLN A   1     -20.287 -10.716  -2.918  1.00  0.00     0.241 C 
ATOM      3  O   GLN A   1     -19.053 -10.679  -2.912  1.00  0.00    -0.271 OA
ATOM      4  H   GLN A   1     -22.003 -10.542  -1.826  1.00  0.00     0.163 HD
ENDROOT
BRANCH   2   5
ATOM      5  CA  GLN A   1     -21.097 -10.787  -4.237  1.00  0.00     0.186 C 
BRANCH   5   6
ATOM      6  CB  GLN A   1     -22.251 -11.800  -4.213  1.00  0.00     0.144 C 
BRANCH   6   7
ATOM      7  CG  GLN A   1     -22.232 -12.749  -5.380  1.00  0.00     0.141 C 
ATOM      8  OD1 GLN A   1     -23.228 -13.062  -6.015  1.00  0.00    -0.650 OA
BRANCH   7   9
ATOM      9  OD2 GLN A   1     -21.022 -13.278  -5.645  1.00  0.00    -0.776 OA
ATOM     10  HD2 GLN A   1     -20.967 -13.789  -6.484  1.00  0.00     0.167 HD
ENDBRANCH   7   9
ENDBRANCH   6   7
ENDBRANCH   5   6
BRANCH   5  11
ATOM     11  N   GLN A   1     -21.505  -9.451  -4.659  1.00  0.00    -0.346 N 
ATOM     12  C   GLN A   1     -20.664  -8.621  -5.371  1.00  0.00     0.241 C 
ATOM     13  O   GLN A   1     -19.540  -8.965  -5.731  1.00  0.00    -0.271 OA
ATOM     14  H   GLN A   1     -22.492  -9.215  -4.625  1.00  0.00     0.163 HD
BRANCH  12  15
ATOM     15  CA  GLN A   1     -21.319  -7.298  -5.816  1.00  0.00     0.177 C 
BRANCH  15  16
ATOM     16  CB  GLN A   1     -22.176  -6.688  -4.697  1.00  0.00     0.044 C 
BRANCH  16  17
ATOM     17  CG  GLN A   1     -21.339  -5.987  -3.622  1.00  0.00     0.105 C 
BRANCH  17  18
ATOM     18  CD  GLN A   1     -21.400  -6.702  -2.291  1.00  0.00     0.215 C 
ATOM     19  OE1 GLN A   1     -20.624  -7.592  -1.961  1.00  0.00    -0.274 OA
ATOM     20  NE2 GLN A   1     -22.364  -6.248  -1.438  1.00  0.00    -0.370 N 
ATOM     21 1HE2 GLN A   1     -23.193  -5.798  -1.802  1.00  0.00     0.159 HD
ATOM     22 2HE2 GLN A   1     -22.494  -6.804  -0.603  1.00  0.00     0.159 HD
ENDBRANCH  17  18
ENDBRANCH  16  17
ENDBRANCH  15  16
BRANCH  15  23
ATOM     23  N   GLN A   1     -20.233  -6.388  -6.176  1.00  0.00    -0.348 N 
HETATM   24  C   UNK A   0     -20.335  -5.507  -7.223  1.00  0.00     0.214 C 
HETATM   25  O   UNK A   0     -21.330  -5.415  -7.933  1.00  0.00    -0.274 OA
HETATM   26  C   UNK A   0     -19.149  -4.598  -7.396  1.00  0.00     0.117 C 
ATOM     27  H   GLN A   1     -19.376  -6.447  -5.639  1.00  0.00     0.163 HD
ENDBRANCH  15  23
ENDBRANCH  12  15
ENDBRANCH   5  11
ENDBRANCH   2   5
BRANCH   1  28
ATOM     28  CA  GLN A   1     -20.436 -10.544  -0.389  1.00  0.00     0.180 C 
BRANCH  28  29
ATOM     29  CB  GLN A   1     -21.525 -10.029   0.605  1.00  0.00     0.009 C 
ATOM     30  CG1 GLN A   1     -21.085  -8.767   1.367  1.00  0.00     0.012 C 
ATOM     31  CG2 GLN A   1     -22.859  -9.699  -0.082  1.00  0.00     0.012 C 
ENDBRANCH  28  29
BRANCH  28  32
ATOM     32  C   GLN A   1     -19.836 -11.897   0.120  1.00  0.00     0.241 C 
ATOM     33  O   GLN A   1     -20.511 -12.814   0.576  1.00  0.00    -0.271 OA
ATOM     34  N   GLN A   1     -18.459 -11.984   0.067  1.00  0.00    -0.344 N 
ATOM     35  H   GLN A   1     -18.032 -11.382  -0.638  1.00  0.00     0.163 HD
BRANCH  34  36
ATOM     36  CA  GLN A   1     -17.742 -13.206   0.457  1.00  0.00     0.188 C 
BRANCH  36  37
ATOM     37  CB  GLN A   1     -17.323 -14.124  -0.707  1.00  0.00     0.094 C 
BRANCH  37  38
ATOM     38  CG  GLN A   1     -16.396 -13.486  -1.683  1.00  0.00     0.028 A 
ATOM     39  CD2 GLN A   1     -15.030 -13.557  -1.826  1.00  0.00     0.114 A 
ATOM     40  NE2 GLN A   1     -14.599 -12.753  -2.851  1.00  0.00    -0.360 N 
ATOM     41  CE1 GLN A   1     -15.689 -12.170  -3.307  1.00  0.00     0.180 A 
ATOM     42  HE2 GLN A   1     -13.643 -12.633  -3.187  1.00  0.00     0.166 HD
ATOM     43  ND1 GLN A   1     -16.809 -12.604  -2.649  1.00  0.00    -0.354 N 
ATOM     44  HD1 GLN A   1     -17.764 -12.312  -2.827  1.00  0.00     0.166 HD
ENDBRANCH  37  38
ENDBRANCH  36  37
BRANCH  36  45
ATOM     45  C   GLN A   1     -16.525 -12.878   1.337  1.00  0.00     0.163 C 
ATOM     46  O   GLN A   1     -16.015 -13.662   2.128  1.00  0.00    -0.648 OA
BRANCH  45  47
ATOM     47  OXT GLN A   1     -16.093 -11.599   1.230  1.00  0.00    -0.775 OA
ATOM     48  HXT GLN A   1     -15.203 -11.528   0.827  1.00  0.00     0.167 HD
ENDBRANCH  45  47
ENDBRANCH  36  45
ENDBRANCH  34  36
ENDBRANCH  28  32
ENDBRANCH   1  28
TORSDOF 18
ENDMDL
MODEL 6
REMARK VINA RESULT:      -6.5      3.556      5.530
REMARK  18 active torsions:
REMARK  status: ('A' for Active; 'I' for Inactive)
REMARK    1  A    between atoms: CB_2  and  CA_4 
REMARK    2  A    between atoms: CA_4  and  C_5 
REMARK    3  A    between atoms: CA_4  and  N_19 
REMARK       I    between atoms: C_5  and  N_7 
REMARK    4  A    between atoms: N_7  and  CA_8 
REMARK    5  A    between atoms: CA_8  and  CB_9 
REMARK    6  A    between atoms: CA_8  and  C_16 
REMARK    7  A    between atoms: CB_9  and  CG_10 
REMARK    8  A    between atoms: C_16  and  OXT_18 
REMARK       I    between atoms: N_19  and  C_20 
REMARK    9  A    between atoms: C_20  and  CA_22 
REMARK   10  A    between atoms: CA_22  and  CB_23 
REMARK   11  A    between atoms: CA_22  and  N_27 
REMARK   12  A    between atoms: CB_23  and  CG_24 
REMARK   13  A    between atoms: CG_24  and  OD2_26 
REMARK       I    between atoms: N_27  and  C_28 
REMARK   14  A    between atoms: C_28  and  CA_30 
REMARK   15  A    between atoms: CA_30  and  CB_31 
REMARK   16  A    between atoms: CA_30  and  N_36 
REMARK   17  A    between atoms: CB_31  and  CG_32 
REMARK   18  A    between atoms: CG_32  and  CD_33 
REMARK       I    between atoms: CD_33  and  NE2_35 
REMARK       I    between atoms: N_36  and  C_46 
ROOT
ATOM      1  N   GLN A   1     -20.514 -12.481  -1.751  1.00  0.00    -0.346 N 
ATOM      2  C   GLN A   1     -20.614 -12.262  -3.105  1.00  0.00     0.241 C 
ATOM      3  O   GLN A   1     -21.535 -11.591  -3.576  1.00  0.00    -0.271 OA
ATOM      4  H   GLN A   1     -19.860 -13.203  -1.456  1.00  0.00     0.163 HD
ENDROOT
BRANCH   2   5
ATOM      5  CA  GLN A   1     -19.507 -12.875  -3.998  1.00  0.00     0.186 C 
BRANCH   5   6
ATOM      6  CB  GLN A   1     -19.984 -13.282  -5.401  1.00  0.00     0.144 C 
BRANCH   6   7
ATOM      7  CG  GLN A   1     -19.384 -12.446  -6.498  1.00  0.00     0.141 C 
ATOM      8  OD1 GLN A   1     -19.896 -11.423  -6.927  1.00  0.00    -0.650 OA
BRANCH   7   9
ATOM      9  OD2 GLN A   1     -18.247 -12.948  -7.018  1.00  0.00    -0.776 OA
ATOM     10  HD2 GLN A   1     -17.419 -12.607  -6.611  1.00  0.00     0.167 HD
ENDBRANCH   7   9
ENDBRANCH   6   7
ENDBRANCH   5   6
BRANCH   5  11
ATOM     11  N   GLN A   1     -18.327 -12.017  -4.012  1.00  0.00    -0.346 N 
ATOM     12  C   GLN A   1     -17.072 -12.495  -3.695  1.00  0.00     0.241 C 
ATOM     13  O   GLN A   1     -16.861 -13.675  -3.423  1.00  0.00    -0.271 OA
ATOM     14  H   GLN A   1     -18.391 -11.116  -4.477  1.00  0.00     0.163 HD
BRANCH  12  15
ATOM     15  CA  GLN A   1     -15.944 -11.461  -3.875  1.00  0.00     0.177 C 
BRANCH  15  16
ATOM     16  CB  GLN A   1     -15.501 -10.868  -2.530  1.00  0.00     0.044 C 
BRANCH  16  17
ATOM     17  CG  GLN A   1     -16.431 -11.254  -1.375  1.00  0.00     0.105 C 
BRANCH  17  18
ATOM     18  CD  GLN A   1     -15.715 -12.043  -0.301  1.00  0.00     0.215 C 
ATOM     19  OE1 GLN A   1     -15.594 -11.661   0.857  1.00  0.00    -0.274 OA
ATOM     20  NE2 GLN A   1     -15.245 -13.261  -0.700  1.00  0.00    -0.370 N 
ATOM     21 1HE2 GLN A   1     -15.024 -13.426  -1.673  1.00  0.00     0.159 HD
ATOM     22 2HE2 GLN A   1     -14.655 -13.734  -0.027  1.00  0.00     0.159 HD
ENDBRANCH  17  18
ENDBRANCH  16  17
ENDBRANCH  15  16
BRANCH  15  23
ATOM     23  N   GLN A   1     -14.828 -12.157  -4.513  1.00  0.00    -0.348 N 
HETATM   24  C   UNK A   0     -14.678 -12.202  -5.876  1.00  0.00     0.214 C 
HETATM   25  O   UNK A   0     -15.456 -11.669  -6.659  1.00  0.00    -0.274 OA
HETATM   26  C   UNK A   0     -13.430 -12.898  -6.348  1.00  0.00     0.117 C 
ATOM     27  H   GLN A   1     -14.172 -12.641  -3.910  1.00  0.00     0.163 HD
ENDBRANCH  15  23
ENDBRANCH  12  15
ENDBRANCH   5  11
ENDBRANCH   2   5
BRANCH   1  28
ATOM     28  CA  GLN A   1     -21.517 -12.081  -0.738  1.00  0.00     0.180 C 
BRANCH  28  29
ATOM     29  CB  GLN A   1     -21.529 -13.088   0.456  1.00  0.00     0.009 C 
ATOM     30  CG1 GLN A   1     -22.905 -13.185   1.138  1.00  0.00     0.012 C 
ATOM     31  CG2 GLN A   1     -21.127 -14.513   0.045  1.00  0.00     0.012 C 
ENDBRANCH  28  29
BRANCH  28  32
ATOM     32  C   GLN A   1     -21.215 -10.635  -0.223  1.00  0.00     0.241 C 
ATOM     33  O   GLN A   1     -20.808 -10.384   0.907  1.00  0.00    -0.271 OA
ATOM     34  N   GLN A   1     -21.485  -9.624  -1.124  1.00  0.00    -0.344 N 
ATOM     35  H   GLN A   1     -21.448  -9.918  -2.100  1.00  0.00     0.163 HD
BRANCH  34  36
ATOM     36  CA  GLN A   1     -21.207  -8.214  -0.816  1.00  0.00     0.188 C 
BRANCH  36  37
ATOM     37  CB  GLN A   1     -20.411  -7.450  -1.891  1.00  0.00     0.094 C 
BRANCH  37  38
ATOM     38  CG  GLN A   1     -20.545  -8.012  -3.264  1.00  0.00     0.028 A 
ATOM     39  CD2 GLN A   1     -19.672  -8.734  -4.044  1.00  0.00     0.114 A 
ATOM     40  NE2 GLN A   1     -20.216  -9.002  -5.274  1.00  0.00    -0.360 N 
ATOM     41  CE1 GLN A   1     -21.398  -8.418  -5.258  1.00  0.00     0.180 A 
ATOM     42  HE2 GLN A   1     -19.798  -9.536  -6.037  1.00  0.00     0.166 HD
ATOM     43  ND1 GLN A   1     -21.654  -7.829  -4.048  1.00  0.00    -0.354 N 
ATOM     44  HD1 GLN A   1     -22.499  -7.330  -3.789  1.00  0.00     0.166 HD
ENDBRANCH  37  38
ENDBRANCH  36  37
BRANCH  36  45
ATOM     45  C   GLN A   1     -22.499  -7.456  -0.474  1.00  0.00     0.163 C 
ATOM     46  O   GLN A   1     -23.319  -7.830   0.356  1.00  0.00    -0.648 OA
BRANCH  45  47
ATOM     47  OXT GLN A   1     -22.714  -6.355  -1.234  1.00  0.00    -0.775 OA
ATOM     48  HXT GLN A   1     -23.652  -6.244  -1.490  1.00  0.00     0.167 HD
ENDBRANCH  45  47
ENDBRANCH  36  45
ENDBRANCH  34  36
ENDBRANCH  28  32
ENDBRANCH   1  28
TORSDOF 18
ENDMDL
MODEL 7
REMARK VINA RESULT:      -6.5      3.705      7.340
REMARK  18 active torsions:
REMARK  status: ('A' for Active; 'I' for Inactive)
REMARK    1  A    between atoms: CB_2  and  CA_4 
REMARK    2  A    between atoms: CA_4  and  C_5 
REMARK    3  A    between atoms: CA_4  and  N_19 
REMARK       I    between atoms: C_5  and  N_7 
REMARK    4  A    between atoms: N_7  and  CA_8 
REMARK    5  A    between atoms: CA_8  and  CB_9 
REMARK    6  A    between atoms: CA_8  and  C_16 
REMARK    7  A    between atoms: CB_9  and  CG_10 
REMARK    8  A    between atoms: C_16  and  OXT_18 
REMARK       I    between atoms: N_19  and  C_20 
REMARK    9  A    between atoms: C_20  and  CA_22 
REMARK   10  A    between atoms: CA_22  and  CB_23 
REMARK   11  A    between atoms: CA_22  and  N_27 
REMARK   12  A    between atoms: CB_23  and  CG_24 
REMARK   13  A    between atoms: CG_24  and  OD2_26 
REMARK       I    between atoms: N_27  and  C_28 
REMARK   14  A    between atoms: C_28  and  CA_30 
REMARK   15  A    between atoms: CA_30  and  CB_31 
REMARK   16  A    between atoms: CA_30  and  N_36 
REMARK   17  A    between atoms: CB_31  and  CG_32 
REMARK   18  A    between atoms: CG_32  and  CD_33 
REMARK       I    between atoms: CD_33  and  NE2_35 
REMARK       I    between atoms: N_36  and  C_46 
ROOT
ATOM      1  N   GLN A   1     -19.429  -8.781  -5.537  1.00  0.00    -0.346 N 
ATOM      2  C   GLN A   1     -18.317  -9.404  -5.021  1.00  0.00     0.241 C 
ATOM      3  O   GLN A   1     -18.012  -9.281  -3.831  1.00  0.00    -0.271 OA
ATOM      4  H   GLN A   1     -19.503  -8.757  -6.553  1.00  0.00     0.163 HD
ENDROOT
BRANCH   2   5
ATOM      5  CA  GLN A   1     -17.487 -10.280  -5.992  1.00  0.00     0.186 C 
BRANCH   5   6
ATOM      6  CB  GLN A   1     -15.967 -10.124  -5.837  1.00  0.00     0.144 C 
BRANCH   6   7
ATOM      7  CG  GLN A   1     -15.241 -11.439  -5.754  1.00  0.00     0.141 C 
ATOM      8  OD1 GLN A   1     -14.859 -12.065  -6.731  1.00  0.00    -0.650 OA
BRANCH   7   9
ATOM      9  OD2 GLN A   1     -15.088 -11.909  -4.500  1.00  0.00    -0.776 OA
ATOM     10  HD2 GLN A   1     -15.922 -11.995  -3.986  1.00  0.00     0.167 HD
ENDBRANCH   7   9
ENDBRANCH   6   7
ENDBRANCH   5   6
BRANCH   5  11
ATOM     11  N   GLN A   1     -17.937 -11.667  -5.942  1.00  0.00    -0.346 N 
ATOM     12  C   GLN A   1     -18.471 -12.303  -7.044  1.00  0.00     0.241 C 
ATOM     13  O   GLN A   1     -18.563 -11.760  -8.143  1.00  0.00    -0.271 OA
ATOM     14  H   GLN A   1     -17.648 -12.240  -5.154  1.00  0.00     0.163 HD
BRANCH  12  15
ATOM     15  CA  GLN A   1     -18.783 -13.795  -6.816  1.00  0.00     0.177 C 
BRANCH  15  16
ATOM     16  CB  GLN A   1     -20.108 -13.987  -6.066  1.00  0.00     0.044 C 
BRANCH  16  17
ATOM     17  CG  GLN A   1     -21.310 -13.416  -6.826  1.00  0.00     0.105 C 
BRANCH  17  18
ATOM     18  CD  GLN A   1     -21.788 -12.106  -6.242  1.00  0.00     0.215 C 
ATOM     19  OE1 GLN A   1     -21.485 -11.008  -6.695  1.00  0.00    -0.274 OA
ATOM     20  NE2 GLN A   1     -22.643 -12.226  -5.184  1.00  0.00    -0.370 N 
ATOM     21 1HE2 GLN A   1     -22.618 -13.053  -4.603  1.00  0.00     0.159 HD
ATOM     22 2HE2 GLN A   1     -22.862 -11.360  -4.709  1.00  0.00     0.159 HD
ENDBRANCH  17  18
ENDBRANCH  16  17
ENDBRANCH  15  16
BRANCH  15  23
ATOM     23  N   GLN A   1     -18.853 -14.420  -8.136  1.00  0.00    -0.348 N 
HETATM   24  C   UNK A   0     -17.912 -15.319  -8.570  1.00  0.00     0.214 C 
HETATM   25  O   UNK A   0     -16.949 -15.667  -7.896  1.00  0.00    -0.274 OA
HETATM   26  C   UNK A   0     -18.189 -15.914  -9.924  1.00  0.00     0.117 C 
ATOM     27  H   GLN A   1     -19.614 -14.142  -8.745  1.00  0.00     0.163 HD
ENDBRANCH  15  23
ENDBRANCH  12  15
ENDBRANCH   5  11
ENDBRANCH   2   5
BRANCH   1  28
ATOM     28  CA  GLN A   1     -20.291  -7.818  -4.815  1.00  0.00     0.180 C 
BRANCH  28  29
ATOM     29  CB  GLN A   1     -21.226  -7.059  -5.809  1.00  0.00     0.009 C 
ATOM     30  CG1 GLN A   1     -22.351  -6.290  -5.095  1.00  0.00     0.012 C 
ATOM     31  CG2 GLN A   1     -20.475  -6.048  -6.688  1.00  0.00     0.012 C 
ENDBRANCH  28  29
BRANCH  28  32
ATOM     32  C   GLN A   1     -21.141  -8.564  -3.733  1.00  0.00     0.241 C 
ATOM     33  O   GLN A   1     -21.822  -9.558  -3.967  1.00  0.00    -0.271 OA
ATOM     34  N   GLN A   1     -21.118  -7.998  -2.475  1.00  0.00    -0.344 N 
ATOM     35  H   GLN A   1     -20.280  -7.447  -2.284  1.00  0.00     0.163 HD
BRANCH  34  36
ATOM     36  CA  GLN A   1     -21.820  -8.604  -1.336  1.00  0.00     0.188 C 
BRANCH  36  37
ATOM     37  CB  GLN A   1     -20.949  -9.481  -0.417  1.00  0.00     0.094 C 
BRANCH  37  38
ATOM     38  CG  GLN A   1     -21.594 -10.758  -0.001  1.00  0.00     0.028 A 
ATOM     39  CD2 GLN A   1     -22.880 -11.221  -0.148  1.00  0.00     0.114 A 
ATOM     40  NE2 GLN A   1     -23.032 -12.451   0.440  1.00  0.00    -0.360 N 
ATOM     41  CE1 GLN A   1     -21.857 -12.720   0.973  1.00  0.00     0.180 A 
ATOM     42  HE2 GLN A   1     -23.872 -13.030   0.462  1.00  0.00     0.166 HD
ATOM     43  ND1 GLN A   1     -20.943 -11.735   0.707  1.00  0.00    -0.354 N 
ATOM     44  HD1 GLN A   1     -19.972 -11.721   0.998  1.00  0.00     0.166 HD
ENDBRANCH  37  38
ENDBRANCH  36  37
BRANCH  36  45
ATOM     45  C   GLN A   1     -22.557  -7.540  -0.508  1.00  0.00     0.163 C 
ATOM     46  O   GLN A   1     -23.125  -7.763   0.554  1.00  0.00    -0.648 OA
BRANCH  45  47
ATOM     47  OXT GLN A   1     -22.605  -6.318  -1.092  1.00  0.00    -0.775 OA
ATOM     48  HXT GLN A   1     -23.135  -5.671  -0.583  1.00  0.00     0.167 HD
ENDBRANCH  45  47
ENDBRANCH  36  45
ENDBRANCH  34  36
ENDBRANCH  28  32
ENDBRANCH   1  28
TORSDOF 18
ENDMDL
MODEL 8
REMARK VINA RESULT:      -6.5      2.384      4.397
REMARK  18 active torsions:
REMARK  status: ('A' for Active; 'I' for Inactive)
REMARK    1  A    between atoms: CB_2  and  CA_4 
REMARK    2  A    between atoms: CA_4  and  C_5 
REMARK    3  A    between atoms: CA_4  and  N_19 
REMARK       I    between atoms: C_5  and  N_7 
REMARK    4  A    between atoms: N_7  and  CA_8 
REMARK    5  A    between atoms: CA_8  and  CB_9 
REMARK    6  A    between atoms: CA_8  and  C_16 
REMARK    7  A    between atoms: CB_9  and  CG_10 
REMARK    8  A    between atoms: C_16  and  OXT_18 
REMARK       I    between atoms: N_19  and  C_20 
REMARK    9  A    between atoms: C_20  and  CA_22 
REMARK   10  A    between atoms: CA_22  and  CB_23 
REMARK   11  A    between atoms: CA_22  and  N_27 
REMARK   12  A    between atoms: CB_23  and  CG_24 
REMARK   13  A    between atoms: CG_24  and  OD2_26 
REMARK       I    between atoms: N_27  and  C_28 
REMARK   14  A    between atoms: C_28  and  CA_30 
REMARK   15  A    between atoms: CA_30  and  CB_31 
REMARK   16  A    between atoms: CA_30  and  N_36 
REMARK   17  A    between atoms: CB_31  and  CG_32 
REMARK   18  A    between atoms: CG_32  and  CD_33 
REMARK       I    between atoms: CD_33  and  NE2_35 
REMARK       I    between atoms: N_36  and  C_46 
ROOT
ATOM      1  N   GLN A   1     -19.911 -10.209  -0.787  1.00  0.00    -0.346 N 
ATOM      2  C   GLN A   1     -19.450 -11.469  -1.087  1.00  0.00     0.241 C 
ATOM      3  O   GLN A   1     -20.193 -12.320  -1.582  1.00  0.00    -0.271 OA
ATOM      4  H   GLN A   1     -19.309  -9.635  -0.200  1.00  0.00     0.163 HD
ENDROOT
BRANCH   2   5
ATOM      5  CA  GLN A   1     -17.956 -11.757  -0.797  1.00  0.00     0.186 C 
BRANCH   5   6
ATOM      6  CB  GLN A   1     -17.714 -12.676   0.409  1.00  0.00     0.144 C 
BRANCH   6   7
ATOM      7  CG  GLN A   1     -16.260 -12.816   0.768  1.00  0.00     0.141 C 
ATOM      8  OD1 GLN A   1     -15.735 -13.876   1.070  1.00  0.00    -0.650 OA
BRANCH   7   9
ATOM      9  OD2 GLN A   1     -15.579 -11.653   0.783  1.00  0.00    -0.776 OA
ATOM     10  HD2 GLN A   1     -15.248 -11.354  -0.093  1.00  0.00     0.167 HD
ENDBRANCH   7   9
ENDBRANCH   6   7
ENDBRANCH   5   6
BRANCH   5  11
ATOM     11  N   GLN A   1     -17.276 -12.201  -2.010  1.00  0.00    -0.346 N 
ATOM     12  C   GLN A   1     -16.234 -11.487  -2.567  1.00  0.00     0.241 C 
ATOM     13  O   GLN A   1     -15.787 -10.462  -2.059  1.00  0.00    -0.271 OA
ATOM     14  H   GLN A   1     -17.419 -13.157  -2.321  1.00  0.00     0.163 HD
BRANCH  12  15
ATOM     15  CA  GLN A   1     -15.580 -12.178  -3.780  1.00  0.00     0.177 C 
BRANCH  15  16
ATOM     16  CB  GLN A   1     -15.442 -11.217  -4.970  1.00  0.00     0.044 C 
BRANCH  16  17
ATOM     17  CG  GLN A   1     -16.748 -10.487  -5.299  1.00  0.00     0.105 C 
BRANCH  17  18
ATOM     18  CD  GLN A   1     -17.566 -11.215  -6.342  1.00  0.00     0.215 C 
ATOM     19  OE1 GLN A   1     -18.708 -10.899  -6.655  1.00  0.00    -0.274 OA
ATOM     20  NE2 GLN A   1     -16.917 -12.240  -6.968  1.00  0.00    -0.370 N 
ATOM     21 1HE2 GLN A   1     -16.158 -12.720  -6.503  1.00  0.00     0.159 HD
ATOM     22 2HE2 GLN A   1     -17.496 -12.811  -7.570  1.00  0.00     0.159 HD
ENDBRANCH  17  18
ENDBRANCH  16  17
ENDBRANCH  15  16
BRANCH  15  23
ATOM     23  N   GLN A   1     -14.262 -12.639  -3.346  1.00  0.00    -0.348 N 
HETATM   24  C   UNK A   0     -14.096 -13.778  -2.599  1.00  0.00     0.214 C 
HETATM   25  O   UNK A   0     -15.026 -14.492  -2.241  1.00  0.00    -0.274 OA
HETATM   26  C   UNK A   0     -12.664 -14.136  -2.311  1.00  0.00     0.117 C 
ATOM     27  H   GLN A   1     -13.463 -12.066  -3.590  1.00  0.00     0.163 HD
ENDBRANCH  15  23
ENDBRANCH  12  15
ENDBRANCH   5  11
ENDBRANCH   2   5
BRANCH   1  28
ATOM     28  CA  GLN A   1     -21.320  -9.763  -0.881  1.00  0.00     0.180 C 
BRANCH  28  29
ATOM     29  CB  GLN A   1     -21.600  -8.600   0.123  1.00  0.00     0.009 C 
ATOM     30  CG1 GLN A   1     -23.102  -8.367   0.359  1.00  0.00     0.012 C 
ATOM     31  CG2 GLN A   1     -20.957  -8.826   1.500  1.00  0.00     0.012 C 
ENDBRANCH  28  29
BRANCH  28  32
ATOM     32  C   GLN A   1     -21.643  -9.306  -2.342  1.00  0.00     0.241 C 
ATOM     33  O   GLN A   1     -22.322  -9.960  -3.127  1.00  0.00    -0.271 OA
ATOM     34  N   GLN A   1     -21.065  -8.112  -2.725  1.00  0.00    -0.344 N 
ATOM     35  H   GLN A   1     -20.857  -7.484  -1.947  1.00  0.00     0.163 HD
BRANCH  34  36
ATOM     36  CA  GLN A   1     -21.311  -7.517  -4.045  1.00  0.00     0.188 C 
BRANCH  36  37
ATOM     37  CB  GLN A   1     -21.150  -5.986  -4.118  1.00  0.00     0.094 C 
BRANCH  37  38
ATOM     38  CG  GLN A   1     -21.069  -5.447  -5.505  1.00  0.00     0.028 A 
ATOM     39  CD2 GLN A   1     -22.006  -5.364  -6.508  1.00  0.00     0.114 A 
ATOM     40  NE2 GLN A   1     -21.462  -4.828  -7.647  1.00  0.00    -0.360 N 
ATOM     41  CE1 GLN A   1     -20.195  -4.618  -7.353  1.00  0.00     0.180 A 
ATOM     42  HE2 GLN A   1     -21.935  -4.633  -8.530  1.00  0.00     0.166 HD
ATOM     43  ND1 GLN A   1     -19.915  -4.952  -6.054  1.00  0.00    -0.354 N 
ATOM     44  HD1 GLN A   1     -19.016  -4.869  -5.592  1.00  0.00     0.166 HD
ENDBRANCH  37  38
ENDBRANCH  36  37
BRANCH  36  45
ATOM     45  C   GLN A   1     -20.452  -8.192  -5.126  1.00  0.00     0.163 C 
ATOM     46  O   GLN A   1     -19.275  -7.926  -5.337  1.00  0.00    -0.648 OA
BRANCH  45  47
ATOM     47  OXT GLN A   1     -21.129  -9.070  -5.904  1.00  0.00    -0.775 OA
ATOM     48  HXT GLN A   1     -20.620  -9.358  -6.689  1.00  0.00     0.167 HD
ENDBRANCH  45  47
ENDBRANCH  36  45
ENDBRANCH  34  36
ENDBRANCH  28  32
ENDBRANCH   1  28
TORSDOF 18
ENDMDL
MODEL 9
REMARK VINA RESULT:      -6.4      2.234      4.895
REMARK  18 active torsions:
REMARK  status: ('A' for Active; 'I' for Inactive)
REMARK    1  A    between atoms: CB_2  and  CA_4 
REMARK    2  A    between atoms: CA_4  and  C_5 
REMARK    3  A    between atoms: CA_4  and  N_19 
REMARK       I    between atoms: C_5  and  N_7 
REMARK    4  A    between atoms: N_7  and  CA_8 
REMARK    5  A    between atoms: CA_8  and  CB_9 
REMARK    6  A    between atoms: CA_8  and  C_16 
REMARK    7  A    between atoms: CB_9  and  CG_10 
REMARK    8  A    between atoms: C_16  and  OXT_18 
REMARK       I    between atoms: N_19  and  C_20 
REMARK    9  A    between atoms: C_20  and  CA_22 
REMARK   10  A    between atoms: CA_22  and  CB_23 
REMARK   11  A    between atoms: CA_22  and  N_27 
REMARK   12  A    between atoms: CB_23  and  CG_24 
REMARK   13  A    between atoms: CG_24  and  OD2_26 
REMARK       I    between atoms: N_27  and  C_28 
REMARK   14  A    between atoms: C_28  and  CA_30 
REMARK   15  A    between atoms: CA_30  and  CB_31 
REMARK   16  A    between atoms: CA_30  and  N_36 
REMARK   17  A    between atoms: CB_31  and  CG_32 
REMARK   18  A    between atoms: CG_32  and  CD_33 
REMARK       I    between atoms: CD_33  and  NE2_35 
REMARK       I    between atoms: N_36  and  C_46 
ROOT
ATOM      1  N   GLN A   1     -19.857 -10.104  -0.901  1.00  0.00    -0.346 N 
ATOM      2  C   GLN A   1     -19.352 -11.364  -1.116  1.00  0.00     0.241 C 
ATOM      3  O   GLN A   1     -20.085 -12.295  -1.459  1.00  0.00    -0.271 OA
ATOM      4  H   GLN A   1     -19.242  -9.445  -0.426  1.00  0.00     0.163 HD
ENDROOT
BRANCH   2   5
ATOM      5  CA  GLN A   1     -17.826 -11.551  -0.930  1.00  0.00     0.186 C 
BRANCH   5   6
ATOM      6  CB  GLN A   1     -17.443 -12.650   0.071  1.00  0.00     0.144 C 
BRANCH   6   7
ATOM      7  CG  GLN A   1     -16.027 -12.535   0.567  1.00  0.00     0.141 C 
ATOM      8  OD1 GLN A   1     -15.063 -12.998  -0.023  1.00  0.00    -0.650 OA
BRANCH   7   9
ATOM      9  OD2 GLN A   1     -15.906 -11.920   1.759  1.00  0.00    -0.776 OA
ATOM     10  HD2 GLN A   1     -15.323 -12.378   2.405  1.00  0.00     0.167 HD
ENDBRANCH   7   9
ENDBRANCH   6   7
ENDBRANCH   5   6
BRANCH   5  11
ATOM     11  N   GLN A   1     -17.166 -11.688  -2.225  1.00  0.00    -0.346 N 
ATOM     12  C   GLN A   1     -17.075 -10.637  -3.114  1.00  0.00     0.241 C 
ATOM     13  O   GLN A   1     -17.504  -9.514  -2.859  1.00  0.00    -0.271 OA
ATOM     14  H   GLN A   1     -16.572 -12.497  -2.380  1.00  0.00     0.163 HD
BRANCH  12  15
ATOM     15  CA  GLN A   1     -16.247 -10.953  -4.375  1.00  0.00     0.177 C 
BRANCH  15  16
ATOM     16  CB  GLN A   1     -14.948 -11.693  -4.027  1.00  0.00     0.044 C 
BRANCH  16  17
ATOM     17  CG  GLN A   1     -14.823 -13.043  -4.741  1.00  0.00     0.105 C 
BRANCH  17  18
ATOM     18  CD  GLN A   1     -14.167 -14.093  -3.872  1.00  0.00     0.215 C 
ATOM     19  OE1 GLN A   1     -13.130 -14.673  -4.171  1.00  0.00    -0.274 OA
ATOM     20  NE2 GLN A   1     -14.790 -14.323  -2.679  1.00  0.00    -0.370 N 
ATOM     21 1HE2 GLN A   1     -15.779 -14.137  -2.579  1.00  0.00     0.159 HD
ATOM     22 2HE2 GLN A   1     -14.434 -15.111  -2.154  1.00  0.00     0.159 HD
ENDBRANCH  17  18
ENDBRANCH  16  17
ENDBRANCH  15  16
BRANCH  15  23
ATOM     23  N   GLN A   1     -17.087 -11.782  -5.237  1.00  0.00    -0.348 N 
HETATM   24  C   UNK A   0     -17.872 -11.247  -6.227  1.00  0.00     0.214 C 
HETATM   25  O   UNK A   0     -17.931 -10.046  -6.466  1.00  0.00    -0.274 OA
HETATM   26  C   UNK A   0     -18.608 -12.259  -7.062  1.00  0.00     0.117 C 
ATOM     27  H   GLN A   1     -17.097 -12.780  -5.060  1.00  0.00     0.163 HD
ENDBRANCH  15  23
ENDBRANCH  12  15
ENDBRANCH   5  11
ENDBRANCH   2   5
BRANCH   1  28
ATOM     28  CA  GLN A   1     -21.291  -9.736  -0.915  1.00  0.00     0.180 C 
BRANCH  28  29
ATOM     29  CB  GLN A   1     -21.589  -8.627   0.144  1.00  0.00     0.009 C 
ATOM     30  CG1 GLN A   1     -23.093  -8.451   0.412  1.00  0.00     0.012 C 
ATOM     31  CG2 GLN A   1     -20.917  -8.894   1.499  1.00  0.00     0.012 C 
ENDBRANCH  28  29
BRANCH  28  32
ATOM     32  C   GLN A   1     -21.707  -9.248  -2.342  1.00  0.00     0.241 C 
ATOM     33  O   GLN A   1     -22.454  -9.875  -3.087  1.00  0.00    -0.271 OA
ATOM     34  N   GLN A   1     -21.134  -8.059  -2.745  1.00  0.00    -0.344 N 
ATOM     35  H   GLN A   1     -20.858  -7.449  -1.975  1.00  0.00     0.163 HD
BRANCH  34  36
ATOM     36  CA  GLN A   1     -21.460  -7.437  -4.035  1.00  0.00     0.188 C 
BRANCH  36  37
ATOM     37  CB  GLN A   1     -21.227  -5.915  -4.111  1.00  0.00     0.094 C 
BRANCH  37  38
ATOM     38  CG  GLN A   1     -21.270  -5.360  -5.492  1.00  0.00     0.028 A 
ATOM     39  CD2 GLN A   1     -20.284  -4.845  -6.300  1.00  0.00     0.114 A 
ATOM     40  NE2 GLN A   1     -20.803  -4.403  -7.491  1.00  0.00    -0.360 N 
ATOM     41  CE1 GLN A   1     -22.100  -4.613  -7.395  1.00  0.00     0.180 A 
ATOM     42  HE2 GLN A   1     -20.295  -3.999  -8.278  1.00  0.00     0.166 HD
ATOM     43  ND1 GLN A   1     -22.429  -5.219  -6.212  1.00  0.00    -0.354 N 
ATOM     44  HD1 GLN A   1     -23.359  -5.492  -5.913  1.00  0.00     0.166 HD
ENDBRANCH  37  38
ENDBRANCH  36  37
BRANCH  36  45
ATOM     45  C   GLN A   1     -20.732  -8.141  -5.191  1.00  0.00     0.163 C 
ATOM     46  O   GLN A   1     -21.295  -8.634  -6.162  1.00  0.00    -0.648 OA
BRANCH  45  47
ATOM     47  OXT GLN A   1     -19.394  -8.253  -5.018  1.00  0.00    -0.775 OA
ATOM     48  HXT GLN A   1     -18.990  -8.940  -5.587  1.00  0.00     0.167 HD
ENDBRANCH  45  47
ENDBRANCH  36  45
ENDBRANCH  34  36
ENDBRANCH  28  32
ENDBRANCH   1  28
TORSDOF 18
ENDMDL
