MODEL 1
REMARK VINA RESULT:      -5.6      0.000      0.000
REMARK  24 active torsions:
REMARK  status: ('A' for Active; 'I' for Inactive)
REMARK    1  A    between atoms: C_1  and  C_2 
REMARK    2  A    between atoms: C_1  and  O_45 
REMARK    3  A    between atoms: C_3  and  O_44 
REMARK    4  A    between atoms: C_4  and  O_43 
REMARK    5  A    between atoms: C_5  and  O_42 
REMARK    6  A    between atoms: C_6  and  O_8 
REMARK    7  A    between atoms: O_8  and  C_9 
REMARK    8  A    between atoms: C_10  and  C_40 
REMARK    9  A    between atoms: C_12  and  O_17 
REMARK   10  A    between atoms: C_13  and  O_16 
REMARK   11  A    between atoms: C_14  and  O_15 
REMARK   12  A    between atoms: O_17  and  C_18 
REMARK   13  A    between atoms: C_19  and  C_38 
REMARK   14  A    between atoms: C_21  and  O_26 
REMARK   15  A    between atoms: C_22  and  O_25 
REMARK   16  A    between atoms: C_23  and  O_24 
REMARK   17  A    between atoms: O_26  and  C_27 
REMARK   18  A    between atoms: C_28  and  C_36 
REMARK   19  A    between atoms: C_30  and  O_35 
REMARK   20  A    between atoms: C_31  and  O_34 
REMARK   21  A    between atoms: C_32  and  O_33 
REMARK   22  A    between atoms: C_36  and  O_37 
REMARK   23  A    between atoms: C_38  and  O_39 
REMARK   24  A    between atoms: C_40  and  O_41 
ROOT
HETATM    1  O   UNL     1     -20.158  -6.833  -4.740  1.00  0.00    -0.348 OA
ENDROOT
BRANCH   1   2
HETATM    2  C   UNL     1     -20.775  -6.998  -6.047  1.00  0.00     0.292 C 
HETATM    3  O   UNL     1     -19.883  -6.719  -7.128  1.00  0.00    -0.348 OA
HETATM    4  C   UNL     1     -19.832  -5.368  -7.623  1.00  0.00     0.180 C 
HETATM    5  C   UNL     1     -21.225  -4.772  -7.945  1.00  0.00     0.187 C 
HETATM    6  C   UNL     1     -22.064  -4.849  -6.664  1.00  0.00     0.183 C 
HETATM    7  C   UNL     1     -22.165  -6.309  -6.195  1.00  0.00     0.204 C 
BRANCH   4   8
HETATM    8  C   UNL     1     -19.023  -4.440  -6.694  1.00  0.00     0.198 C 
BRANCH   8   9
HETATM    9  O   UNL     1     -17.761  -4.124  -7.251  1.00  0.00    -0.398 OA
HETATM   10  H   UNL     1     -17.873  -3.376  -7.865  1.00  0.00     0.209 HD
ENDBRANCH   8   9
ENDBRANCH   4   8
BRANCH   5  11
HETATM   11  O   UNL     1     -21.822  -5.489  -9.051  1.00  0.00    -0.348 OA
BRANCH  11  12
HETATM   12  C   UNL     1     -22.495  -4.767 -10.109  1.00  0.00     0.292 C 
HETATM   13  C   UNL     1     -21.686  -4.548 -11.415  1.00  0.00     0.204 C 
HETATM   14  C   UNL     1     -22.582  -3.861 -12.457  1.00  0.00     0.183 C 
HETATM   15  C   UNL     1     -23.133  -2.536 -11.897  1.00  0.00     0.180 C 
HETATM   16  C   UNL     1     -23.873  -2.797 -10.570  1.00  0.00     0.179 C 
HETATM   17  O   UNL     1     -23.070  -3.545  -9.618  1.00  0.00    -0.348 OA
BRANCH  13  18
HETATM   18  O   UNL     1     -20.523  -3.705 -11.264  1.00  0.00    -0.388 OA
HETATM   19  H   UNL     1     -19.756  -4.166 -11.682  1.00  0.00     0.210 HD
ENDBRANCH  13  18
BRANCH  14  20
HETATM   20  O   UNL     1     -21.861  -3.633 -13.676  1.00  0.00    -0.390 OA
HETATM   21  H   UNL     1     -21.259  -4.390 -13.810  1.00  0.00     0.210 HD
ENDBRANCH  14  20
BRANCH  15  22
HETATM   22  O   UNL     1     -22.097  -1.579 -11.629  1.00  0.00    -0.390 OA
HETATM   23  H   UNL     1     -21.612  -1.413 -12.464  1.00  0.00     0.210 HD
ENDBRANCH  15  22
BRANCH  16  24
HETATM   24  C   UNL     1     -25.263  -3.425 -10.784  1.00  0.00     0.198 C 
BRANCH  24  25
HETATM   25  O   UNL     1     -26.082  -3.309  -9.630  1.00  0.00    -0.398 OA
HETATM   26  H   UNL     1     -26.848  -3.904  -9.735  1.00  0.00     0.209 HD
ENDBRANCH  24  25
ENDBRANCH  16  24
ENDBRANCH  11  12
ENDBRANCH   5  11
BRANCH   6  27
HETATM   27  O   UNL     1     -23.346  -4.246  -6.871  1.00  0.00    -0.390 OA
HETATM   28  H   UNL     1     -23.199  -3.279  -6.971  1.00  0.00     0.210 HD
ENDBRANCH   6  27
BRANCH   7  29
HETATM   29  O   UNL     1     -22.947  -6.418  -5.003  1.00  0.00    -0.388 OA
HETATM   30  H   UNL     1     -23.632  -7.093  -5.164  1.00  0.00     0.210 HD
ENDBRANCH   7  29
ENDBRANCH   1   2
BRANCH   1  31
HETATM   31  C   UNL     1     -19.712  -8.096  -4.131  1.00  0.00     0.187 C 
HETATM   32  C   UNL     1     -19.096  -9.112  -5.112  1.00  0.00     0.180 C 
HETATM   33  O   UNL     1     -20.078  -9.723  -5.965  1.00  0.00    -0.348 OA
HETATM   34  C   UNL     1     -21.119 -10.481  -5.331  1.00  0.00     0.292 C 
HETATM   35  C   UNL     1     -21.812  -9.647  -4.208  1.00  0.00     0.204 C 
HETATM   36  C   UNL     1     -20.868  -8.780  -3.351  1.00  0.00     0.183 C 
BRANCH  32  37
HETATM   37  C   UNL     1     -18.152 -10.122  -4.422  1.00  0.00     0.198 C 
BRANCH  37  38
HETATM   38  O   UNL     1     -17.680 -11.149  -5.284  1.00  0.00    -0.398 OA
HETATM   39  H   UNL     1     -17.058 -11.707  -4.778  1.00  0.00     0.209 HD
ENDBRANCH  37  38
ENDBRANCH  32  37
BRANCH  34  40
HETATM   40  O   UNL     1     -20.698 -11.831  -4.974  1.00  0.00    -0.348 OA
BRANCH  40  41
HETATM   41  C   UNL     1     -21.167 -12.821  -5.942  1.00  0.00     0.187 C 
HETATM   42  C   UNL     1     -21.687 -14.127  -5.298  1.00  0.00     0.180 C 
HETATM   43  O   UNL     1     -20.611 -14.935  -4.790  1.00  0.00    -0.349 OA
HETATM   44  C   UNL     1     -19.646 -15.358  -5.727  1.00  0.00     0.288 C 
HETATM   45  C   UNL     1     -19.017 -14.190  -6.512  1.00  0.00     0.204 C 
HETATM   46  C   UNL     1     -20.066 -13.169  -6.981  1.00  0.00     0.183 C 
BRANCH  42  47
HETATM   47  C   UNL     1     -22.620 -14.898  -6.258  1.00  0.00     0.198 C 
BRANCH  47  48
HETATM   48  O   UNL     1     -23.054 -16.115  -5.665  1.00  0.00    -0.398 OA
HETATM   49  H   UNL     1     -23.986 -16.224  -5.948  1.00  0.00     0.209 HD
ENDBRANCH  47  48
ENDBRANCH  42  47
BRANCH  44  50
HETATM   50  O   UNL     1     -20.179 -16.350  -6.598  1.00  0.00    -0.369 OA
HETATM   51  H   UNL     1     -21.005 -15.987  -6.971  1.00  0.00     0.212 HD
ENDBRANCH  44  50
BRANCH  45  52
HETATM   52  O   UNL     1     -18.348 -14.741  -7.672  1.00  0.00    -0.388 OA
HETATM   53  H   UNL     1     -18.295 -15.707  -7.557  1.00  0.00     0.210 HD
ENDBRANCH  45  52
BRANCH  46  54
HETATM   54  O   UNL     1     -19.424 -11.984  -7.458  1.00  0.00    -0.390 OA
HETATM   55  H   UNL     1     -19.189 -11.439  -6.676  1.00  0.00     0.210 HD
ENDBRANCH  46  54
ENDBRANCH  40  41
ENDBRANCH  34  40
BRANCH  35  56
HETATM   56  O   UNL     1     -22.638 -10.476  -3.386  1.00  0.00    -0.388 OA
HETATM   57  H   UNL     1     -22.981 -11.189  -3.954  1.00  0.00     0.210 HD
ENDBRANCH  35  56
BRANCH  36  58
HETATM   58  O   UNL     1     -21.596  -7.786  -2.606  1.00  0.00    -0.390 OA
HETATM   59  H   UNL     1     -20.956  -7.094  -2.366  1.00  0.00     0.210 HD
ENDBRANCH  36  58
ENDBRANCH   1  31
TORSDOF 24
ENDMDL
MODEL 2
REMARK VINA RESULT:      -5.1      3.341      4.949
REMARK  24 active torsions:
REMARK  status: ('A' for Active; 'I' for Inactive)
REMARK    1  A    between atoms: C_1  and  C_2 
REMARK    2  A    between atoms: C_1  and  O_45 
REMARK    3  A    between atoms: C_3  and  O_44 
REMARK    4  A    between atoms: C_4  and  O_43 
REMARK    5  A    between atoms: C_5  and  O_42 
REMARK    6  A    between atoms: C_6  and  O_8 
REMARK    7  A    between atoms: O_8  and  C_9 
REMARK    8  A    between atoms: C_10  and  C_40 
REMARK    9  A    between atoms: C_12  and  O_17 
REMARK   10  A    between atoms: C_13  and  O_16 
REMARK   11  A    between atoms: C_14  and  O_15 
REMARK   12  A    between atoms: O_17  and  C_18 
REMARK   13  A    between atoms: C_19  and  C_38 
REMARK   14  A    between atoms: C_21  and  O_26 
REMARK   15  A    between atoms: C_22  and  O_25 
REMARK   16  A    between atoms: C_23  and  O_24 
REMARK   17  A    between atoms: O_26  and  C_27 
REMARK   18  A    between atoms: C_28  and  C_36 
REMARK   19  A    between atoms: C_30  and  O_35 
REMARK   20  A    between atoms: C_31  and  O_34 
REMARK   21  A    between atoms: C_32  and  O_33 
REMARK   22  A    between atoms: C_36  and  O_37 
REMARK   23  A    between atoms: C_38  and  O_39 
REMARK   24  A    between atoms: C_40  and  O_41 
ROOT
HETATM    1  O   UNL     1     -20.636  -8.446  -3.603  1.00  0.00    -0.348 OA
ENDROOT
BRANCH   1   2
HETATM    2  C   UNL     1     -21.559  -7.639  -4.386  1.00  0.00     0.292 C 
HETATM    3  O   UNL     1     -21.522  -7.942  -5.783  1.00  0.00    -0.348 OA
HETATM    4  C   UNL     1     -20.602  -7.202  -6.605  1.00  0.00     0.180 C 
HETATM    5  C   UNL     1     -20.700  -5.666  -6.419  1.00  0.00     0.187 C 
HETATM    6  C   UNL     1     -20.461  -5.369  -4.934  1.00  0.00     0.183 C 
HETATM    7  C   UNL     1     -21.500  -6.112  -4.080  1.00  0.00     0.204 C 
BRANCH   4   8
HETATM    8  C   UNL     1     -19.150  -7.698  -6.443  1.00  0.00     0.198 C 
BRANCH   8   9
HETATM    9  O   UNL     1     -19.110  -9.039  -5.993  1.00  0.00    -0.398 OA
HETATM   10  H   UNL     1     -18.393  -9.500  -6.464  1.00  0.00     0.209 HD
ENDBRANCH   8   9
ENDBRANCH   4   8
BRANCH   5  11
HETATM   11  O   UNL     1     -21.986  -5.197  -6.886  1.00  0.00    -0.348 OA
BRANCH  11  12
HETATM   12  C   UNL     1     -22.096  -4.528  -8.164  1.00  0.00     0.292 C 
HETATM   13  C   UNL     1     -23.512  -4.027  -8.558  1.00  0.00     0.204 C 
HETATM   14  C   UNL     1     -23.425  -3.258  -9.885  1.00  0.00     0.183 C 
HETATM   15  C   UNL     1     -22.810  -4.150 -10.980  1.00  0.00     0.180 C 
HETATM   16  C   UNL     1     -21.436  -4.672 -10.517  1.00  0.00     0.179 C 
HETATM   17  O   UNL     1     -21.488  -5.303  -9.209  1.00  0.00    -0.348 OA
BRANCH  13  18
HETATM   18  O   UNL     1     -24.483  -5.077  -8.761  1.00  0.00    -0.388 OA
HETATM   19  H   UNL     1     -24.829  -4.998  -9.683  1.00  0.00     0.210 HD
ENDBRANCH  13  18
BRANCH  14  20
HETATM   20  O   UNL     1     -24.721  -2.790 -10.286  1.00  0.00    -0.390 OA
HETATM   21  H   UNL     1     -25.116  -3.471 -10.865  1.00  0.00     0.210 HD
ENDBRANCH  14  20
BRANCH  15  22
HETATM   22  O   UNL     1     -23.624  -5.293 -11.281  1.00  0.00    -0.390 OA
HETATM   23  H   UNL     1     -23.698  -5.837 -10.469  1.00  0.00     0.210 HD
ENDBRANCH  15  22
BRANCH  16  24
HETATM   24  C   UNL     1     -20.336  -3.597 -10.605  1.00  0.00     0.198 C 
BRANCH  24  25
HETATM   25  O   UNL     1     -20.593  -2.657 -11.638  1.00  0.00    -0.398 OA
HETATM   26  H   UNL     1     -21.477  -2.840 -12.006  1.00  0.00     0.209 HD
ENDBRANCH  24  25
ENDBRANCH  16  24
ENDBRANCH  11  12
ENDBRANCH   5  11
BRANCH   6  27
HETATM   27  O   UNL     1     -20.465  -3.956  -4.702  1.00  0.00    -0.390 OA
HETATM   28  H   UNL     1     -20.625  -3.521  -5.569  1.00  0.00     0.210 HD
ENDBRANCH   6  27
BRANCH   7  29
HETATM   29  O   UNL     1     -21.309  -5.852  -2.687  1.00  0.00    -0.388 OA
HETATM   30  H   UNL     1     -20.964  -6.670  -2.283  1.00  0.00     0.210 HD
ENDBRANCH   7  29
ENDBRANCH   1   2
BRANCH   1  31
HETATM   31  C   UNL     1     -21.279  -9.569  -2.902  1.00  0.00     0.187 C 
HETATM   32  C   UNL     1     -20.988  -9.647  -1.390  1.00  0.00     0.180 C 
HETATM   33  O   UNL     1     -19.646 -10.072  -1.106  1.00  0.00    -0.348 OA
HETATM   34  C   UNL     1     -19.255 -11.371  -1.574  1.00  0.00     0.292 C 
HETATM   35  C   UNL     1     -19.571 -11.536  -3.094  1.00  0.00     0.204 C 
HETATM   36  C   UNL     1     -20.908 -10.926  -3.560  1.00  0.00     0.183 C 
BRANCH  32  37
HETATM   37  C   UNL     1     -22.070 -10.424  -0.607  1.00  0.00     0.198 C 
BRANCH  37  38
HETATM   38  O   UNL     1     -21.672 -10.798   0.706  1.00  0.00    -0.398 OA
HETATM   39  H   UNL     1     -20.715 -10.625   0.793  1.00  0.00     0.209 HD
ENDBRANCH  37  38
ENDBRANCH  32  37
BRANCH  34  40
HETATM   40  O   UNL     1     -19.702 -12.446  -0.696  1.00  0.00    -0.348 OA
BRANCH  40  41
HETATM   41  C   UNL     1     -18.603 -12.994   0.098  1.00  0.00     0.187 C 
HETATM   42  C   UNL     1     -17.206 -12.756  -0.522  1.00  0.00     0.180 C 
HETATM   43  O   UNL     1     -16.981 -13.601  -1.665  1.00  0.00    -0.349 OA
HETATM   44  C   UNL     1     -17.041 -14.992  -1.440  1.00  0.00     0.288 C 
HETATM   45  C   UNL     1     -18.364 -15.440  -0.787  1.00  0.00     0.204 C 
HETATM   46  C   UNL     1     -18.791 -14.513   0.363  1.00  0.00     0.183 C 
BRANCH  42  47
HETATM   47  C   UNL     1     -16.090 -12.867   0.540  1.00  0.00     0.198 C 
BRANCH  47  48
HETATM   48  O   UNL     1     -16.005 -11.670   1.303  1.00  0.00    -0.398 OA
HETATM   49  H   UNL     1     -15.466 -11.056   0.763  1.00  0.00     0.209 HD
ENDBRANCH  47  48
ENDBRANCH  42  47
BRANCH  44  50
HETATM   50  O   UNL     1     -15.912 -15.439  -0.698  1.00  0.00    -0.369 OA
HETATM   51  H   UNL     1     -15.121 -15.243  -1.237  1.00  0.00     0.212 HD
ENDBRANCH  44  50
BRANCH  45  52
HETATM   52  O   UNL     1     -18.174 -16.776  -0.265  1.00  0.00    -0.388 OA
HETATM   53  H   UNL     1     -18.479 -16.783   0.661  1.00  0.00     0.210 HD
ENDBRANCH  45  52
BRANCH  46  54
HETATM   54  O   UNL     1     -20.137 -14.797   0.754  1.00  0.00    -0.390 OA
HETATM   55  H   UNL     1     -20.682 -14.825  -0.061  1.00  0.00     0.210 HD
ENDBRANCH  46  54
ENDBRANCH  40  41
ENDBRANCH  34  40
BRANCH  35  56
HETATM   56  O   UNL     1     -19.459 -12.903  -3.499  1.00  0.00    -0.388 OA
HETATM   57  H   UNL     1     -20.159 -13.395  -3.034  1.00  0.00     0.210 HD
ENDBRANCH  35  56
BRANCH  36  58
HETATM   58  O   UNL     1     -20.955 -10.791  -4.993  1.00  0.00    -0.390 OA
HETATM   59  H   UNL     1     -21.766 -10.294  -5.200  1.00  0.00     0.210 HD
ENDBRANCH  36  58
ENDBRANCH   1  31
TORSDOF 24
ENDMDL
MODEL 3
REMARK VINA RESULT:      -5.1      4.557      7.454
REMARK  24 active torsions:
REMARK  status: ('A' for Active; 'I' for Inactive)
REMARK    1  A    between atoms: C_1  and  C_2 
REMARK    2  A    between atoms: C_1  and  O_45 
REMARK    3  A    between atoms: C_3  and  O_44 
REMARK    4  A    between atoms: C_4  and  O_43 
REMARK    5  A    between atoms: C_5  and  O_42 
REMARK    6  A    between atoms: C_6  and  O_8 
REMARK    7  A    between atoms: O_8  and  C_9 
REMARK    8  A    between atoms: C_10  and  C_40 
REMARK    9  A    between atoms: C_12  and  O_17 
REMARK   10  A    between atoms: C_13  and  O_16 
REMARK   11  A    between atoms: C_14  and  O_15 
REMARK   12  A    between atoms: O_17  and  C_18 
REMARK   13  A    between atoms: C_19  and  C_38 
REMARK   14  A    between atoms: C_21  and  O_26 
REMARK   15  A    between atoms: C_22  and  O_25 
REMARK   16  A    between atoms: C_23  and  O_24 
REMARK   17  A    between atoms: O_26  and  C_27 
REMARK   18  A    between atoms: C_28  and  C_36 
REMARK   19  A    between atoms: C_30  and  O_35 
REMARK   20  A    between atoms: C_31  and  O_34 
REMARK   21  A    between atoms: C_32  and  O_33 
REMARK   22  A    between atoms: C_36  and  O_37 
REMARK   23  A    between atoms: C_38  and  O_39 
REMARK   24  A    between atoms: C_40  and  O_41 
ROOT
HETATM    1  O   UNL     1     -19.729 -11.706   0.400  1.00  0.00    -0.348 OA
ENDROOT
BRANCH   1   2
HETATM    2  C   UNL     1     -20.254 -11.222  -0.867  1.00  0.00     0.292 C 
HETATM    3  O   UNL     1     -20.076  -9.816  -1.048  1.00  0.00    -0.348 OA
HETATM    4  C   UNL     1     -21.125  -8.943  -0.591  1.00  0.00     0.180 C 
HETATM    5  C   UNL     1     -22.534  -9.347  -1.095  1.00  0.00     0.187 C 
HETATM    6  C   UNL     1     -22.788 -10.788  -0.637  1.00  0.00     0.183 C 
HETATM    7  C   UNL     1     -21.696 -11.713  -1.198  1.00  0.00     0.204 C 
BRANCH   4   8
HETATM    8  C   UNL     1     -21.106  -8.765   0.942  1.00  0.00     0.198 C 
BRANCH   8   9
HETATM    9  O   UNL     1     -22.121  -7.878   1.371  1.00  0.00    -0.398 OA
HETATM   10  H   UNL     1     -22.967  -8.360   1.380  1.00  0.00     0.209 HD
ENDBRANCH   8   9
ENDBRANCH   4   8
BRANCH   5  11
HETATM   11  O   UNL     1     -22.603  -9.194  -2.532  1.00  0.00    -0.348 OA
BRANCH  11  12
HETATM   12  C   UNL     1     -21.518  -8.561  -3.250  1.00  0.00     0.292 C 
HETATM   13  C   UNL     1     -21.749  -7.089  -3.685  1.00  0.00     0.204 C 
HETATM   14  C   UNL     1     -20.467  -6.548  -4.337  1.00  0.00     0.183 C 
HETATM   15  C   UNL     1     -20.056  -7.437  -5.526  1.00  0.00     0.180 C 
HETATM   16  C   UNL     1     -19.901  -8.897  -5.057  1.00  0.00     0.179 C 
HETATM   17  O   UNL     1     -21.067  -9.382  -4.339  1.00  0.00    -0.348 OA
BRANCH  13  18
HETATM   18  O   UNL     1     -22.803  -6.910  -4.655  1.00  0.00    -0.388 OA
HETATM   19  H   UNL     1     -22.658  -6.043  -5.107  1.00  0.00     0.210 HD
ENDBRANCH  13  18
BRANCH  14  20
HETATM   20  O   UNL     1     -20.649  -5.189  -4.763  1.00  0.00    -0.390 OA
HETATM   21  H   UNL     1     -21.303  -4.777  -4.166  1.00  0.00     0.210 HD
ENDBRANCH  14  20
BRANCH  15  22
HETATM   22  O   UNL     1     -21.028  -7.426  -6.582  1.00  0.00    -0.390 OA
HETATM   23  H   UNL     1     -21.160  -8.348  -6.885  1.00  0.00     0.210 HD
ENDBRANCH  15  22
BRANCH  16  24
HETATM   24  C   UNL     1     -18.594  -9.129  -4.274  1.00  0.00     0.198 C 
BRANCH  24  25
HETATM   25  O   UNL     1     -17.561  -9.640  -5.104  1.00  0.00    -0.398 OA
HETATM   26  H   UNL     1     -17.195  -8.902  -5.627  1.00  0.00     0.209 HD
ENDBRANCH  24  25
ENDBRANCH  16  24
ENDBRANCH  11  12
ENDBRANCH   5  11
BRANCH   6  27
HETATM   27  O   UNL     1     -24.107 -11.204  -1.009  1.00  0.00    -0.390 OA
HETATM   28  H   UNL     1     -24.574 -11.459  -0.182  1.00  0.00     0.210 HD
ENDBRANCH   6  27
BRANCH   7  29
HETATM   29  O   UNL     1     -21.906 -13.068  -0.793  1.00  0.00    -0.388 OA
HETATM   30  H   UNL     1     -22.151 -13.575  -1.590  1.00  0.00     0.210 HD
ENDBRANCH   7  29
ENDBRANCH   1   2
BRANCH   1  31
HETATM   31  C   UNL     1     -18.408 -12.343   0.291  1.00  0.00     0.187 C 
HETATM   32  C   UNL     1     -17.439 -11.672  -0.702  1.00  0.00     0.180 C 
HETATM   33  O   UNL     1     -17.804 -11.901  -2.072  1.00  0.00    -0.348 OA
HETATM   34  C   UNL     1     -17.834 -13.262  -2.525  1.00  0.00     0.292 C 
HETATM   35  C   UNL     1     -18.696 -14.150  -1.573  1.00  0.00     0.204 C 
HETATM   36  C   UNL     1     -18.541 -13.849  -0.070  1.00  0.00     0.183 C 
BRANCH  32  37
HETATM   37  C   UNL     1     -15.955 -11.968  -0.391  1.00  0.00     0.198 C 
BRANCH  37  38
HETATM   38  O   UNL     1     -15.575 -11.665   0.944  1.00  0.00    -0.398 OA
HETATM   39  H   UNL     1     -16.320 -11.898   1.531  1.00  0.00     0.209 HD
ENDBRANCH  37  38
ENDBRANCH  32  37
BRANCH  34  40
HETATM   40  O   UNL     1     -16.511 -13.772  -2.870  1.00  0.00    -0.348 OA
BRANCH  40  41
HETATM   41  C   UNL     1     -16.279 -13.751  -4.313  1.00  0.00     0.187 C 
HETATM   42  C   UNL     1     -15.766 -15.094  -4.883  1.00  0.00     0.180 C 
HETATM   43  O   UNL     1     -14.392 -15.332  -4.530  1.00  0.00    -0.349 OA
HETATM   44  C   UNL     1     -13.455 -14.375  -4.970  1.00  0.00     0.288 C 
HETATM   45  C   UNL     1     -13.805 -12.940  -4.527  1.00  0.00     0.204 C 
HETATM   46  C   UNL     1     -15.296 -12.618  -4.717  1.00  0.00     0.183 C 
BRANCH  42  47
HETATM   47  C   UNL     1     -16.026 -15.199  -6.402  1.00  0.00     0.198 C 
BRANCH  47  48
HETATM   48  O   UNL     1     -15.500 -16.416  -6.917  1.00  0.00    -0.398 OA
HETATM   49  H   UNL     1     -16.065 -16.636  -7.688  1.00  0.00     0.209 HD
ENDBRANCH  47  48
ENDBRANCH  42  47
BRANCH  44  50
HETATM   50  O   UNL     1     -13.263 -14.457  -6.378  1.00  0.00    -0.369 OA
HETATM   51  H   UNL     1     -14.131 -14.292  -6.794  1.00  0.00     0.212 HD
ENDBRANCH  44  50
BRANCH  45  52
HETATM   52  O   UNL     1     -13.022 -12.022  -5.325  1.00  0.00    -0.388 OA
HETATM   53  H   UNL     1     -12.651 -11.347  -4.729  1.00  0.00     0.210 HD
ENDBRANCH  45  52
BRANCH  46  54
HETATM   54  O   UNL     1     -15.627 -11.397  -4.050  1.00  0.00    -0.390 OA
HETATM   55  H   UNL     1     -15.455 -10.661  -4.677  1.00  0.00     0.210 HD
ENDBRANCH  46  54
ENDBRANCH  40  41
ENDBRANCH  34  40
BRANCH  35  56
HETATM   56  O   UNL     1     -18.497 -15.540  -1.843  1.00  0.00    -0.388 OA
HETATM   57  H   UNL     1     -17.915 -15.885  -1.143  1.00  0.00     0.210 HD
ENDBRANCH  35  56
BRANCH  36  58
HETATM   58  O   UNL     1     -19.611 -14.431   0.698  1.00  0.00    -0.390 OA
HETATM   59  H   UNL     1     -19.254 -15.242   1.102  1.00  0.00     0.210 HD
ENDBRANCH  36  58
ENDBRANCH   1  31
TORSDOF 24
ENDMDL
MODEL 4
REMARK VINA RESULT:      -5.0      7.168     13.680
REMARK  24 active torsions:
REMARK  status: ('A' for Active; 'I' for Inactive)
REMARK    1  A    between atoms: C_1  and  C_2 
REMARK    2  A    between atoms: C_1  and  O_45 
REMARK    3  A    between atoms: C_3  and  O_44 
REMARK    4  A    between atoms: C_4  and  O_43 
REMARK    5  A    between atoms: C_5  and  O_42 
REMARK    6  A    between atoms: C_6  and  O_8 
REMARK    7  A    between atoms: O_8  and  C_9 
REMARK    8  A    between atoms: C_10  and  C_40 
REMARK    9  A    between atoms: C_12  and  O_17 
REMARK   10  A    between atoms: C_13  and  O_16 
REMARK   11  A    between atoms: C_14  and  O_15 
REMARK   12  A    between atoms: O_17  and  C_18 
REMARK   13  A    between atoms: C_19  and  C_38 
REMARK   14  A    between atoms: C_21  and  O_26 
REMARK   15  A    between atoms: C_22  and  O_25 
REMARK   16  A    between atoms: C_23  and  O_24 
REMARK   17  A    between atoms: O_26  and  C_27 
REMARK   18  A    between atoms: C_28  and  C_36 
REMARK   19  A    between atoms: C_30  and  O_35 
REMARK   20  A    between atoms: C_31  and  O_34 
REMARK   21  A    between atoms: C_32  and  O_33 
REMARK   22  A    between atoms: C_36  and  O_37 
REMARK   23  A    between atoms: C_38  and  O_39 
REMARK   24  A    between atoms: C_40  and  O_41 
ROOT
HETATM    1  O   UNL     1     -15.653 -13.553  -3.012  1.00  0.00    -0.348 OA
ENDROOT
BRANCH   1   2
HETATM    2  C   UNL     1     -14.669 -13.204  -1.998  1.00  0.00     0.292 C 
HETATM    3  O   UNL     1     -13.325 -13.246  -2.483  1.00  0.00    -0.348 OA
HETATM    4  C   UNL     1     -12.609 -14.488  -2.363  1.00  0.00     0.180 C 
HETATM    5  C   UNL     1     -12.657 -15.098  -0.938  1.00  0.00     0.187 C 
HETATM    6  C   UNL     1     -14.133 -15.286  -0.570  1.00  0.00     0.183 C 
HETATM    7  C   UNL     1     -14.862 -13.934  -0.635  1.00  0.00     0.204 C 
BRANCH   4   8
HETATM    8  C   UNL     1     -13.042 -15.514  -3.430  1.00  0.00     0.198 C 
BRANCH   8   9
HETATM    9  O   UNL     1     -13.378 -14.880  -4.650  1.00  0.00    -0.398 OA
HETATM   10  H   UNL     1     -12.799 -14.106  -4.763  1.00  0.00     0.209 HD
ENDBRANCH   8   9
ENDBRANCH   4   8
BRANCH   5  11
HETATM   11  O   UNL     1     -11.952 -14.238  -0.013  1.00  0.00    -0.348 OA
BRANCH  11  12
HETATM   12  C   UNL     1     -11.351 -14.791   1.181  1.00  0.00     0.292 C 
HETATM   13  C   UNL     1      -9.966 -14.217   1.583  1.00  0.00     0.204 C 
HETATM   14  C   UNL     1      -9.529 -14.839   2.918  1.00  0.00     0.183 C 
HETATM   15  C   UNL     1      -9.500 -16.375   2.808  1.00  0.00     0.180 C 
HETATM   16  C   UNL     1     -10.877 -16.892   2.347  1.00  0.00     0.179 C 
HETATM   17  O   UNL     1     -11.350 -16.228   1.144  1.00  0.00    -0.348 OA
BRANCH  13  18
HETATM   18  O   UNL     1      -8.907 -14.495   0.641  1.00  0.00    -0.388 OA
HETATM   19  H   UNL     1      -9.177 -15.277   0.101  1.00  0.00     0.210 HD
ENDBRANCH  13  18
BRANCH  14  20
HETATM   20  O   UNL     1      -8.244 -14.338   3.315  1.00  0.00    -0.390 OA
HETATM   21  H   UNL     1      -7.582 -14.695   2.692  1.00  0.00     0.210 HD
ENDBRANCH  14  20
BRANCH  15  22
HETATM   22  O   UNL     1      -8.528 -16.841   1.860  1.00  0.00    -0.390 OA
HETATM   23  H   UNL     1      -8.912 -16.758   0.963  1.00  0.00     0.210 HD
ENDBRANCH  15  22
BRANCH  16  24
HETATM   24  C   UNL     1     -11.924 -16.871   3.477  1.00  0.00     0.198 C 
BRANCH  24  25
HETATM   25  O   UNL     1     -13.225 -17.182   3.002  1.00  0.00    -0.398 OA
HETATM   26  H   UNL     1     -13.212 -17.150   2.027  1.00  0.00     0.209 HD
ENDBRANCH  24  25
ENDBRANCH  16  24
ENDBRANCH  11  12
ENDBRANCH   5  11
BRANCH   6  27
HETATM   27  O   UNL     1     -14.251 -15.915   0.710  1.00  0.00    -0.390 OA
HETATM   28  H   UNL     1     -14.815 -15.333   1.268  1.00  0.00     0.210 HD
ENDBRANCH   6  27
BRANCH   7  29
HETATM   29  O   UNL     1     -16.243 -14.072  -0.291  1.00  0.00    -0.388 OA
HETATM   30  H   UNL     1     -16.329 -13.863   0.657  1.00  0.00     0.210 HD
ENDBRANCH   7  29
ENDBRANCH   1   2
BRANCH   1  31
HETATM   31  C   UNL     1     -16.487 -12.421  -3.444  1.00  0.00     0.187 C 
HETATM   32  C   UNL     1     -16.795 -11.381  -2.349  1.00  0.00     0.180 C 
HETATM   33  O   UNL     1     -17.733 -11.865  -1.374  1.00  0.00    -0.348 OA
HETATM   34  C   UNL     1     -19.039 -12.231  -1.845  1.00  0.00     0.292 C 
HETATM   35  C   UNL     1     -18.943 -13.218  -3.050  1.00  0.00     0.204 C 
HETATM   36  C   UNL     1     -17.823 -12.915  -4.065  1.00  0.00     0.183 C 
BRANCH  32  37
HETATM   37  C   UNL     1     -17.147  -9.989  -2.919  1.00  0.00     0.198 C 
BRANCH  37  38
HETATM   38  O   UNL     1     -16.148  -9.004  -2.689  1.00  0.00    -0.398 OA
HETATM   39  H   UNL     1     -15.285  -9.457  -2.627  1.00  0.00     0.209 HD
ENDBRANCH  37  38
ENDBRANCH  32  37
BRANCH  34  40
HETATM   40  O   UNL     1     -19.921 -11.081  -2.014  1.00  0.00    -0.348 OA
BRANCH  40  41
HETATM   41  C   UNL     1     -21.108 -11.177  -1.166  1.00  0.00     0.187 C 
HETATM   42  C   UNL     1     -22.368 -10.525  -1.780  1.00  0.00     0.180 C 
HETATM   43  O   UNL     1     -22.294  -9.088  -1.745  1.00  0.00    -0.349 OA
HETATM   44  C   UNL     1     -22.169  -8.496  -0.472  1.00  0.00     0.288 C 
HETATM   45  C   UNL     1     -20.970  -9.041   0.330  1.00  0.00     0.204 C 
HETATM   46  C   UNL     1     -20.855 -10.571   0.242  1.00  0.00     0.183 C 
BRANCH  42  47
HETATM   47  C   UNL     1     -23.660 -11.078  -1.140  1.00  0.00     0.198 C 
BRANCH  47  48
HETATM   48  O   UNL     1     -23.598 -12.494  -1.029  1.00  0.00    -0.398 OA
HETATM   49  H   UNL     1     -22.795 -12.758  -1.524  1.00  0.00     0.209 HD
ENDBRANCH  47  48
ENDBRANCH  42  47
BRANCH  44  50
HETATM   50  O   UNL     1     -23.383  -8.601   0.263  1.00  0.00    -0.369 OA
HETATM   51  H   UNL     1     -23.277  -8.057   1.067  1.00  0.00     0.212 HD
ENDBRANCH  44  50
BRANCH  45  52
HETATM   52  O   UNL     1     -21.152  -8.665   1.716  1.00  0.00    -0.388 OA
HETATM   53  H   UNL     1     -20.979  -7.709   1.792  1.00  0.00     0.210 HD
ENDBRANCH  45  52
BRANCH  46  54
HETATM   54  O   UNL     1     -19.595 -11.004   0.762  1.00  0.00    -0.390 OA
HETATM   55  H   UNL     1     -18.894 -10.646   0.176  1.00  0.00     0.210 HD
ENDBRANCH  46  54
ENDBRANCH  40  41
ENDBRANCH  34  40
BRANCH  35  56
HETATM   56  O   UNL     1     -20.207 -13.358  -3.704  1.00  0.00    -0.388 OA
HETATM   57  H   UNL     1     -20.882 -13.430  -3.006  1.00  0.00     0.210 HD
ENDBRANCH  35  56
BRANCH  36  58
HETATM   58  O   UNL     1     -17.565 -14.045  -4.919  1.00  0.00    -0.390 OA
HETATM   59  H   UNL     1     -17.112 -14.710  -4.371  1.00  0.00     0.210 HD
ENDBRANCH  36  58
ENDBRANCH   1  31
TORSDOF 24
ENDMDL
MODEL 5
REMARK VINA RESULT:      -5.0      5.602      7.999
REMARK  24 active torsions:
REMARK  status: ('A' for Active; 'I' for Inactive)
REMARK    1  A    between atoms: C_1  and  C_2 
REMARK    2  A    between atoms: C_1  and  O_45 
REMARK    3  A    between atoms: C_3  and  O_44 
REMARK    4  A    between atoms: C_4  and  O_43 
REMARK    5  A    between atoms: C_5  and  O_42 
REMARK    6  A    between atoms: C_6  and  O_8 
REMARK    7  A    between atoms: O_8  and  C_9 
REMARK    8  A    between atoms: C_10  and  C_40 
REMARK    9  A    between atoms: C_12  and  O_17 
REMARK   10  A    between atoms: C_13  and  O_16 
REMARK   11  A    between atoms: C_14  and  O_15 
REMARK   12  A    between atoms: O_17  and  C_18 
REMARK   13  A    between atoms: C_19  and  C_38 
REMARK   14  A    between atoms: C_21  and  O_26 
REMARK   15  A    between atoms: C_22  and  O_25 
REMARK   16  A    between atoms: C_23  and  O_24 
REMARK   17  A    between atoms: O_26  and  C_27 
REMARK   18  A    between atoms: C_28  and  C_36 
REMARK   19  A    between atoms: C_30  and  O_35 
REMARK   20  A    between atoms: C_31  and  O_34 
REMARK   21  A    between atoms: C_32  and  O_33 
REMARK   22  A    between atoms: C_36  and  O_37 
REMARK   23  A    between atoms: C_38  and  O_39 
REMARK   24  A    between atoms: C_40  and  O_41 
ROOT
HETATM    1  O   UNL     1     -19.284 -11.490  -0.654  1.00  0.00    -0.348 OA
ENDROOT
BRANCH   1   2
HETATM    2  C   UNL     1     -19.230 -11.227  -2.083  1.00  0.00     0.292 C 
HETATM    3  O   UNL     1     -18.905  -9.870  -2.392  1.00  0.00    -0.348 OA
HETATM    4  C   UNL     1     -19.991  -8.937  -2.536  1.00  0.00     0.180 C 
HETATM    5  C   UNL     1     -21.106  -9.425  -3.496  1.00  0.00     0.187 C 
HETATM    6  C   UNL     1     -21.613 -10.770  -2.962  1.00  0.00     0.183 C 
HETATM    7  C   UNL     1     -20.450 -11.772  -2.886  1.00  0.00     0.204 C 
BRANCH   4   8
HETATM    8  C   UNL     1     -20.570  -8.505  -1.174  1.00  0.00     0.198 C 
BRANCH   8   9
HETATM    9  O   UNL     1     -21.621  -7.570  -1.332  1.00  0.00    -0.398 OA
HETATM   10  H   UNL     1     -22.148  -7.558  -0.514  1.00  0.00     0.209 HD
ENDBRANCH   8   9
ENDBRANCH   4   8
BRANCH   5  11
HETATM   11  O   UNL     1     -20.588  -9.515  -4.844  1.00  0.00    -0.348 OA
BRANCH  11  12
HETATM   12  C   UNL     1     -20.184 -10.794  -5.385  1.00  0.00     0.292 C 
HETATM   13  C   UNL     1     -18.676 -10.956  -5.716  1.00  0.00     0.204 C 
HETATM   14  C   UNL     1     -18.412 -12.397  -6.179  1.00  0.00     0.183 C 
HETATM   15  C   UNL     1     -19.301 -12.740  -7.389  1.00  0.00     0.180 C 
HETATM   16  C   UNL     1     -20.782 -12.504  -7.032  1.00  0.00     0.179 C 
HETATM   17  O   UNL     1     -21.023 -11.179  -6.487  1.00  0.00    -0.348 OA
BRANCH  13  18
HETATM   18  O   UNL     1     -18.200 -10.096  -6.774  1.00  0.00    -0.388 OA
HETATM   19  H   UNL     1     -18.399 -10.535  -7.636  1.00  0.00     0.210 HD
ENDBRANCH  13  18
BRANCH  14  20
HETATM   20  O   UNL     1     -17.026 -12.579  -6.505  1.00  0.00    -0.390 OA
HETATM   21  H   UNL     1     -16.832 -13.535  -6.447  1.00  0.00     0.210 HD
ENDBRANCH  14  20
BRANCH  15  22
HETATM   22  O   UNL     1     -19.003 -11.933  -8.538  1.00  0.00    -0.390 OA
HETATM   23  H   UNL     1     -18.089 -12.136  -8.824  1.00  0.00     0.210 HD
ENDBRANCH  15  22
BRANCH  16  24
HETATM   24  C   UNL     1     -21.358 -13.619  -6.138  1.00  0.00     0.198 C 
BRANCH  24  25
HETATM   25  O   UNL     1     -22.670 -13.314  -5.688  1.00  0.00    -0.398 OA
HETATM   26  H   UNL     1     -23.281 -13.395  -6.444  1.00  0.00     0.209 HD
ENDBRANCH  24  25
ENDBRANCH  16  24
ENDBRANCH  11  12
ENDBRANCH   5  11
BRANCH   6  27
HETATM   27  O   UNL     1     -22.699 -11.247  -3.764  1.00  0.00    -0.390 OA
HETATM   28  H   UNL     1     -23.407 -10.565  -3.729  1.00  0.00     0.210 HD
ENDBRANCH   6  27
BRANCH   7  29
HETATM   29  O   UNL     1     -20.889 -13.041  -2.396  1.00  0.00    -0.388 OA
HETATM   30  H   UNL     1     -21.431 -13.452  -3.096  1.00  0.00     0.210 HD
ENDBRANCH   7  29
ENDBRANCH   1   2
BRANCH   1  31
HETATM   31  C   UNL     1     -18.094 -12.181  -0.132  1.00  0.00     0.187 C 
HETATM   32  C   UNL     1     -16.745 -11.598  -0.595  1.00  0.00     0.180 C 
HETATM   33  O   UNL     1     -16.463 -11.883  -1.974  1.00  0.00    -0.348 OA
HETATM   34  C   UNL     1     -16.361 -13.265  -2.352  1.00  0.00     0.292 C 
HETATM   35  C   UNL     1     -17.608 -14.069  -1.870  1.00  0.00     0.204 C 
HETATM   36  C   UNL     1     -18.134 -13.697  -0.470  1.00  0.00     0.183 C 
BRANCH  32  37
HETATM   37  C   UNL     1     -15.581 -11.933   0.364  1.00  0.00     0.198 C 
BRANCH  37  38
HETATM   38  O   UNL     1     -15.950 -11.933   1.737  1.00  0.00    -0.398 OA
HETATM   39  H   UNL     1     -15.846 -11.024   2.079  1.00  0.00     0.209 HD
ENDBRANCH  37  38
ENDBRANCH  32  37
BRANCH  34  40
HETATM   40  O   UNL     1     -15.056 -13.840  -2.043  1.00  0.00    -0.348 OA
BRANCH  40  41
HETATM   41  C   UNL     1     -14.048 -13.466  -3.034  1.00  0.00     0.187 C 
HETATM   42  C   UNL     1     -14.630 -13.172  -4.436  1.00  0.00     0.180 C 
HETATM   43  O   UNL     1     -15.037 -14.377  -5.107  1.00  0.00    -0.349 OA
HETATM   44  C   UNL     1     -14.033 -15.342  -5.330  1.00  0.00     0.288 C 
HETATM   45  C   UNL     1     -13.297 -15.756  -4.041  1.00  0.00     0.204 C 
HETATM   46  C   UNL     1     -12.941 -14.549  -3.158  1.00  0.00     0.183 C 
BRANCH  42  47
HETATM   47  C   UNL     1     -13.664 -12.309  -5.278  1.00  0.00     0.198 C 
BRANCH  47  48
HETATM   48  O   UNL     1     -14.165 -12.140  -6.598  1.00  0.00    -0.398 OA
HETATM   49  H   UNL     1     -13.376 -12.154  -7.179  1.00  0.00     0.209 HD
ENDBRANCH  47  48
ENDBRANCH  42  47
BRANCH  44  50
HETATM   50  O   UNL     1     -13.125 -14.911  -6.338  1.00  0.00    -0.369 OA
HETATM   51  H   UNL     1     -13.662 -14.568  -7.078  1.00  0.00     0.212 HD
ENDBRANCH  44  50
BRANCH  45  52
HETATM   52  O   UNL     1     -12.077 -16.435  -4.421  1.00  0.00    -0.388 OA
HETATM   53  H   UNL     1     -11.328 -15.855  -4.192  1.00  0.00     0.210 HD
ENDBRANCH  45  52
BRANCH  46  54
HETATM   54  O   UNL     1     -12.514 -14.990  -1.866  1.00  0.00    -0.390 OA
HETATM   55  H   UNL     1     -12.642 -14.244  -1.242  1.00  0.00     0.210 HD
ENDBRANCH  46  54
ENDBRANCH  40  41
ENDBRANCH  34  40
BRANCH  35  56
HETATM   56  O   UNL     1     -17.388 -15.478  -1.980  1.00  0.00    -0.388 OA
HETATM   57  H   UNL     1     -18.185 -15.860  -2.387  1.00  0.00     0.210 HD
ENDBRANCH  35  56
BRANCH  36  58
HETATM   58  O   UNL     1     -19.467 -14.199  -0.256  1.00  0.00    -0.390 OA
HETATM   59  H   UNL     1     -19.759 -13.855   0.606  1.00  0.00     0.210 HD
ENDBRANCH  36  58
ENDBRANCH   1  31
TORSDOF 24
ENDMDL
MODEL 6
REMARK VINA RESULT:      -5.0      6.610     13.308
REMARK  24 active torsions:
REMARK  status: ('A' for Active; 'I' for Inactive)
REMARK    1  A    between atoms: C_1  and  C_2 
REMARK    2  A    between atoms: C_1  and  O_45 
REMARK    3  A    between atoms: C_3  and  O_44 
REMARK    4  A    between atoms: C_4  and  O_43 
REMARK    5  A    between atoms: C_5  and  O_42 
REMARK    6  A    between atoms: C_6  and  O_8 
REMARK    7  A    between atoms: O_8  and  C_9 
REMARK    8  A    between atoms: C_10  and  C_40 
REMARK    9  A    between atoms: C_12  and  O_17 
REMARK   10  A    between atoms: C_13  and  O_16 
REMARK   11  A    between atoms: C_14  and  O_15 
REMARK   12  A    between atoms: O_17  and  C_18 
REMARK   13  A    between atoms: C_19  and  C_38 
REMARK   14  A    between atoms: C_21  and  O_26 
REMARK   15  A    between atoms: C_22  and  O_25 
REMARK   16  A    between atoms: C_23  and  O_24 
REMARK   17  A    between atoms: O_26  and  C_27 
REMARK   18  A    between atoms: C_28  and  C_36 
REMARK   19  A    between atoms: C_30  and  O_35 
REMARK   20  A    between atoms: C_31  and  O_34 
REMARK   21  A    between atoms: C_32  and  O_33 
REMARK   22  A    between atoms: C_36  and  O_37 
REMARK   23  A    between atoms: C_38  and  O_39 
REMARK   24  A    between atoms: C_40  and  O_41 
ROOT
HETATM    1  O   UNL     1     -15.270 -14.208  -4.247  1.00  0.00    -0.348 OA
ENDROOT
BRANCH   1   2
HETATM    2  C   UNL     1     -14.432 -13.657  -3.194  1.00  0.00     0.292 C 
HETATM    3  O   UNL     1     -13.038 -13.887  -3.408  1.00  0.00    -0.348 OA
HETATM    4  C   UNL     1     -12.466 -15.089  -2.862  1.00  0.00     0.180 C 
HETATM    5  C   UNL     1     -12.794 -15.309  -1.363  1.00  0.00     0.187 C 
HETATM    6  C   UNL     1     -14.321 -15.324  -1.226  1.00  0.00     0.183 C 
HETATM    7  C   UNL     1     -14.904 -14.002  -1.749  1.00  0.00     0.204 C 
BRANCH   4   8
HETATM    8  C   UNL     1     -12.816 -16.334  -3.703  1.00  0.00     0.198 C 
BRANCH   8   9
HETATM    9  O   UNL     1     -12.896 -16.020  -5.081  1.00  0.00    -0.398 OA
HETATM   10  H   UNL     1     -12.370 -15.217  -5.244  1.00  0.00     0.209 HD
ENDBRANCH   8   9
ENDBRANCH   4   8
BRANCH   5  11
HETATM   11  O   UNL     1     -12.169 -14.274  -0.567  1.00  0.00    -0.348 OA
BRANCH  11  12
HETATM   12  C   UNL     1     -11.694 -14.569   0.767  1.00  0.00     0.292 C 
HETATM   13  C   UNL     1     -10.324 -13.953   1.160  1.00  0.00     0.204 C 
HETATM   14  C   UNL     1     -10.027 -14.280   2.631  1.00  0.00     0.183 C 
HETATM   15  C   UNL     1     -10.053 -15.804   2.856  1.00  0.00     0.180 C 
HETATM   16  C   UNL     1     -11.407 -16.376   2.393  1.00  0.00     0.179 C 
HETATM   17  O   UNL     1     -11.750 -15.979   1.038  1.00  0.00    -0.348 OA
BRANCH  13  18
HETATM   18  O   UNL     1      -9.203 -14.452   0.400  1.00  0.00    -0.388 OA
HETATM   19  H   UNL     1      -8.982 -15.353   0.738  1.00  0.00     0.210 HD
ENDBRANCH  13  18
BRANCH  14  20
HETATM   20  O   UNL     1      -8.760 -13.735   3.027  1.00  0.00    -0.390 OA
HETATM   21  H   UNL     1      -8.062 -14.244   2.570  1.00  0.00     0.210 HD
ENDBRANCH  14  20
BRANCH  15  22
HETATM   22  O   UNL     1      -9.025 -16.486   2.121  1.00  0.00    -0.390 OA
HETATM   23  H   UNL     1      -9.172 -17.449   2.213  1.00  0.00     0.210 HD
ENDBRANCH  15  22
BRANCH  16  24
HETATM   24  C   UNL     1     -12.543 -16.087   3.393  1.00  0.00     0.198 C 
BRANCH  24  25
HETATM   25  O   UNL     1     -13.821 -16.360   2.838  1.00  0.00    -0.398 OA
HETATM   26  H   UNL     1     -13.709 -16.994   2.105  1.00  0.00     0.209 HD
ENDBRANCH  24  25
ENDBRANCH  16  24
ENDBRANCH  11  12
ENDBRANCH   5  11
BRANCH   6  27
HETATM   27  O   UNL     1     -14.697 -15.596   0.128  1.00  0.00    -0.390 OA
HETATM   28  H   UNL     1     -15.651 -15.836   0.122  1.00  0.00     0.210 HD
ENDBRANCH   6  27
BRANCH   7  29
HETATM   29  O   UNL     1     -16.329 -13.980  -1.631  1.00  0.00    -0.388 OA
HETATM   30  H   UNL     1     -16.693 -14.432  -2.414  1.00  0.00     0.210 HD
ENDBRANCH   7  29
ENDBRANCH   1   2
BRANCH   1  31
HETATM   31  C   UNL     1     -15.771 -13.201  -5.195  1.00  0.00     0.187 C 
HETATM   32  C   UNL     1     -16.018 -11.804  -4.593  1.00  0.00     0.180 C 
HETATM   33  O   UNL     1     -17.175 -11.764  -3.743  1.00  0.00    -0.348 OA
HETATM   34  C   UNL     1     -18.441 -12.083  -4.341  1.00  0.00     0.292 C 
HETATM   35  C   UNL     1     -18.370 -13.441  -5.108  1.00  0.00     0.204 C 
HETATM   36  C   UNL     1     -17.069 -13.688  -5.896  1.00  0.00     0.183 C 
BRANCH  32  37
HETATM   37  C   UNL     1     -15.977 -10.676  -5.648  1.00  0.00     0.198 C 
BRANCH  37  38
HETATM   38  O   UNL     1     -15.728  -9.387  -5.102  1.00  0.00    -0.398 OA
HETATM   39  H   UNL     1     -16.188  -8.729  -5.657  1.00  0.00     0.209 HD
ENDBRANCH  37  38
ENDBRANCH  32  37
BRANCH  34  40
HETATM   40  O   UNL     1     -19.024 -10.958  -5.063  1.00  0.00    -0.348 OA
BRANCH  40  41
HETATM   41  C   UNL     1     -19.059  -9.746  -4.245  1.00  0.00     0.187 C 
HETATM   42  C   UNL     1     -20.080  -9.804  -3.086  1.00  0.00     0.180 C 
HETATM   43  O   UNL     1     -21.432  -9.684  -3.562  1.00  0.00    -0.349 OA
HETATM   44  C   UNL     1     -21.750  -8.501  -4.260  1.00  0.00     0.288 C 
HETATM   45  C   UNL     1     -20.814  -8.237  -5.456  1.00  0.00     0.204 C 
HETATM   46  C   UNL     1     -19.337  -8.484  -5.107  1.00  0.00     0.183 C 
BRANCH  42  47
HETATM   47  C   UNL     1     -19.737  -8.783  -1.979  1.00  0.00     0.198 C 
BRANCH  47  48
HETATM   48  O   UNL     1     -20.716  -8.813  -0.948  1.00  0.00    -0.398 OA
HETATM   49  H   UNL     1     -20.612  -7.966  -0.467  1.00  0.00     0.209 HD
ENDBRANCH  47  48
ENDBRANCH  42  47
BRANCH  44  50
HETATM   50  O   UNL     1     -21.802  -7.385  -3.379  1.00  0.00    -0.369 OA
HETATM   51  H   UNL     1     -21.268  -7.616  -2.595  1.00  0.00     0.212 HD
ENDBRANCH  44  50
BRANCH  45  52
HETATM   52  O   UNL     1     -20.976  -6.856  -5.855  1.00  0.00    -0.388 OA
HETATM   53  H   UNL     1     -20.570  -6.748  -6.734  1.00  0.00     0.210 HD
ENDBRANCH  45  52
BRANCH  46  54
HETATM   54  O   UNL     1     -18.543  -8.495  -6.296  1.00  0.00    -0.390 OA
HETATM   55  H   UNL     1     -18.712  -9.345  -6.757  1.00  0.00     0.210 HD
ENDBRANCH  46  54
ENDBRANCH  40  41
ENDBRANCH  34  40
BRANCH  35  56
HETATM   56  O   UNL     1     -19.519 -13.624  -5.940  1.00  0.00    -0.388 OA
HETATM   57  H   UNL     1     -19.195 -13.727  -6.853  1.00  0.00     0.210 HD
ENDBRANCH  35  56
BRANCH  36  58
HETATM   58  O   UNL     1     -16.926 -15.074  -6.258  1.00  0.00    -0.390 OA
HETATM   59  H   UNL     1     -16.194 -15.120  -6.899  1.00  0.00     0.210 HD
ENDBRANCH  36  58
ENDBRANCH   1  31
TORSDOF 24
ENDMDL
MODEL 7
REMARK VINA RESULT:      -5.0      8.091     14.506
REMARK  24 active torsions:
REMARK  status: ('A' for Active; 'I' for Inactive)
REMARK    1  A    between atoms: C_1  and  C_2 
REMARK    2  A    between atoms: C_1  and  O_45 
REMARK    3  A    between atoms: C_3  and  O_44 
REMARK    4  A    between atoms: C_4  and  O_43 
REMARK    5  A    between atoms: C_5  and  O_42 
REMARK    6  A    between atoms: C_6  and  O_8 
REMARK    7  A    between atoms: O_8  and  C_9 
REMARK    8  A    between atoms: C_10  and  C_40 
REMARK    9  A    between atoms: C_12  and  O_17 
REMARK   10  A    between atoms: C_13  and  O_16 
REMARK   11  A    between atoms: C_14  and  O_15 
REMARK   12  A    between atoms: O_17  and  C_18 
REMARK   13  A    between atoms: C_19  and  C_38 
REMARK   14  A    between atoms: C_21  and  O_26 
REMARK   15  A    between atoms: C_22  and  O_25 
REMARK   16  A    between atoms: C_23  and  O_24 
REMARK   17  A    between atoms: O_26  and  C_27 
REMARK   18  A    between atoms: C_28  and  C_36 
REMARK   19  A    between atoms: C_30  and  O_35 
REMARK   20  A    between atoms: C_31  and  O_34 
REMARK   21  A    between atoms: C_32  and  O_33 
REMARK   22  A    between atoms: C_36  and  O_37 
REMARK   23  A    between atoms: C_38  and  O_39 
REMARK   24  A    between atoms: C_40  and  O_41 
ROOT
HETATM    1  O   UNL     1     -14.951 -14.200  -1.188  1.00  0.00    -0.348 OA
ENDROOT
BRANCH   1   2
HETATM    2  C   UNL     1     -14.182 -13.949   0.021  1.00  0.00     0.292 C 
HETATM    3  O   UNL     1     -12.832 -14.412  -0.067  1.00  0.00    -0.348 OA
HETATM    4  C   UNL     1     -12.556 -15.757   0.362  1.00  0.00     0.180 C 
HETATM    5  C   UNL     1     -13.119 -16.089   1.768  1.00  0.00     0.187 C 
HETATM    6  C   UNL     1     -14.630 -15.831   1.729  1.00  0.00     0.183 C 
HETATM    7  C   UNL     1     -14.898 -14.369   1.340  1.00  0.00     0.204 C 
BRANCH   4   8
HETATM    8  C   UNL     1     -12.999 -16.802  -0.683  1.00  0.00     0.198 C 
BRANCH   8   9
HETATM    9  O   UNL     1     -13.000 -16.258  -1.989  1.00  0.00    -0.398 OA
HETATM   10  H   UNL     1     -12.099 -16.329  -2.353  1.00  0.00     0.209 HD
ENDBRANCH   8   9
ENDBRANCH   4   8
BRANCH   5  11
HETATM   11  O   UNL     1     -12.439 -15.296   2.768  1.00  0.00    -0.348 OA
BRANCH  11  12
HETATM   12  C   UNL     1     -11.038 -15.522   3.048  1.00  0.00     0.292 C 
HETATM   13  C   UNL     1     -10.712 -16.264   4.372  1.00  0.00     0.204 C 
HETATM   14  C   UNL     1      -9.197 -16.507   4.456  1.00  0.00     0.183 C 
HETATM   15  C   UNL     1      -8.435 -15.172   4.346  1.00  0.00     0.180 C 
HETATM   16  C   UNL     1      -8.839 -14.446   3.048  1.00  0.00     0.179 C 
HETATM   17  O   UNL     1     -10.279 -14.310   2.906  1.00  0.00    -0.348 OA
BRANCH  13  18
HETATM   18  O   UNL     1     -11.072 -15.539   5.568  1.00  0.00    -0.388 OA
HETATM   19  H   UNL     1     -10.299 -15.559   6.181  1.00  0.00     0.210 HD
ENDBRANCH  13  18
BRANCH  14  20
HETATM   20  O   UNL     1      -8.858 -17.182   5.676  1.00  0.00    -0.390 OA
HETATM   21  H   UNL     1      -9.456 -16.850   6.374  1.00  0.00     0.210 HD
ENDBRANCH  14  20
BRANCH  15  22
HETATM   22  O   UNL     1      -8.718 -14.287   5.440  1.00  0.00    -0.390 OA
HETATM   23  H   UNL     1      -9.348 -14.735   6.041  1.00  0.00     0.210 HD
ENDBRANCH  15  22
BRANCH  16  24
HETATM   24  C   UNL     1      -8.183 -15.063   1.798  1.00  0.00     0.198 C 
BRANCH  24  25
HETATM   25  O   UNL     1      -8.446 -14.301   0.629  1.00  0.00    -0.398 OA
HETATM   26  H   UNL     1      -8.253 -13.365   0.823  1.00  0.00     0.209 HD
ENDBRANCH  24  25
ENDBRANCH  16  24
ENDBRANCH  11  12
ENDBRANCH   5  11
BRANCH   6  27
HETATM   27  O   UNL     1     -15.228 -16.187   2.979  1.00  0.00    -0.390 OA
HETATM   28  H   UNL     1     -16.176 -16.381   2.803  1.00  0.00     0.210 HD
ENDBRANCH   6  27
BRANCH   7  29
HETATM   29  O   UNL     1     -16.300 -14.091   1.299  1.00  0.00    -0.388 OA
HETATM   30  H   UNL     1     -16.731 -14.671   1.955  1.00  0.00     0.210 HD
ENDBRANCH   7  29
ENDBRANCH   1   2
BRANCH   1  31
HETATM   31  C   UNL     1     -14.999 -13.053  -2.109  1.00  0.00     0.187 C 
HETATM   32  C   UNL     1     -15.913 -11.896  -1.663  1.00  0.00     0.180 C 
HETATM   33  O   UNL     1     -17.309 -12.214  -1.784  1.00  0.00    -0.348 OA
HETATM   34  C   UNL     1     -17.801 -12.522  -3.096  1.00  0.00     0.292 C 
HETATM   35  C   UNL     1     -16.927 -13.622  -3.776  1.00  0.00     0.204 C 
HETATM   36  C   UNL     1     -15.409 -13.501  -3.539  1.00  0.00     0.183 C 
BRANCH  32  37
HETATM   37  C   UNL     1     -15.523 -10.541  -2.295  1.00  0.00     0.198 C 
BRANCH  37  38
HETATM   38  O   UNL     1     -16.589  -9.601  -2.343  1.00  0.00    -0.398 OA
HETATM   39  H   UNL     1     -17.016  -9.672  -3.218  1.00  0.00     0.209 HD
ENDBRANCH  37  38
ENDBRANCH  32  37
BRANCH  34  40
HETATM   40  O   UNL     1     -18.080 -11.330  -3.890  1.00  0.00    -0.348 OA
BRANCH  40  41
HETATM   41  C   UNL     1     -19.516 -11.117  -4.065  1.00  0.00     0.187 C 
HETATM   42  C   UNL     1     -19.927 -10.799  -5.521  1.00  0.00     0.180 C 
HETATM   43  O   UNL     1     -19.546  -9.465  -5.902  1.00  0.00    -0.349 OA
HETATM   44  C   UNL     1     -20.092  -8.413  -5.137  1.00  0.00     0.288 C 
HETATM   45  C   UNL     1     -19.816  -8.560  -3.628  1.00  0.00     0.204 C 
HETATM   46  C   UNL     1     -20.045  -9.996  -3.129  1.00  0.00     0.183 C 
BRANCH  42  47
HETATM   47  C   UNL     1     -21.425 -11.091  -5.761  1.00  0.00     0.198 C 
BRANCH  47  48
HETATM   48  O   UNL     1     -21.647 -11.496  -7.106  1.00  0.00    -0.398 OA
HETATM   49  H   UNL     1     -22.035 -10.715  -7.552  1.00  0.00     0.209 HD
ENDBRANCH  47  48
ENDBRANCH  42  47
BRANCH  44  50
HETATM   50  O   UNL     1     -21.480  -8.253  -5.404  1.00  0.00    -0.369 OA
HETATM   51  H   UNL     1     -21.654  -8.672  -6.269  1.00  0.00     0.212 HD
ENDBRANCH  44  50
BRANCH  45  52
HETATM   52  O   UNL     1     -20.713  -7.670  -2.921  1.00  0.00    -0.388 OA
HETATM   53  H   UNL     1     -20.990  -6.970  -3.539  1.00  0.00     0.210 HD
ENDBRANCH  45  52
BRANCH  46  54
HETATM   54  O   UNL     1     -19.523 -10.149  -1.806  1.00  0.00    -0.390 OA
HETATM   55  H   UNL     1     -19.396 -11.109  -1.648  1.00  0.00     0.210 HD
ENDBRANCH  46  54
ENDBRANCH  40  41
ENDBRANCH  34  40
BRANCH  35  56
HETATM   56  O   UNL     1     -17.223 -13.727  -5.172  1.00  0.00    -0.388 OA
HETATM   57  H   UNL     1     -16.911 -14.602  -5.464  1.00  0.00     0.210 HD
ENDBRANCH  35  56
BRANCH  36  58
HETATM   58  O   UNL     1     -14.723 -14.722  -3.873  1.00  0.00    -0.390 OA
HETATM   59  H   UNL     1     -15.266 -15.451  -3.523  1.00  0.00     0.210 HD
ENDBRANCH  36  58
ENDBRANCH   1  31
TORSDOF 24
ENDMDL
MODEL 8
REMARK VINA RESULT:      -5.0      5.992     10.950
REMARK  24 active torsions:
REMARK  status: ('A' for Active; 'I' for Inactive)
REMARK    1  A    between atoms: C_1  and  C_2 
REMARK    2  A    between atoms: C_1  and  O_45 
REMARK    3  A    between atoms: C_3  and  O_44 
REMARK    4  A    between atoms: C_4  and  O_43 
REMARK    5  A    between atoms: C_5  and  O_42 
REMARK    6  A    between atoms: C_6  and  O_8 
REMARK    7  A    between atoms: O_8  and  C_9 
REMARK    8  A    between atoms: C_10  and  C_40 
REMARK    9  A    between atoms: C_12  and  O_17 
REMARK   10  A    between atoms: C_13  and  O_16 
REMARK   11  A    between atoms: C_14  and  O_15 
REMARK   12  A    between atoms: O_17  and  C_18 
REMARK   13  A    between atoms: C_19  and  C_38 
REMARK   14  A    between atoms: C_21  and  O_26 
REMARK   15  A    between atoms: C_22  and  O_25 
REMARK   16  A    between atoms: C_23  and  O_24 
REMARK   17  A    between atoms: O_26  and  C_27 
REMARK   18  A    between atoms: C_28  and  C_36 
REMARK   19  A    between atoms: C_30  and  O_35 
REMARK   20  A    between atoms: C_31  and  O_34 
REMARK   21  A    between atoms: C_32  and  O_33 
REMARK   22  A    between atoms: C_36  and  O_37 
REMARK   23  A    between atoms: C_38  and  O_39 
REMARK   24  A    between atoms: C_40  and  O_41 
ROOT
HETATM    1  O   UNL     1     -17.060 -11.879  -6.286  1.00  0.00    -0.348 OA
ENDROOT
BRANCH   1   2
HETATM    2  C   UNL     1     -16.765 -12.902  -5.295  1.00  0.00     0.292 C 
HETATM    3  O   UNL     1     -15.558 -12.650  -4.572  1.00  0.00    -0.348 OA
HETATM    4  C   UNL     1     -14.334 -13.193  -5.101  1.00  0.00     0.180 C 
HETATM    5  C   UNL     1     -14.420 -14.703  -5.439  1.00  0.00     0.187 C 
HETATM    6  C   UNL     1     -15.570 -14.884  -6.437  1.00  0.00     0.183 C 
HETATM    7  C   UNL     1     -16.879 -14.364  -5.823  1.00  0.00     0.204 C 
BRANCH   4   8
HETATM    8  C   UNL     1     -13.806 -12.376  -6.298  1.00  0.00     0.198 C 
BRANCH   8   9
HETATM    9  O   UNL     1     -12.674 -12.992  -6.884  1.00  0.00    -0.398 OA
HETATM   10  H   UNL     1     -12.735 -12.891  -7.850  1.00  0.00     0.209 HD
ENDBRANCH   8   9
ENDBRANCH   4   8
BRANCH   5  11
HETATM   11  O   UNL     1     -14.604 -15.468  -4.225  1.00  0.00    -0.348 OA
BRANCH  11  12
HETATM   12  C   UNL     1     -14.365 -14.857  -2.936  1.00  0.00     0.292 C 
HETATM   13  C   UNL     1     -13.080 -15.305  -2.190  1.00  0.00     0.204 C 
HETATM   14  C   UNL     1     -12.934 -14.487  -0.898  1.00  0.00     0.183 C 
HETATM   15  C   UNL     1     -14.189 -14.646  -0.019  1.00  0.00     0.180 C 
HETATM   16  C   UNL     1     -15.442 -14.248  -0.823  1.00  0.00     0.179 C 
HETATM   17  O   UNL     1     -15.531 -14.937  -2.100  1.00  0.00    -0.348 OA
BRANCH  13  18
HETATM   18  O   UNL     1     -13.073 -16.694  -1.792  1.00  0.00    -0.388 OA
HETATM   19  H   UNL     1     -13.979 -17.058  -1.941  1.00  0.00     0.210 HD
ENDBRANCH  13  18
BRANCH  14  20
HETATM   20  O   UNL     1     -11.759 -14.884  -0.176  1.00  0.00    -0.390 OA
HETATM   21  H   UNL     1     -12.019 -15.030   0.755  1.00  0.00     0.210 HD
ENDBRANCH  14  20
BRANCH  15  22
HETATM   22  O   UNL     1     -14.378 -15.995   0.431  1.00  0.00    -0.390 OA
HETATM   23  H   UNL     1     -14.966 -15.977   1.213  1.00  0.00     0.210 HD
ENDBRANCH  15  22
BRANCH  16  24
HETATM   24  C   UNL     1     -15.590 -12.722  -0.970  1.00  0.00     0.198 C 
BRANCH  24  25
HETATM   25  O   UNL     1     -16.768 -12.367  -1.678  1.00  0.00    -0.398 OA
HETATM   26  H   UNL     1     -16.893 -13.005  -2.406  1.00  0.00     0.209 HD
ENDBRANCH  24  25
ENDBRANCH  16  24
ENDBRANCH  11  12
ENDBRANCH   5  11
BRANCH   6  27
HETATM   27  O   UNL     1     -15.660 -16.252  -6.850  1.00  0.00    -0.390 OA
HETATM   28  H   UNL     1     -15.057 -16.362  -7.620  1.00  0.00     0.210 HD
ENDBRANCH   6  27
BRANCH   7  29
HETATM   29  O   UNL     1     -17.975 -14.523  -6.727  1.00  0.00    -0.388 OA
HETATM   30  H   UNL     1     -17.909 -15.416  -7.111  1.00  0.00     0.210 HD
ENDBRANCH   7  29
ENDBRANCH   1   2
BRANCH   1  31
HETATM   31  C   UNL     1     -18.113 -10.939  -5.873  1.00  0.00     0.187 C 
HETATM   32  C   UNL     1     -18.148 -10.619  -4.366  1.00  0.00     0.180 C 
HETATM   33  O   UNL     1     -18.642 -11.716  -3.579  1.00  0.00    -0.348 OA
HETATM   34  C   UNL     1     -19.980 -12.163  -3.843  1.00  0.00     0.292 C 
HETATM   35  C   UNL     1     -20.185 -12.445  -5.364  1.00  0.00     0.204 C 
HETATM   36  C   UNL     1     -19.516 -11.437  -6.319  1.00  0.00     0.183 C 
BRANCH  32  37
HETATM   37  C   UNL     1     -18.827  -9.268  -4.050  1.00  0.00     0.198 C 
BRANCH  37  38
HETATM   38  O   UNL     1     -18.927  -8.984  -2.661  1.00  0.00    -0.398 OA
HETATM   39  H   UNL     1     -18.214  -9.468  -2.201  1.00  0.00     0.209 HD
ENDBRANCH  37  38
ENDBRANCH  32  37
BRANCH  34  40
HETATM   40  O   UNL     1     -20.991 -11.338  -3.191  1.00  0.00    -0.348 OA
BRANCH  40  41
HETATM   41  C   UNL     1     -20.912 -11.430  -1.734  1.00  0.00     0.187 C 
HETATM   42  C   UNL     1     -21.171 -12.851  -1.183  1.00  0.00     0.180 C 
HETATM   43  O   UNL     1     -22.563 -13.208  -1.266  1.00  0.00    -0.349 OA
HETATM   44  C   UNL     1     -23.466 -12.382  -0.565  1.00  0.00     0.288 C 
HETATM   45  C   UNL     1     -23.346 -10.895  -0.951  1.00  0.00     0.204 C 
HETATM   46  C   UNL     1     -21.883 -10.432  -1.046  1.00  0.00     0.183 C 
BRANCH  42  47
HETATM   47  C   UNL     1     -20.587 -13.023   0.236  1.00  0.00     0.198 C 
BRANCH  47  48
HETATM   48  O   UNL     1     -19.184 -12.792   0.232  1.00  0.00    -0.398 OA
HETATM   49  H   UNL     1     -19.079 -11.838   0.033  1.00  0.00     0.209 HD
ENDBRANCH  47  48
ENDBRANCH  42  47
BRANCH  44  50
HETATM   50  O   UNL     1     -23.346 -12.570   0.841  1.00  0.00    -0.369 OA
HETATM   51  H   UNL     1     -23.813 -11.827   1.268  1.00  0.00     0.212 HD
ENDBRANCH  44  50
BRANCH  45  52
HETATM   52  O   UNL     1     -24.019 -10.113   0.063  1.00  0.00    -0.388 OA
HETATM   53  H   UNL     1     -24.504 -10.728   0.643  1.00  0.00     0.210 HD
ENDBRANCH  45  52
BRANCH  46  54
HETATM   54  O   UNL     1     -21.810  -9.144  -1.663  1.00  0.00    -0.390 OA
HETATM   55  H   UNL     1     -21.500  -9.275  -2.585  1.00  0.00     0.210 HD
ENDBRANCH  46  54
ENDBRANCH  40  41
ENDBRANCH  34  40
BRANCH  35  56
HETATM   56  O   UNL     1     -21.572 -12.606  -5.676  1.00  0.00    -0.388 OA
HETATM   57  H   UNL     1     -21.654 -13.429  -6.191  1.00  0.00     0.210 HD
ENDBRANCH  35  56
BRANCH  36  58
HETATM   58  O   UNL     1     -19.435 -11.954  -7.660  1.00  0.00    -0.390 OA
HETATM   59  H   UNL     1     -19.449 -12.925  -7.586  1.00  0.00     0.210 HD
ENDBRANCH  36  58
ENDBRANCH   1  31
TORSDOF 24
ENDMDL
MODEL 9
REMARK VINA RESULT:      -4.9      5.003      8.645
REMARK  24 active torsions:
REMARK  status: ('A' for Active; 'I' for Inactive)
REMARK    1  A    between atoms: C_1  and  C_2 
REMARK    2  A    between atoms: C_1  and  O_45 
REMARK    3  A    between atoms: C_3  and  O_44 
REMARK    4  A    between atoms: C_4  and  O_43 
REMARK    5  A    between atoms: C_5  and  O_42 
REMARK    6  A    between atoms: C_6  and  O_8 
REMARK    7  A    between atoms: O_8  and  C_9 
REMARK    8  A    between atoms: C_10  and  C_40 
REMARK    9  A    between atoms: C_12  and  O_17 
REMARK   10  A    between atoms: C_13  and  O_16 
REMARK   11  A    between atoms: C_14  and  O_15 
REMARK   12  A    between atoms: O_17  and  C_18 
REMARK   13  A    between atoms: C_19  and  C_38 
REMARK   14  A    between atoms: C_21  and  O_26 
REMARK   15  A    between atoms: C_22  and  O_25 
REMARK   16  A    between atoms: C_23  and  O_24 
REMARK   17  A    between atoms: O_26  and  C_27 
REMARK   18  A    between atoms: C_28  and  C_36 
REMARK   19  A    between atoms: C_30  and  O_35 
REMARK   20  A    between atoms: C_31  and  O_34 
REMARK   21  A    between atoms: C_32  and  O_33 
REMARK   22  A    between atoms: C_36  and  O_37 
REMARK   23  A    between atoms: C_38  and  O_39 
REMARK   24  A    between atoms: C_40  and  O_41 
ROOT
HETATM    1  O   UNL     1     -19.265 -13.089   0.393  1.00  0.00    -0.348 OA
ENDROOT
BRANCH   1   2
HETATM    2  C   UNL     1     -19.464 -12.693  -0.992  1.00  0.00     0.292 C 
HETATM    3  O   UNL     1     -19.576 -11.278  -1.160  1.00  0.00    -0.348 OA
HETATM    4  C   UNL     1     -20.891 -10.697  -1.089  1.00  0.00     0.180 C 
HETATM    5  C   UNL     1     -21.932 -11.402  -1.996  1.00  0.00     0.187 C 
HETATM    6  C   UNL     1     -21.968 -12.880  -1.587  1.00  0.00     0.183 C 
HETATM    7  C   UNL     1     -20.569 -13.497  -1.741  1.00  0.00     0.204 C 
BRANCH   4   8
HETATM    8  C   UNL     1     -21.397 -10.581   0.364  1.00  0.00     0.198 C 
BRANCH   8   9
HETATM    9  O   UNL     1     -20.321 -10.482   1.279  1.00  0.00    -0.398 OA
HETATM   10  H   UNL     1     -19.541 -10.911   0.885  1.00  0.00     0.209 HD
ENDBRANCH   8   9
ENDBRANCH   4   8
BRANCH   5  11
HETATM   11  O   UNL     1     -21.580 -11.212  -3.386  1.00  0.00    -0.348 OA
BRANCH  11  12
HETATM   12  C   UNL     1     -20.522 -10.295  -3.750  1.00  0.00     0.292 C 
HETATM   13  C   UNL     1     -20.842  -9.295  -4.894  1.00  0.00     0.204 C 
HETATM   14  C   UNL     1     -19.654  -8.339  -5.077  1.00  0.00     0.183 C 
HETATM   15  C   UNL     1     -18.365  -9.135  -5.358  1.00  0.00     0.180 C 
HETATM   16  C   UNL     1     -18.125 -10.156  -4.228  1.00  0.00     0.179 C 
HETATM   17  O   UNL     1     -19.285 -10.992  -3.972  1.00  0.00    -0.348 OA
BRANCH  13  18
HETATM   18  O   UNL     1     -21.068  -9.911  -6.180  1.00  0.00    -0.388 OA
HETATM   19  H   UNL     1     -21.918  -9.560  -6.541  1.00  0.00     0.210 HD
ENDBRANCH  13  18
BRANCH  14  20
HETATM   20  O   UNL     1     -19.911  -7.406  -6.136  1.00  0.00    -0.390 OA
HETATM   21  H   UNL     1     -20.874  -7.407  -6.304  1.00  0.00     0.210 HD
ENDBRANCH  14  20
BRANCH  15  22
HETATM   22  O   UNL     1     -18.430  -9.867  -6.591  1.00  0.00    -0.390 OA
HETATM   23  H   UNL     1     -17.592  -9.720  -7.077  1.00  0.00     0.210 HD
ENDBRANCH  15  22
BRANCH  16  24
HETATM   24  C   UNL     1     -17.583  -9.498  -2.945  1.00  0.00     0.198 C 
BRANCH  24  25
HETATM   25  O   UNL     1     -16.240  -9.876  -2.680  1.00  0.00    -0.398 OA
HETATM   26  H   UNL     1     -15.994 -10.588  -3.300  1.00  0.00     0.209 HD
ENDBRANCH  24  25
ENDBRANCH  16  24
ENDBRANCH  11  12
ENDBRANCH   5  11
BRANCH   6  27
HETATM   27  O   UNL     1     -22.965 -13.580  -2.339  1.00  0.00    -0.390 OA
HETATM   28  H   UNL     1     -23.456 -14.152  -1.708  1.00  0.00     0.210 HD
ENDBRANCH   6  27
BRANCH   7  29
HETATM   29  O   UNL     1     -20.568 -14.879  -1.373  1.00  0.00    -0.388 OA
HETATM   30  H   UNL     1     -19.671 -15.223  -1.538  1.00  0.00     0.210 HD
ENDBRANCH   7  29
ENDBRANCH   1   2
BRANCH   1  31
HETATM   31  C   UNL     1     -17.871 -13.430   0.718  1.00  0.00     0.187 C 
HETATM   32  C   UNL     1     -16.834 -12.348   0.361  1.00  0.00     0.180 C 
HETATM   33  O   UNL     1     -16.611 -12.240  -1.054  1.00  0.00    -0.348 OA
HETATM   34  C   UNL     1     -16.107 -13.402  -1.729  1.00  0.00     0.292 C 
HETATM   35  C   UNL     1     -16.976 -14.658  -1.406  1.00  0.00     0.204 C 
HETATM   36  C   UNL     1     -17.454 -14.772   0.055  1.00  0.00     0.183 C 
BRANCH  32  37
HETATM   37  C   UNL     1     -15.536 -12.458   1.193  1.00  0.00     0.198 C 
BRANCH  37  38
HETATM   38  O   UNL     1     -15.754 -12.798   2.556  1.00  0.00    -0.398 OA
HETATM   39  H   UNL     1     -15.113 -13.493   2.800  1.00  0.00     0.209 HD
ENDBRANCH  37  38
ENDBRANCH  32  37
BRANCH  34  40
HETATM   40  O   UNL     1     -14.663 -13.556  -1.588  1.00  0.00    -0.348 OA
BRANCH  40  41
HETATM   41  C   UNL     1     -13.960 -13.257  -2.835  1.00  0.00     0.187 C 
HETATM   42  C   UNL     1     -14.894 -13.103  -4.058  1.00  0.00     0.180 C 
HETATM   43  O   UNL     1     -15.411 -14.372  -4.496  1.00  0.00    -0.349 OA
HETATM   44  C   UNL     1     -14.460 -15.335  -4.891  1.00  0.00     0.288 C 
HETATM   45  C   UNL     1     -13.401 -15.616  -3.807  1.00  0.00     0.204 C 
HETATM   46  C   UNL     1     -12.879 -14.327  -3.151  1.00  0.00     0.183 C 
BRANCH  42  47
HETATM   47  C   UNL     1     -14.214 -12.304  -5.191  1.00  0.00     0.198 C 
BRANCH  47  48
HETATM   48  O   UNL     1     -15.091 -12.165  -6.302  1.00  0.00    -0.398 OA
HETATM   49  H   UNL     1     -15.402 -13.073  -6.502  1.00  0.00     0.209 HD
ENDBRANCH  47  48
ENDBRANCH  42  47
BRANCH  44  50
HETATM   50  O   UNL     1     -13.859 -14.982  -6.132  1.00  0.00    -0.369 OA
HETATM   51  H   UNL     1     -14.222 -14.112  -6.386  1.00  0.00     0.212 HD
ENDBRANCH  44  50
BRANCH  45  52
HETATM   52  O   UNL     1     -12.292 -16.305  -4.432  1.00  0.00    -0.388 OA
HETATM   53  H   UNL     1     -12.162 -15.921  -5.318  1.00  0.00     0.210 HD
ENDBRANCH  45  52
BRANCH  46  54
HETATM   54  O   UNL     1     -12.116 -14.640  -1.983  1.00  0.00    -0.390 OA
HETATM   55  H   UNL     1     -11.299 -15.096  -2.277  1.00  0.00     0.210 HD
ENDBRANCH  46  54
ENDBRANCH  40  41
ENDBRANCH  34  40
BRANCH  35  56
HETATM   56  O   UNL     1     -16.325 -15.859  -1.829  1.00  0.00    -0.388 OA
HETATM   57  H   UNL     1     -15.370 -15.669  -1.861  1.00  0.00     0.210 HD
ENDBRANCH  35  56
BRANCH  36  58
HETATM   58  O   UNL     1     -18.526 -15.724   0.187  1.00  0.00    -0.390 OA
HETATM   59  H   UNL     1     -18.405 -16.161   1.049  1.00  0.00     0.210 HD
ENDBRANCH  36  58
ENDBRANCH   1  31
TORSDOF 24
ENDMDL
