MODEL 1
REMARK VINA RESULT:      -4.3      0.000      0.000
REMARK  3 active torsions:
REMARK  status: ('A' for Active; 'I' for Inactive)
REMARK    1  A    between atoms: C_2  and  C_3 
REMARK    2  A    between atoms: C_2  and  O_6 
REMARK    3  A    between atoms: C_3  and  O_5 
ROOT
HETATM    1  C   UNL     1     -22.710  -2.719 -12.366  1.00  0.00     0.050 C 
HETATM    2  C   UNL     1     -23.933  -2.735 -13.263  1.00  0.00     0.211 C 
ENDROOT
BRANCH   2   3
HETATM    3  C   UNL     1     -23.774  -1.820 -14.479  1.00  0.00     0.169 C 
HETATM    4  O   UNL     1     -22.917  -1.922 -15.342  1.00  0.00    -0.648 OA
BRANCH   3   5
HETATM    5  O   UNL     1     -24.720  -0.844 -14.480  1.00  0.00    -0.775 OA
HETATM    6  H   UNL     1     -24.825  -0.518 -15.405  1.00  0.00     0.167 HD
ENDBRANCH   3   5
ENDBRANCH   2   3
BRANCH   2   7
HETATM    7  O   UNL     1     -24.187  -4.067 -13.737  1.00  0.00    -0.385 OA
HETATM    8  H   UNL     1     -24.550  -4.575 -12.986  1.00  0.00     0.210 HD
ENDBRANCH   2   7
TORSDOF 3
ENDMDL
MODEL 2
REMARK VINA RESULT:      -4.2      1.729      2.493
REMARK  3 active torsions:
REMARK  status: ('A' for Active; 'I' for Inactive)
REMARK    1  A    between atoms: C_2  and  C_3 
REMARK    2  A    between atoms: C_2  and  O_6 
REMARK    3  A    between atoms: C_3  and  O_5 
ROOT
HETATM    1  C   UNL     1     -21.780  -2.920 -11.551  1.00  0.00     0.050 C 
HETATM    2  C   UNL     1     -22.758  -3.485 -12.564  1.00  0.00     0.211 C 
ENDROOT
BRANCH   2   3
HETATM    3  C   UNL     1     -24.167  -2.912 -12.394  1.00  0.00     0.169 C 
HETATM    4  O   UNL     1     -24.918  -3.127 -11.456  1.00  0.00    -0.648 OA
BRANCH   3   5
HETATM    5  O   UNL     1     -24.500  -2.122 -13.449  1.00  0.00    -0.775 OA
HETATM    6  H   UNL     1     -25.085  -1.400 -13.119  1.00  0.00     0.167 HD
ENDBRANCH   3   5
ENDBRANCH   2   3
BRANCH   2   7
HETATM    7  O   UNL     1     -22.317  -3.194 -13.900  1.00  0.00    -0.385 OA
HETATM    8  H   UNL     1     -21.434  -3.598 -14.005  1.00  0.00     0.210 HD
ENDBRANCH   2   7
TORSDOF 3
ENDMDL
MODEL 3
REMARK VINA RESULT:      -4.2     14.979     15.793
REMARK  3 active torsions:
REMARK  status: ('A' for Active; 'I' for Inactive)
REMARK    1  A    between atoms: C_2  and  C_3 
REMARK    2  A    between atoms: C_2  and  O_6 
REMARK    3  A    between atoms: C_3  and  O_5 
ROOT
HETATM    1  C   UNL     1     -29.812 -14.138 -19.247  1.00  0.00     0.050 C 
HETATM    2  C   UNL     1     -29.642 -14.639 -20.669  1.00  0.00     0.211 C 
ENDROOT
BRANCH   2   3
HETATM    3  C   UNL     1     -30.983 -14.922 -21.349  1.00  0.00     0.169 C 
HETATM    4  O   UNL     1     -31.653 -14.115 -21.973  1.00  0.00    -0.648 OA
BRANCH   3   5
HETATM    5  O   UNL     1     -31.360 -16.215 -21.161  1.00  0.00    -0.775 OA
HETATM    6  H   UNL     1     -30.834 -16.583 -20.413  1.00  0.00     0.167 HD
ENDBRANCH   3   5
ENDBRANCH   2   3
BRANCH   2   7
HETATM    7  O   UNL     1     -28.938 -13.667 -21.459  1.00  0.00    -0.385 OA
HETATM    8  H   UNL     1     -27.984 -13.813 -21.310  1.00  0.00     0.210 HD
ENDBRANCH   2   7
TORSDOF 3
ENDMDL
MODEL 4
REMARK VINA RESULT:      -4.1      3.823      4.662
REMARK  3 active torsions:
REMARK  status: ('A' for Active; 'I' for Inactive)
REMARK    1  A    between atoms: C_2  and  C_3 
REMARK    2  A    between atoms: C_2  and  O_6 
REMARK    3  A    between atoms: C_3  and  O_5 
ROOT
HETATM    1  C   UNL     1     -22.430  -4.419  -9.753  1.00  0.00     0.050 C 
HETATM    2  C   UNL     1     -23.561  -3.530  -9.271  1.00  0.00     0.211 C 
ENDROOT
BRANCH   2   3
HETATM    3  C   UNL     1     -24.701  -3.437 -10.287  1.00  0.00     0.169 C 
HETATM    4  O   UNL     1     -24.587  -3.519 -11.499  1.00  0.00    -0.648 OA
BRANCH   3   5
HETATM    5  O   UNL     1     -25.893  -3.234  -9.664  1.00  0.00    -0.775 OA
HETATM    6  H   UNL     1     -26.503  -3.964  -9.921  1.00  0.00     0.167 HD
ENDBRANCH   3   5
ENDBRANCH   2   3
BRANCH   2   7
HETATM    7  O   UNL     1     -24.102  -4.036  -8.039  1.00  0.00    -0.385 OA
HETATM    8  H   UNL     1     -23.528  -3.711  -7.319  1.00  0.00     0.210 HD
ENDBRANCH   2   7
TORSDOF 3
ENDMDL
MODEL 5
REMARK VINA RESULT:      -4.0      1.625      2.108
REMARK  3 active torsions:
REMARK  status: ('A' for Active; 'I' for Inactive)
REMARK    1  A    between atoms: C_2  and  C_3 
REMARK    2  A    between atoms: C_2  and  O_6 
REMARK    3  A    between atoms: C_3  and  O_5 
ROOT
HETATM    1  C   UNL     1     -23.720  -4.153 -11.567  1.00  0.00     0.050 C 
HETATM    2  C   UNL     1     -24.029  -2.933 -12.414  1.00  0.00     0.211 C 
ENDROOT
BRANCH   2   3
HETATM    3  C   UNL     1     -23.260  -2.933 -13.737  1.00  0.00     0.169 C 
HETATM    4  O   UNL     1     -23.701  -2.586 -14.820  1.00  0.00    -0.648 OA
BRANCH   3   5
HETATM    5  O   UNL     1     -21.992  -3.392 -13.561  1.00  0.00    -0.775 OA
HETATM    6  H   UNL     1     -21.936  -3.809 -12.670  1.00  0.00     0.167 HD
ENDBRANCH   3   5
ENDBRANCH   2   3
BRANCH   2   7
HETATM    7  O   UNL     1     -25.433  -2.877 -12.714  1.00  0.00    -0.385 OA
HETATM    8  H   UNL     1     -25.532  -3.086 -13.663  1.00  0.00     0.210 HD
ENDBRANCH   2   7
TORSDOF 3
ENDMDL
MODEL 6
REMARK VINA RESULT:      -3.9      3.185      4.220
REMARK  3 active torsions:
REMARK  status: ('A' for Active; 'I' for Inactive)
REMARK    1  A    between atoms: C_2  and  C_3 
REMARK    2  A    between atoms: C_2  and  O_6 
REMARK    3  A    between atoms: C_3  and  O_5 
ROOT
HETATM    1  C   UNL     1     -22.794  -2.912 -11.695  1.00  0.00     0.050 C 
HETATM    2  C   UNL     1     -24.122  -3.582 -11.395  1.00  0.00     0.211 C 
ENDROOT
BRANCH   2   3
HETATM    3  C   UNL     1     -24.497  -3.492  -9.915  1.00  0.00     0.169 C 
HETATM    4  O   UNL     1     -23.738  -3.657  -8.974  1.00  0.00    -0.648 OA
BRANCH   3   5
HETATM    5  O   UNL     1     -25.820  -3.211  -9.765  1.00  0.00    -0.775 OA
HETATM    6  H   UNL     1     -25.929  -2.672  -8.947  1.00  0.00     0.167 HD
ENDBRANCH   3   5
ENDBRANCH   2   3
BRANCH   2   7
HETATM    7  O   UNL     1     -25.173  -2.968 -12.159  1.00  0.00    -0.385 OA
HETATM    8  H   UNL     1     -25.054  -2.001 -12.087  1.00  0.00     0.210 HD
ENDBRANCH   2   7
TORSDOF 3
ENDMDL
MODEL 7
REMARK VINA RESULT:      -3.9      2.513      3.342
REMARK  3 active torsions:
REMARK  status: ('A' for Active; 'I' for Inactive)
REMARK    1  A    between atoms: C_2  and  C_3 
REMARK    2  A    between atoms: C_2  and  O_6 
REMARK    3  A    between atoms: C_3  and  O_5 
ROOT
HETATM    1  C   UNL     1     -23.672  -4.786 -10.299  1.00  0.00     0.050 C 
HETATM    2  C   UNL     1     -24.213  -3.428 -10.705  1.00  0.00     0.211 C 
ENDROOT
BRANCH   2   3
HETATM    3  C   UNL     1     -24.408  -3.309 -12.218  1.00  0.00     0.169 C 
HETATM    4  O   UNL     1     -25.371  -2.812 -12.778  1.00  0.00    -0.648 OA
BRANCH   3   5
HETATM    5  O   UNL     1     -23.354  -3.850 -12.887  1.00  0.00    -0.775 OA
HETATM    6  H   UNL     1     -23.632  -4.726 -13.242  1.00  0.00     0.167 HD
ENDBRANCH   3   5
ENDBRANCH   2   3
BRANCH   2   7
HETATM    7  O   UNL     1     -25.481  -3.187 -10.072  1.00  0.00    -0.385 OA
HETATM    8  H   UNL     1     -25.544  -3.798  -9.313  1.00  0.00     0.210 HD
ENDBRANCH   2   7
TORSDOF 3
ENDMDL
MODEL 8
REMARK VINA RESULT:      -3.9     13.439     14.132
REMARK  3 active torsions:
REMARK  status: ('A' for Active; 'I' for Inactive)
REMARK    1  A    between atoms: C_2  and  C_3 
REMARK    2  A    between atoms: C_2  and  O_6 
REMARK    3  A    between atoms: C_3  and  O_5 
ROOT
HETATM    1  C   UNL     1     -37.898  -8.856 -16.127  1.00  0.00     0.050 C 
HETATM    2  C   UNL     1     -37.040  -7.740 -16.693  1.00  0.00     0.211 C 
ENDROOT
BRANCH   2   3
HETATM    3  C   UNL     1     -35.949  -7.294 -15.716  1.00  0.00     0.169 C 
HETATM    4  O   UNL     1     -36.033  -7.303 -14.498  1.00  0.00    -0.648 OA
BRANCH   3   5
HETATM    5  O   UNL     1     -34.846  -6.862 -16.384  1.00  0.00    -0.775 OA
HETATM    6  H   UNL     1     -35.131  -6.534 -17.268  1.00  0.00     0.167 HD
ENDBRANCH   3   5
ENDBRANCH   2   3
BRANCH   2   7
HETATM    7  O   UNL     1     -36.402  -8.167 -17.907  1.00  0.00    -0.385 OA
HETATM    8  H   UNL     1     -37.008  -8.798 -18.343  1.00  0.00     0.210 HD
ENDBRANCH   2   7
TORSDOF 3
ENDMDL
MODEL 9
REMARK VINA RESULT:      -3.9      3.572      4.712
REMARK  3 active torsions:
REMARK  status: ('A' for Active; 'I' for Inactive)
REMARK    1  A    between atoms: C_2  and  C_3 
REMARK    2  A    between atoms: C_2  and  O_6 
REMARK    3  A    between atoms: C_3  and  O_5 
ROOT
HETATM    1  C   UNL     1     -22.124  -3.994 -10.040  1.00  0.00     0.050 C 
HETATM    2  C   UNL     1     -23.489  -3.838 -10.683  1.00  0.00     0.211 C 
ENDROOT
BRANCH   2   3
HETATM    3  C   UNL     1     -24.581  -3.519  -9.659  1.00  0.00     0.169 C 
HETATM    4  O   UNL     1     -25.702  -3.109  -9.913  1.00  0.00    -0.648 OA
BRANCH   3   5
HETATM    5  O   UNL     1     -24.138  -3.742  -8.392  1.00  0.00    -0.775 OA
HETATM    6  H   UNL     1     -23.246  -3.334  -8.302  1.00  0.00     0.167 HD
ENDBRANCH   3   5
ENDBRANCH   2   3
BRANCH   2   7
HETATM    7  O   UNL     1     -23.465  -2.778 -11.653  1.00  0.00    -0.385 OA
HETATM    8  H   UNL     1     -24.087  -2.091 -11.344  1.00  0.00     0.210 HD
ENDBRANCH   2   7
TORSDOF 3
ENDMDL
