MODEL 1
REMARK VINA RESULT:      -9.1      0.000      0.000
REMARK  4 active torsions:
REMARK  status: ('A' for Active; 'I' for Inactive)
REMARK    1  A    between atoms: C_9  and  O_25 
REMARK    2  A    between atoms: C_10  and  N_11 
REMARK    3  A    between atoms: N_13  and  C_15 
REMARK    4  A    between atoms: C_18  and  N_21 
ROOT
HETATM    1  N   UNL     1     -20.676  -7.056  -6.134  1.00  0.00    -0.297 N 
ATOM      2  HN  UNL     1     -21.438  -7.431  -6.699  1.00  0.00     0.187 HD
HETATM    3  N   UNL     1     -20.111  -5.969  -6.374  1.00  0.00    -0.299 N 
ATOM      4  HN  UNL     1     -19.376  -5.576  -5.787  1.00  0.00     0.187 HD
ENDROOT
BRANCH   1   5
HETATM    5  C   UNL     1     -20.149  -7.717  -4.994  1.00  0.00     0.092 A 
HETATM    6  C   UNL     1     -20.746  -7.473  -3.723  1.00  0.00     0.005 A 
HETATM    7  C   UNL     1     -21.775  -6.521  -3.526  1.00  0.00     0.014 A 
HETATM    8  C   UNL     1     -20.315  -8.211  -2.592  1.00  0.00    -0.024 A 
HETATM    9  C   UNL     1     -22.361  -6.318  -2.273  1.00  0.00     0.001 A 
HETATM   10  C   UNL     1     -21.935  -7.065  -1.182  1.00  0.00     0.001 A 
HETATM   11  C   UNL     1     -20.917  -8.003  -1.340  1.00  0.00     0.012 A 
HETATM   12  C   UNL     1     -19.295  -9.162  -2.728  1.00  0.00     0.015 A 
HETATM   13  C   UNL     1     -18.701  -9.399  -3.966  1.00  0.00     0.040 A 
HETATM   14  C   UNL     1     -19.133  -8.693  -5.086  1.00  0.00     0.094 A 
BRANCH  14  15
HETATM   15  O   UNL     1     -18.574  -8.992  -6.303  1.00  0.00    -0.358 OA
HETATM   16  H   UNL     1     -19.184  -9.553  -6.807  1.00  0.00     0.217 HD
ENDBRANCH  14  15
ENDBRANCH   1   5
BRANCH   3  17
HETATM   17  C   UNL     1     -20.596  -5.338  -7.548  1.00  0.00     0.070 A 
HETATM   18  C   UNL     1     -21.943  -4.923  -7.602  1.00  0.00     0.064 A 
HETATM   19  C   UNL     1     -22.479  -4.319  -8.748  1.00  0.00     0.062 A 
HETATM   20 CL   UNL     1     -23.003  -5.142  -6.249  1.00  0.00    -0.082 Cl
HETATM   21  C   UNL     1     -21.659  -4.109  -9.862  1.00  0.00     0.104 A 
HETATM   22  C   UNL     1     -20.311  -4.480  -9.828  1.00  0.00     0.038 A 
HETATM   23  C   UNL     1     -19.792  -5.081  -8.676  1.00  0.00     0.035 A 
BRANCH  21  24
HETATM   24  N   UNL     1     -22.215  -3.494 -11.073  1.00  0.00    -0.116 N 
HETATM   25  O   UNL     1     -21.544  -2.614 -11.629  1.00  0.00    -0.532 OA
HETATM   26  O   UNL     1     -23.323  -3.888 -11.463  1.00  0.00    -0.532 OA
ENDBRANCH  21  24
ENDBRANCH   3  17
TORSDOF 4
ENDMDL
MODEL 2
REMARK VINA RESULT:      -9.0      1.813      3.116
REMARK  4 active torsions:
REMARK  status: ('A' for Active; 'I' for Inactive)
REMARK    1  A    between atoms: C_9  and  O_25 
REMARK    2  A    between atoms: C_10  and  N_11 
REMARK    3  A    between atoms: N_13  and  C_15 
REMARK    4  A    between atoms: C_18  and  N_21 
ROOT
HETATM    1  N   UNL     1     -21.601  -6.719  -5.313  1.00  0.00    -0.297 N 
ATOM      2  HN  UNL     1     -22.115  -7.252  -6.014  1.00  0.00     0.187 HD
HETATM    3  N   UNL     1     -21.296  -5.516  -5.450  1.00  0.00    -0.299 N 
ATOM      4  HN  UNL     1     -20.818  -4.973  -4.731  1.00  0.00     0.187 HD
ENDROOT
BRANCH   1   5
HETATM    5  C   UNL     1     -21.161  -7.268  -4.080  1.00  0.00     0.092 A 
HETATM    6  C   UNL     1     -20.069  -8.183  -4.089  1.00  0.00     0.005 A 
HETATM    7  C   UNL     1     -19.468  -8.653  -5.281  1.00  0.00     0.014 A 
HETATM    8  C   UNL     1     -19.536  -8.650  -2.860  1.00  0.00    -0.024 A 
HETATM    9  C   UNL     1     -18.381  -9.532  -5.260  1.00  0.00     0.001 A 
HETATM   10  C   UNL     1     -17.863  -9.964  -4.045  1.00  0.00     0.001 A 
HETATM   11  C   UNL     1     -18.439  -9.528  -2.854  1.00  0.00     0.012 A 
HETATM   12  C   UNL     1     -20.097  -8.221  -1.650  1.00  0.00     0.015 A 
HETATM   13  C   UNL     1     -21.170  -7.334  -1.635  1.00  0.00     0.040 A 
HETATM   14  C   UNL     1     -21.686  -6.854  -2.836  1.00  0.00     0.094 A 
BRANCH  14  15
HETATM   15  O   UNL     1     -22.702  -5.933  -2.789  1.00  0.00    -0.358 OA
HETATM   16  H   UNL     1     -22.634  -5.422  -1.967  1.00  0.00     0.217 HD
ENDBRANCH  14  15
ENDBRANCH   1   5
BRANCH   3  17
HETATM   17  C   UNL     1     -21.683  -4.984  -6.706  1.00  0.00     0.070 A 
HETATM   18  C   UNL     1     -20.690  -4.623  -7.640  1.00  0.00     0.064 A 
HETATM   19  C   UNL     1     -21.019  -4.068  -8.884  1.00  0.00     0.062 A 
HETATM   20 CL   UNL     1     -19.008  -4.849  -7.289  1.00  0.00    -0.082 Cl
HETATM   21  C   UNL     1     -22.363  -3.877  -9.217  1.00  0.00     0.104 A 
HETATM   22  C   UNL     1     -23.374  -4.254  -8.327  1.00  0.00     0.038 A 
HETATM   23  C   UNL     1     -23.028  -4.808  -7.089  1.00  0.00     0.035 A 
BRANCH  21  24
HETATM   24  N   UNL     1     -22.718  -3.280 -10.510  1.00  0.00    -0.116 N 
HETATM   25  O   UNL     1     -21.791  -2.933 -11.255  1.00  0.00    -0.532 OA
HETATM   26  O   UNL     1     -23.921  -3.156 -10.776  1.00  0.00    -0.532 OA
ENDBRANCH  21  24
ENDBRANCH   3  17
TORSDOF 4
ENDMDL
MODEL 3
REMARK VINA RESULT:      -8.2      4.571      8.381
REMARK  4 active torsions:
REMARK  status: ('A' for Active; 'I' for Inactive)
REMARK    1  A    between atoms: C_9  and  O_25 
REMARK    2  A    between atoms: C_10  and  N_11 
REMARK    3  A    between atoms: N_13  and  C_15 
REMARK    4  A    between atoms: C_18  and  N_21 
ROOT
HETATM    1  N   UNL     1     -18.982  -9.605  -3.437  1.00  0.00    -0.297 N 
ATOM      2  HN  UNL     1     -19.246 -10.501  -3.027  1.00  0.00     0.187 HD
HETATM    3  N   UNL     1     -17.808  -9.305  -3.737  1.00  0.00    -0.299 N 
ATOM      4  HN  UNL     1     -17.550  -8.425  -4.183  1.00  0.00     0.187 HD
ENDROOT
BRANCH   1   5
HETATM    5  C   UNL     1     -19.912  -8.572  -3.725  1.00  0.00     0.092 A 
HETATM    6  C   UNL     1     -20.712  -8.055  -2.665  1.00  0.00     0.005 A 
HETATM    7  C   UNL     1     -20.700  -8.595  -1.357  1.00  0.00     0.014 A 
HETATM    8  C   UNL     1     -21.559  -6.944  -2.905  1.00  0.00    -0.024 A 
HETATM    9  C   UNL     1     -21.477  -8.053  -0.329  1.00  0.00     0.001 A 
HETATM   10  C   UNL     1     -22.287  -6.954  -0.581  1.00  0.00     0.001 A 
HETATM   11  C   UNL     1     -22.330  -6.405  -1.862  1.00  0.00     0.012 A 
HETATM   12  C   UNL     1     -21.616  -6.374  -4.183  1.00  0.00     0.015 A 
HETATM   13  C   UNL     1     -20.842  -6.880  -5.225  1.00  0.00     0.040 A 
HETATM   14  C   UNL     1     -19.992  -7.958  -4.994  1.00  0.00     0.094 A 
BRANCH  14  15
HETATM   15  O   UNL     1     -19.196  -8.395  -6.022  1.00  0.00    -0.358 OA
HETATM   16  H   UNL     1     -18.279  -8.463  -5.712  1.00  0.00     0.217 HD
ENDBRANCH  14  15
ENDBRANCH   1   5
BRANCH   3  17
HETATM   17  C   UNL     1     -16.871 -10.313  -3.394  1.00  0.00     0.070 A 
HETATM   18  C   UNL     1     -15.941 -10.750  -4.360  1.00  0.00     0.064 A 
HETATM   19  C   UNL     1     -15.013 -11.762  -4.080  1.00  0.00     0.062 A 
HETATM   20 CL   UNL     1     -15.904 -10.053  -5.946  1.00  0.00    -0.082 Cl
HETATM   21  C   UNL     1     -14.996 -12.346  -2.810  1.00  0.00     0.104 A 
HETATM   22  C   UNL     1     -15.883 -11.914  -1.819  1.00  0.00     0.038 A 
HETATM   23  C   UNL     1     -16.804 -10.901  -2.116  1.00  0.00     0.035 A 
BRANCH  21  24
HETATM   24  N   UNL     1     -14.039 -13.420  -2.512  1.00  0.00    -0.116 N 
HETATM   25  O   UNL     1     -12.936 -13.375  -3.072  1.00  0.00    -0.532 OA
HETATM   26  O   UNL     1     -14.396 -14.306  -1.723  1.00  0.00    -0.532 OA
ENDBRANCH  21  24
ENDBRANCH   3  17
TORSDOF 4
ENDMDL
MODEL 4
REMARK VINA RESULT:      -8.2      4.728      7.192
REMARK  4 active torsions:
REMARK  status: ('A' for Active; 'I' for Inactive)
REMARK    1  A    between atoms: C_9  and  O_25 
REMARK    2  A    between atoms: C_10  and  N_11 
REMARK    3  A    between atoms: N_13  and  C_15 
REMARK    4  A    between atoms: C_18  and  N_21 
ROOT
HETATM    1  N   UNL     1     -19.723  -9.387  -3.913  1.00  0.00    -0.297 N 
ATOM      2  HN  UNL     1     -20.001 -10.357  -4.059  1.00  0.00     0.187 HD
HETATM    3  N   UNL     1     -18.602  -8.937  -4.231  1.00  0.00    -0.299 N 
ATOM      4  HN  UNL     1     -18.338  -7.958  -4.121  1.00  0.00     0.187 HD
ENDROOT
BRANCH   1   5
HETATM    5  C   UNL     1     -20.568  -8.410  -3.326  1.00  0.00     0.092 A 
HETATM    6  C   UNL     1     -20.949  -8.563  -1.962  1.00  0.00     0.005 A 
HETATM    7  C   UNL     1     -20.609  -9.700  -1.190  1.00  0.00     0.014 A 
HETATM    8  C   UNL     1     -21.694  -7.539  -1.323  1.00  0.00    -0.024 A 
HETATM    9  C   UNL     1     -20.974  -9.814   0.154  1.00  0.00     0.001 A 
HETATM   10  C   UNL     1     -21.689  -8.791   0.765  1.00  0.00     0.001 A 
HETATM   11  C   UNL     1     -22.048  -7.663   0.031  1.00  0.00     0.012 A 
HETATM   12  C   UNL     1     -22.063  -6.394  -2.041  1.00  0.00     0.015 A 
HETATM   13  C   UNL     1     -21.701  -6.242  -3.377  1.00  0.00     0.040 A 
HETATM   14  C   UNL     1     -20.952  -7.233  -4.007  1.00  0.00     0.094 A 
BRANCH  14  15
HETATM   15  O   UNL     1     -20.557  -7.028  -5.305  1.00  0.00    -0.358 OA
HETATM   16  H   UNL     1     -20.942  -6.199  -5.630  1.00  0.00     0.217 HD
ENDBRANCH  14  15
ENDBRANCH   1   5
BRANCH   3  17
HETATM   17  C   UNL     1     -17.736  -9.926  -4.762  1.00  0.00     0.070 A 
HETATM   18  C   UNL     1     -16.489 -10.156  -4.145  1.00  0.00     0.064 A 
HETATM   19  C   UNL     1     -15.585 -11.103  -4.646  1.00  0.00     0.062 A 
HETATM   20 CL   UNL     1     -16.013  -9.272  -2.732  1.00  0.00    -0.082 Cl
HETATM   21  C   UNL     1     -15.929 -11.849  -5.777  1.00  0.00     0.104 A 
HETATM   22  C   UNL     1     -17.171 -11.668  -6.394  1.00  0.00     0.038 A 
HETATM   23  C   UNL     1     -18.062 -10.719  -5.880  1.00  0.00     0.035 A 
BRANCH  21  24
HETATM   24  N   UNL     1     -14.983 -12.831  -6.321  1.00  0.00    -0.116 N 
HETATM   25  O   UNL     1     -13.891 -12.411  -6.727  1.00  0.00    -0.532 OA
HETATM   26  O   UNL     1     -15.335 -14.018  -6.345  1.00  0.00    -0.532 OA
ENDBRANCH  21  24
ENDBRANCH   3  17
TORSDOF 4
ENDMDL
MODEL 5
REMARK VINA RESULT:      -8.1      6.210      7.734
REMARK  4 active torsions:
REMARK  status: ('A' for Active; 'I' for Inactive)
REMARK    1  A    between atoms: C_9  and  O_25 
REMARK    2  A    between atoms: C_10  and  N_11 
REMARK    3  A    between atoms: N_13  and  C_15 
REMARK    4  A    between atoms: C_18  and  N_21 
ROOT
HETATM    1  N   UNL     1     -19.136 -10.157  -2.510  1.00  0.00    -0.297 N 
ATOM      2  HN  UNL     1     -19.459 -10.648  -3.344  1.00  0.00     0.187 HD
HETATM    3  N   UNL     1     -17.936  -9.892  -2.289  1.00  0.00    -0.299 N 
ATOM      4  HN  UNL     1     -17.618  -9.367  -1.475  1.00  0.00     0.187 HD
ENDROOT
BRANCH   1   5
HETATM    5  C   UNL     1     -20.004  -9.707  -1.482  1.00  0.00     0.092 A 
HETATM    6  C   UNL     1     -20.729  -8.496  -1.679  1.00  0.00     0.005 A 
HETATM    7  C   UNL     1     -20.546  -7.664  -2.809  1.00  0.00     0.014 A 
HETATM    8  C   UNL     1     -21.690  -8.090  -0.717  1.00  0.00    -0.024 A 
HETATM    9  C   UNL     1     -21.288  -6.493  -2.990  1.00  0.00     0.001 A 
HETATM   10  C   UNL     1     -22.237  -6.123  -2.044  1.00  0.00     0.001 A 
HETATM   11  C   UNL     1     -22.434  -6.915  -0.915  1.00  0.00     0.012 A 
HETATM   12  C   UNL     1     -21.907  -8.873   0.424  1.00  0.00     0.015 A 
HETATM   13  C   UNL     1     -21.196 -10.053   0.626  1.00  0.00     0.040 A 
HETATM   14  C   UNL     1     -20.265 -10.470  -0.322  1.00  0.00     0.094 A 
BRANCH  14  15
HETATM   15  O   UNL     1     -19.625 -11.667  -0.127  1.00  0.00    -0.358 OA
HETATM   16  H   UNL     1     -19.857 -12.276  -0.847  1.00  0.00     0.217 HD
ENDBRANCH  14  15
ENDBRANCH   1   5
BRANCH   3  17
HETATM   17  C   UNL     1     -17.063 -10.394  -3.287  1.00  0.00     0.070 A 
HETATM   18  C   UNL     1     -16.070 -11.329  -2.929  1.00  0.00     0.064 A 
HETATM   19  C   UNL     1     -15.165 -11.836  -3.872  1.00  0.00     0.062 A 
HETATM   20 CL   UNL     1     -15.921 -11.897  -1.299  1.00  0.00    -0.082 Cl
HETATM   21  C   UNL     1     -15.253 -11.417  -5.203  1.00  0.00     0.104 A 
HETATM   22  C   UNL     1     -16.246 -10.515  -5.597  1.00  0.00     0.038 A 
HETATM   23  C   UNL     1     -17.143 -10.020  -4.643  1.00  0.00     0.035 A 
BRANCH  21  24
HETATM   24  N   UNL     1     -14.298 -11.928  -6.195  1.00  0.00    -0.116 N 
HETATM   25  O   UNL     1     -14.655 -11.939  -7.381  1.00  0.00    -0.532 OA
HETATM   26  O   UNL     1     -13.197 -12.320  -5.785  1.00  0.00    -0.532 OA
ENDBRANCH  21  24
ENDBRANCH   3  17
TORSDOF 4
ENDMDL
MODEL 6
REMARK VINA RESULT:      -7.6      3.543      4.676
REMARK  4 active torsions:
REMARK  status: ('A' for Active; 'I' for Inactive)
REMARK    1  A    between atoms: C_9  and  O_25 
REMARK    2  A    between atoms: C_10  and  N_11 
REMARK    3  A    between atoms: N_13  and  C_15 
REMARK    4  A    between atoms: C_18  and  N_21 
ROOT
HETATM    1  N   UNL     1     -20.765  -9.777  -2.780  1.00  0.00    -0.297 N 
ATOM      2  HN  UNL     1     -21.272 -10.086  -3.609  1.00  0.00     0.187 HD
HETATM    3  N   UNL     1     -20.330  -8.615  -2.633  1.00  0.00    -0.299 N 
ATOM      4  HN  UNL     1     -19.857  -8.295  -1.788  1.00  0.00     0.187 HD
ENDROOT
BRANCH   1   5
HETATM    5  C   UNL     1     -20.480 -10.621  -1.676  1.00  0.00     0.092 A 
HETATM    6  C   UNL     1     -21.565 -11.140  -0.912  1.00  0.00     0.005 A 
HETATM    7  C   UNL     1     -22.912 -10.768  -1.137  1.00  0.00     0.014 A 
HETATM    8  C   UNL     1     -21.310 -12.079   0.120  1.00  0.00    -0.024 A 
HETATM    9  C   UNL     1     -23.961 -11.310  -0.388  1.00  0.00     0.001 A 
HETATM   10  C   UNL     1     -23.691 -12.242   0.606  1.00  0.00     0.001 A 
HETATM   11  C   UNL     1     -22.374 -12.621   0.860  1.00  0.00     0.012 A 
HETATM   12  C   UNL     1     -19.995 -12.477   0.390  1.00  0.00     0.015 A 
HETATM   13  C   UNL     1     -18.929 -11.968  -0.347  1.00  0.00     0.040 A 
HETATM   14  C   UNL     1     -19.171 -11.061  -1.376  1.00  0.00     0.094 A 
BRANCH  14  15
HETATM   15  O   UNL     1     -18.109 -10.624  -2.126  1.00  0.00    -0.358 OA
HETATM   16  H   UNL     1     -17.743 -11.369  -2.628  1.00  0.00     0.217 HD
ENDBRANCH  14  15
ENDBRANCH   1   5
BRANCH   3  17
HETATM   17  C   UNL     1     -20.562  -7.788  -3.761  1.00  0.00     0.070 A 
HETATM   18  C   UNL     1     -21.443  -6.692  -3.645  1.00  0.00     0.064 A 
HETATM   19  C   UNL     1     -21.726  -5.860  -4.737  1.00  0.00     0.062 A 
HETATM   20 CL   UNL     1     -22.218  -6.323  -2.141  1.00  0.00    -0.082 Cl
HETATM   21  C   UNL     1     -21.115  -6.111  -5.970  1.00  0.00     0.104 A 
HETATM   22  C   UNL     1     -20.213  -7.171  -6.110  1.00  0.00     0.038 A 
HETATM   23  C   UNL     1     -19.940  -7.991  -5.009  1.00  0.00     0.035 A 
BRANCH  21  24
HETATM   24  N   UNL     1     -21.419  -5.257  -7.124  1.00  0.00    -0.116 N 
HETATM   25  O   UNL     1     -20.642  -5.297  -8.087  1.00  0.00    -0.532 OA
HETATM   26  O   UNL     1     -22.431  -4.546  -7.063  1.00  0.00    -0.532 OA
ENDBRANCH  21  24
ENDBRANCH   3  17
TORSDOF 4
ENDMDL
MODEL 7
REMARK VINA RESULT:      -7.6      3.312      7.964
REMARK  4 active torsions:
REMARK  status: ('A' for Active; 'I' for Inactive)
REMARK    1  A    between atoms: C_9  and  O_25 
REMARK    2  A    between atoms: C_10  and  N_11 
REMARK    3  A    between atoms: N_13  and  C_15 
REMARK    4  A    between atoms: C_18  and  N_21 
ROOT
HETATM    1  N   UNL     1     -21.718  -5.873  -4.758  1.00  0.00    -0.297 N 
ATOM      2  HN  UNL     1     -21.334  -5.408  -3.936  1.00  0.00     0.187 HD
HETATM    3  N   UNL     1     -21.979  -7.093  -4.800  1.00  0.00    -0.299 N 
ATOM      4  HN  UNL     1     -22.400  -7.550  -5.608  1.00  0.00     0.187 HD
ENDROOT
BRANCH   1   5
HETATM    5  C   UNL     1     -22.012  -5.199  -5.972  1.00  0.00     0.092 A 
HETATM    6  C   UNL     1     -20.933  -4.763  -6.793  1.00  0.00     0.005 A 
HETATM    7  C   UNL     1     -19.576  -4.875  -6.404  1.00  0.00     0.014 A 
HETATM    8  C   UNL     1     -21.203  -4.196  -8.064  1.00  0.00    -0.024 A 
HETATM    9  C   UNL     1     -18.534  -4.461  -7.239  1.00  0.00     0.001 A 
HETATM   10  C   UNL     1     -18.821  -3.925  -8.488  1.00  0.00     0.001 A 
HETATM   11  C   UNL     1     -20.146  -3.790  -8.896  1.00  0.00     0.012 A 
HETATM   12  C   UNL     1     -22.528  -4.055  -8.497  1.00  0.00     0.015 A 
HETATM   13  C   UNL     1     -23.588  -4.472  -7.695  1.00  0.00     0.040 A 
HETATM   14  C   UNL     1     -23.331  -5.049  -6.454  1.00  0.00     0.094 A 
BRANCH  14  15
HETATM   15  O   UNL     1     -24.392  -5.507  -5.714  1.00  0.00    -0.358 OA
HETATM   16  H   UNL     1     -25.198  -5.041  -5.988  1.00  0.00     0.217 HD
ENDBRANCH  14  15
ENDBRANCH   1   5
BRANCH   3  17
HETATM   17  C   UNL     1     -21.629  -7.777  -3.608  1.00  0.00     0.070 A 
HETATM   18  C   UNL     1     -21.277  -9.142  -3.672  1.00  0.00     0.064 A 
HETATM   19  C   UNL     1     -20.950  -9.870  -2.520  1.00  0.00     0.062 A 
HETATM   20 CL   UNL     1     -21.233  -9.984  -5.185  1.00  0.00    -0.082 Cl
HETATM   21  C   UNL     1     -20.959  -9.230  -1.277  1.00  0.00     0.104 A 
HETATM   22  C   UNL     1     -21.274  -7.871  -1.182  1.00  0.00     0.038 A 
HETATM   23  C   UNL     1     -21.597  -7.158  -2.343  1.00  0.00     0.035 A 
BRANCH  21  24
HETATM   24  N   UNL     1     -20.636  -9.988  -0.062  1.00  0.00    -0.116 N 
HETATM   25  O   UNL     1     -21.093  -9.573   1.011  1.00  0.00    -0.532 OA
HETATM   26  O   UNL     1     -19.923 -10.994  -0.184  1.00  0.00    -0.532 OA
ENDBRANCH  21  24
ENDBRANCH   3  17
TORSDOF 4
ENDMDL
MODEL 8
REMARK VINA RESULT:      -7.4     16.986     18.699
REMARK  4 active torsions:
REMARK  status: ('A' for Active; 'I' for Inactive)
REMARK    1  A    between atoms: C_9  and  O_25 
REMARK    2  A    between atoms: C_10  and  N_11 
REMARK    3  A    between atoms: N_13  and  C_15 
REMARK    4  A    between atoms: C_18  and  N_21 
ROOT
HETATM    1  N   UNL     1     -22.117   9.293   1.883  1.00  0.00    -0.297 N 
ATOM      2  HN  UNL     1     -21.369   9.606   1.263  1.00  0.00     0.187 HD
HETATM    3  N   UNL     1     -21.936   8.993   3.082  1.00  0.00    -0.299 N 
ATOM      4  HN  UNL     1     -22.690   8.718   3.711  1.00  0.00     0.187 HD
ENDROOT
BRANCH   1   5
HETATM    5  C   UNL     1     -23.468   9.154   1.472  1.00  0.00     0.092 A 
HETATM    6  C   UNL     1     -23.762   8.317   0.357  1.00  0.00     0.005 A 
HETATM    7  C   UNL     1     -22.759   7.699  -0.428  1.00  0.00     0.014 A 
HETATM    8  C   UNL     1     -25.113   8.069   0.004  1.00  0.00    -0.024 A 
HETATM    9  C   UNL     1     -23.076   6.862  -1.502  1.00  0.00     0.001 A 
HETATM   10  C   UNL     1     -24.406   6.619  -1.820  1.00  0.00     0.001 A 
HETATM   11  C   UNL     1     -25.417   7.221  -1.074  1.00  0.00     0.012 A 
HETATM   12  C   UNL     1     -26.146   8.660   0.742  1.00  0.00     0.015 A 
HETATM   13  C   UNL     1     -25.865   9.486   1.828  1.00  0.00     0.040 A 
HETATM   14  C   UNL     1     -24.541   9.718   2.195  1.00  0.00     0.094 A 
BRANCH  14  15
HETATM   15  O   UNL     1     -24.296  10.485   3.306  1.00  0.00    -0.358 OA
HETATM   16  H   UNL     1     -23.647  10.034   3.869  1.00  0.00     0.217 HD
ENDBRANCH  14  15
ENDBRANCH   1   5
BRANCH   3  17
HETATM   17  C   UNL     1     -20.577   9.074   3.477  1.00  0.00     0.070 A 
HETATM   18  C   UNL     1     -20.247   8.966   4.844  1.00  0.00     0.064 A 
HETATM   19  C   UNL     1     -18.922   9.066   5.289  1.00  0.00     0.062 A 
HETATM   20 CL   UNL     1     -21.471   8.702   6.042  1.00  0.00    -0.082 Cl
HETATM   21  C   UNL     1     -17.897   9.266   4.358  1.00  0.00     0.104 A 
HETATM   22  C   UNL     1     -18.187   9.347   2.993  1.00  0.00     0.038 A 
HETATM   23  C   UNL     1     -19.517   9.243   2.565  1.00  0.00     0.035 A 
BRANCH  21  24
HETATM   24  N   UNL     1     -16.508   9.391   4.816  1.00  0.00    -0.116 N 
HETATM   25  O   UNL     1     -15.974  10.505   4.728  1.00  0.00    -0.532 OA
HETATM   26  O   UNL     1     -15.954   8.375   5.257  1.00  0.00    -0.532 OA
ENDBRANCH  21  24
ENDBRANCH   3  17
TORSDOF 4
ENDMDL
MODEL 9
REMARK VINA RESULT:      -7.4      5.548      7.990
REMARK  4 active torsions:
REMARK  status: ('A' for Active; 'I' for Inactive)
REMARK    1  A    between atoms: C_9  and  O_25 
REMARK    2  A    between atoms: C_10  and  N_11 
REMARK    3  A    between atoms: N_13  and  C_15 
REMARK    4  A    between atoms: C_18  and  N_21 
ROOT
HETATM    1  N   UNL     1     -18.719  -9.956  -3.979  1.00  0.00    -0.297 N 
ATOM      2  HN  UNL     1     -19.009 -10.655  -4.663  1.00  0.00     0.187 HD
HETATM    3  N   UNL     1     -17.526  -9.743  -3.678  1.00  0.00    -0.299 N 
ATOM      4  HN  UNL     1     -17.233  -9.017  -3.023  1.00  0.00     0.187 HD
ENDROOT
BRANCH   1   5
HETATM    5  C   UNL     1     -19.628  -9.126  -3.273  1.00  0.00     0.092 A 
HETATM    6  C   UNL     1     -20.281  -8.073  -3.976  1.00  0.00     0.005 A 
HETATM    7  C   UNL     1     -19.988  -7.746  -5.322  1.00  0.00     0.014 A 
HETATM    8  C   UNL     1     -21.281  -7.308  -3.322  1.00  0.00    -0.024 A 
HETATM    9  C   UNL     1     -20.661  -6.723  -5.996  1.00  0.00     0.001 A 
HETATM   10  C   UNL     1     -21.649  -5.999  -5.341  1.00  0.00     0.001 A 
HETATM   11  C   UNL     1     -21.955  -6.287  -4.012  1.00  0.00     0.012 A 
HETATM   12  C   UNL     1     -21.607  -7.583  -1.987  1.00  0.00     0.015 A 
HETATM   13  C   UNL     1     -20.965  -8.606  -1.293  1.00  0.00     0.040 A 
HETATM   14  C   UNL     1     -19.997  -9.375  -1.933  1.00  0.00     0.094 A 
BRANCH  14  15
HETATM   15  O   UNL     1     -19.427 -10.416  -1.244  1.00  0.00    -0.358 OA
HETATM   16  H   UNL     1     -20.055 -10.741  -0.579  1.00  0.00     0.217 HD
ENDBRANCH  14  15
ENDBRANCH   1   5
BRANCH   3  17
HETATM   17  C   UNL     1     -16.622 -10.613  -4.338  1.00  0.00     0.070 A 
HETATM   18  C   UNL     1     -15.701 -11.362  -3.576  1.00  0.00     0.064 A 
HETATM   19  C   UNL     1     -14.769 -12.215  -4.181  1.00  0.00     0.062 A 
HETATM   20 CL   UNL     1     -15.681 -11.261  -1.846  1.00  0.00    -0.082 Cl
HETATM   21  C   UNL     1     -14.755 -12.340  -5.574  1.00  0.00     0.104 A 
HETATM   22  C   UNL     1     -15.675 -11.635  -6.358  1.00  0.00     0.038 A 
HETATM   23  C   UNL     1     -16.600 -10.788  -5.736  1.00  0.00     0.035 A 
BRANCH  21  24
HETATM   24  N   UNL     1     -13.771 -13.217  -6.220  1.00  0.00    -0.116 N 
HETATM   25  O   UNL     1     -13.943 -14.439  -6.124  1.00  0.00    -0.532 OA
HETATM   26  O   UNL     1     -12.827 -12.681  -6.817  1.00  0.00    -0.532 OA
ENDBRANCH  21  24
ENDBRANCH   3  17
TORSDOF 4
ENDMDL
