MODEL 1
REMARK VINA RESULT:      -7.5      0.000      0.000
REMARK  5 active torsions:
REMARK  status: ('A' for Active; 'I' for Inactive)
REMARK    1  A    between atoms: C_3  and  C_10 
REMARK    2  A    between atoms: C_11  and  C_12 
REMARK    3  A    between atoms: C_13  and  C_14 
REMARK    4  A    between atoms: C_15  and  C_16 
REMARK    5  A    between atoms: C_17  and  C_18 
ROOT
HETATM    1  C   UNL     1     -20.770  -9.040  -2.772  1.00  0.00     0.009 C 
HETATM    2  C   UNL     1     -19.424  -8.979  -2.807  1.00  0.00     0.007 C 
ENDROOT
BRANCH   2   3
HETATM    3  C   UNL     1     -18.604  -9.246  -3.997  1.00  0.00    -0.062 C 
HETATM    4  C   UNL     1     -18.917  -8.836  -5.250  1.00  0.00     0.007 C 
HETATM    5  C   UNL     1     -17.356 -10.070  -3.779  1.00  0.00     0.048 C 
BRANCH   4   6
HETATM    6  C   UNL     1     -20.071  -8.027  -5.602  1.00  0.00     0.001 C 
HETATM    7  C   UNL     1     -20.167  -6.681  -5.614  1.00  0.00     0.007 C 
BRANCH   7   8
HETATM    8  C   UNL     1     -21.400  -5.941  -5.931  1.00  0.00    -0.059 C 
HETATM    9  C   UNL     1     -21.506  -4.855  -6.726  1.00  0.00     0.048 C 
HETATM   10  C   UNL     1     -22.712  -6.382  -5.305  1.00  0.00     0.048 C 
BRANCH   9  11
HETATM   11  C   UNL     1     -20.485  -4.098  -7.489  1.00  0.00     0.259 C 
HETATM   12  O   UNL     1     -19.979  -4.568  -8.501  1.00  0.00    -0.302 OA
ENDBRANCH   9  11
ENDBRANCH   7   8
ENDBRANCH   4   6
ENDBRANCH   2   3
BRANCH   1  13
HETATM   13  C   UNL     1     -21.631  -8.761  -1.607  1.00  0.00    -0.048 C 
HETATM   14  C   UNL     1     -21.984  -7.499  -1.253  1.00  0.00    -0.077 C 
HETATM   15  C   UNL     1     -21.604  -6.245  -2.001  1.00  0.00     0.044 C 
HETATM   16  C   UNL     1     -22.880  -7.190  -0.066  1.00  0.00     0.034 C 
HETATM   17  C   UNL     1     -23.142  -8.356   0.874  1.00  0.00     0.005 C 
HETATM   18  C   UNL     1     -23.394  -9.620   0.073  1.00  0.00     0.014 C 
HETATM   19  C   UNL     1     -22.192  -9.994  -0.844  1.00  0.00    -0.020 C 
HETATM   20  C   UNL     1     -22.730 -11.088  -1.795  1.00  0.00     0.020 C 
HETATM   21  C   UNL     1     -21.076 -10.601   0.033  1.00  0.00     0.020 C 
ENDBRANCH   1  13
TORSDOF 5
ENDMDL
MODEL 2
REMARK VINA RESULT:      -7.2      3.122      5.574
REMARK  5 active torsions:
REMARK  status: ('A' for Active; 'I' for Inactive)
REMARK    1  A    between atoms: C_3  and  C_10 
REMARK    2  A    between atoms: C_11  and  C_12 
REMARK    3  A    between atoms: C_13  and  C_14 
REMARK    4  A    between atoms: C_15  and  C_16 
REMARK    5  A    between atoms: C_17  and  C_18 
ROOT
HETATM    1  C   UNL     1     -19.711  -6.261  -5.826  1.00  0.00     0.009 C 
HETATM    2  C   UNL     1     -20.172  -5.739  -6.980  1.00  0.00     0.007 C 
ENDROOT
BRANCH   2   3
HETATM    3  C   UNL     1     -19.549  -4.621  -7.701  1.00  0.00    -0.062 C 
HETATM    4  C   UNL     1     -20.137  -3.941  -8.715  1.00  0.00     0.007 C 
HETATM    5  C   UNL     1     -18.142  -4.257  -7.286  1.00  0.00     0.048 C 
BRANCH   4   6
HETATM    6  C   UNL     1     -21.486  -4.170  -9.205  1.00  0.00     0.001 C 
HETATM    7  C   UNL     1     -22.016  -3.784 -10.384  1.00  0.00     0.007 C 
BRANCH   7   8
HETATM    8  C   UNL     1     -23.417  -4.011 -10.776  1.00  0.00    -0.059 C 
HETATM    9  C   UNL     1     -24.032  -3.534 -11.879  1.00  0.00     0.048 C 
HETATM   10  C   UNL     1     -24.317  -4.833  -9.871  1.00  0.00     0.048 C 
BRANCH   9  11
HETATM   11  C   UNL     1     -23.535  -2.680 -12.984  1.00  0.00     0.259 C 
HETATM   12  O   UNL     1     -24.309  -2.179 -13.790  1.00  0.00    -0.302 OA
ENDBRANCH   9  11
ENDBRANCH   7   8
ENDBRANCH   4   6
ENDBRANCH   2   3
BRANCH   1  13
HETATM   13  C   UNL     1     -20.294  -7.394  -5.080  1.00  0.00    -0.048 C 
HETATM   14  C   UNL     1     -19.807  -8.657  -5.186  1.00  0.00    -0.077 C 
HETATM   15  C   UNL     1     -18.612  -9.064  -6.012  1.00  0.00     0.044 C 
HETATM   16  C   UNL     1     -20.382  -9.834  -4.418  1.00  0.00     0.034 C 
HETATM   17  C   UNL     1     -21.712  -9.575  -3.728  1.00  0.00     0.005 C 
HETATM   18  C   UNL     1     -21.697  -8.207  -3.072  1.00  0.00     0.014 C 
HETATM   19  C   UNL     1     -21.447  -7.059  -4.093  1.00  0.00    -0.020 C 
HETATM   20  C   UNL     1     -21.151  -5.808  -3.235  1.00  0.00     0.020 C 
HETATM   21  C   UNL     1     -22.747  -6.820  -4.891  1.00  0.00     0.020 C 
ENDBRANCH   1  13
TORSDOF 5
ENDMDL
MODEL 3
REMARK VINA RESULT:      -7.1      1.714      4.387
REMARK  5 active torsions:
REMARK  status: ('A' for Active; 'I' for Inactive)
REMARK    1  A    between atoms: C_3  and  C_10 
REMARK    2  A    between atoms: C_11  and  C_12 
REMARK    3  A    between atoms: C_13  and  C_14 
REMARK    4  A    between atoms: C_15  and  C_16 
REMARK    5  A    between atoms: C_17  and  C_18 
ROOT
HETATM    1  C   UNL     1     -21.106  -9.569  -1.543  1.00  0.00     0.009 C 
HETATM    2  C   UNL     1     -21.015  -8.354  -0.968  1.00  0.00     0.007 C 
ENDROOT
BRANCH   2   3
HETATM    3  C   UNL     1     -22.096  -7.360  -0.932  1.00  0.00    -0.062 C 
HETATM    4  C   UNL     1     -22.286  -6.400  -1.870  1.00  0.00     0.007 C 
HETATM    5  C   UNL     1     -23.017  -7.416   0.265  1.00  0.00     0.048 C 
BRANCH   4   6
HETATM    6  C   UNL     1     -21.492  -6.240  -3.076  1.00  0.00     0.001 C 
HETATM    7  C   UNL     1     -21.823  -6.587  -4.338  1.00  0.00     0.007 C 
BRANCH   7   8
HETATM    8  C   UNL     1     -20.929  -6.439  -5.498  1.00  0.00    -0.059 C 
HETATM    9  C   UNL     1     -21.013  -5.500  -6.465  1.00  0.00     0.048 C 
HETATM   10  C   UNL     1     -19.798  -7.433  -5.695  1.00  0.00     0.048 C 
BRANCH   9  11
HETATM   11  C   UNL     1     -21.969  -4.385  -6.665  1.00  0.00     0.259 C 
HETATM   12  O   UNL     1     -23.117  -4.599  -7.035  1.00  0.00    -0.302 OA
ENDBRANCH   9  11
ENDBRANCH   7   8
ENDBRANCH   4   6
ENDBRANCH   2   3
BRANCH   1  13
HETATM   13  C   UNL     1     -20.054 -10.603  -1.586  1.00  0.00    -0.048 C 
HETATM   14  C   UNL     1     -19.841 -11.462  -0.556  1.00  0.00    -0.077 C 
HETATM   15  C   UNL     1     -20.652 -11.518   0.715  1.00  0.00     0.044 C 
HETATM   16  C   UNL     1     -18.772 -12.541  -0.584  1.00  0.00     0.034 C 
HETATM   17  C   UNL     1     -17.767 -12.434  -1.720  1.00  0.00     0.005 C 
HETATM   18  C   UNL     1     -18.480 -12.072  -3.010  1.00  0.00     0.014 C 
HETATM   19  C   UNL     1     -19.246 -10.720  -2.909  1.00  0.00    -0.020 C 
HETATM   20  C   UNL     1     -20.148 -10.669  -4.163  1.00  0.00     0.020 C 
HETATM   21  C   UNL     1     -18.221  -9.568  -2.983  1.00  0.00     0.020 C 
ENDBRANCH   1  13
TORSDOF 5
ENDMDL
MODEL 4
REMARK VINA RESULT:      -7.0     15.257     17.650
REMARK  5 active torsions:
REMARK  status: ('A' for Active; 'I' for Inactive)
REMARK    1  A    between atoms: C_3  and  C_10 
REMARK    2  A    between atoms: C_11  and  C_12 
REMARK    3  A    between atoms: C_13  and  C_14 
REMARK    4  A    between atoms: C_15  and  C_16 
REMARK    5  A    between atoms: C_17  and  C_18 
ROOT
HETATM    1  C   UNL     1     -25.709   9.664  -4.655  1.00  0.00     0.009 C 
HETATM    2  C   UNL     1     -25.843   9.540  -5.991  1.00  0.00     0.007 C 
ENDROOT
BRANCH   2   3
HETATM    3  C   UNL     1     -26.608  10.458  -6.845  1.00  0.00    -0.062 C 
HETATM    4  C   UNL     1     -26.543  10.479  -8.198  1.00  0.00     0.007 C 
HETATM    5  C   UNL     1     -27.487  11.460  -6.133  1.00  0.00     0.048 C 
BRANCH   4   6
HETATM    6  C   UNL     1     -25.757   9.567  -9.012  1.00  0.00     0.001 C 
HETATM    7  C   UNL     1     -26.056   9.079 -10.235  1.00  0.00     0.007 C 
BRANCH   7   8
HETATM    8  C   UNL     1     -25.224   8.110 -10.966  1.00  0.00    -0.059 C 
HETATM    9  C   UNL     1     -25.237   6.767 -10.823  1.00  0.00     0.048 C 
HETATM   10  C   UNL     1     -24.208   8.616 -11.975  1.00  0.00     0.048 C 
BRANCH   9  11
HETATM   11  C   UNL     1     -26.039   5.886  -9.941  1.00  0.00     0.259 C 
HETATM   12  O   UNL     1     -25.607   5.521  -8.854  1.00  0.00    -0.302 OA
ENDBRANCH   9  11
ENDBRANCH   7   8
ENDBRANCH   4   6
ENDBRANCH   2   3
BRANCH   1  13
HETATM   13  C   UNL     1     -24.936   8.779  -3.764  1.00  0.00    -0.048 C 
HETATM   14  C   UNL     1     -23.599   8.927  -3.578  1.00  0.00    -0.077 C 
HETATM   15  C   UNL     1     -22.748  10.011  -4.193  1.00  0.00     0.044 C 
HETATM   16  C   UNL     1     -22.786   8.035  -2.655  1.00  0.00     0.034 C 
HETATM   17  C   UNL     1     -23.500   6.789  -2.157  1.00  0.00     0.005 C 
HETATM   18  C   UNL     1     -24.930   7.129  -1.778  1.00  0.00     0.014 C 
HETATM   19  C   UNL     1     -25.741   7.710  -2.973  1.00  0.00    -0.020 C 
HETATM   20  C   UNL     1     -27.035   8.282  -2.348  1.00  0.00     0.020 C 
HETATM   21  C   UNL     1     -26.116   6.550  -3.921  1.00  0.00     0.020 C 
ENDBRANCH   1  13
TORSDOF 5
ENDMDL
MODEL 5
REMARK VINA RESULT:      -6.9      2.077      4.613
REMARK  5 active torsions:
REMARK  status: ('A' for Active; 'I' for Inactive)
REMARK    1  A    between atoms: C_3  and  C_10 
REMARK    2  A    between atoms: C_11  and  C_12 
REMARK    3  A    between atoms: C_13  and  C_14 
REMARK    4  A    between atoms: C_15  and  C_16 
REMARK    5  A    between atoms: C_17  and  C_18 
ROOT
HETATM    1  C   UNL     1     -21.962 -10.211  -0.773  1.00  0.00     0.009 C 
HETATM    2  C   UNL     1     -22.865  -9.235  -0.557  1.00  0.00     0.007 C 
ENDROOT
BRANCH   2   3
HETATM    3  C   UNL     1     -22.547  -7.900  -0.033  1.00  0.00    -0.062 C 
HETATM    4  C   UNL     1     -22.198  -6.839  -0.801  1.00  0.00     0.007 C 
HETATM    5  C   UNL     1     -22.581  -7.744   1.470  1.00  0.00     0.048 C 
BRANCH   4   6
HETATM    6  C   UNL     1     -22.142  -6.839  -2.253  1.00  0.00     0.001 C 
HETATM    7  C   UNL     1     -21.127  -7.249  -3.043  1.00  0.00     0.007 C 
BRANCH   7   8
HETATM    8  C   UNL     1     -21.134  -7.160  -4.513  1.00  0.00    -0.059 C 
HETATM    9  C   UNL     1     -20.325  -7.826  -5.364  1.00  0.00     0.048 C 
HETATM   10  C   UNL     1     -22.110  -6.216  -5.194  1.00  0.00     0.048 C 
BRANCH   9  11
HETATM   11  C   UNL     1     -19.235  -8.799  -5.117  1.00  0.00     0.259 C 
HETATM   12  O   UNL     1     -18.584  -9.265  -6.044  1.00  0.00    -0.302 OA
ENDBRANCH   9  11
ENDBRANCH   7   8
ENDBRANCH   4   6
ENDBRANCH   2   3
BRANCH   1  13
HETATM   13  C   UNL     1     -22.235 -11.556  -1.315  1.00  0.00    -0.048 C 
HETATM   14  C   UNL     1     -22.405 -11.781  -2.644  1.00  0.00    -0.077 C 
HETATM   15  C   UNL     1     -22.293 -10.736  -3.726  1.00  0.00     0.044 C 
HETATM   16  C   UNL     1     -22.673 -13.159  -3.224  1.00  0.00     0.034 C 
HETATM   17  C   UNL     1     -23.015 -14.238  -2.209  1.00  0.00     0.005 C 
HETATM   18  C   UNL     1     -22.109 -14.115  -0.997  1.00  0.00     0.014 C 
HETATM   19  C   UNL     1     -22.236 -12.730  -0.297  1.00  0.00    -0.020 C 
HETATM   20  C   UNL     1     -21.048 -12.663   0.690  1.00  0.00     0.020 C 
HETATM   21  C   UNL     1     -23.554 -12.706   0.507  1.00  0.00     0.020 C 
ENDBRANCH   1  13
TORSDOF 5
ENDMDL
MODEL 6
REMARK VINA RESULT:      -6.9      3.121      4.484
REMARK  5 active torsions:
REMARK  status: ('A' for Active; 'I' for Inactive)
REMARK    1  A    between atoms: C_3  and  C_10 
REMARK    2  A    between atoms: C_11  and  C_12 
REMARK    3  A    between atoms: C_13  and  C_14 
REMARK    4  A    between atoms: C_15  and  C_16 
REMARK    5  A    between atoms: C_17  and  C_18 
ROOT
HETATM    1  C   UNL     1     -21.627 -10.728  -2.795  1.00  0.00     0.009 C 
HETATM    2  C   UNL     1     -22.111 -10.732  -4.053  1.00  0.00     0.007 C 
ENDROOT
BRANCH   2   3
HETATM    3  C   UNL     1     -21.738 -11.702  -5.090  1.00  0.00    -0.062 C 
HETATM    4  C   UNL     1     -20.518 -11.766  -5.677  1.00  0.00     0.007 C 
HETATM    5  C   UNL     1     -22.823 -12.653  -5.540  1.00  0.00     0.048 C 
BRANCH   4   6
HETATM    6  C   UNL     1     -19.380 -10.930  -5.333  1.00  0.00     0.001 C 
HETATM    7  C   UNL     1     -18.415 -11.177  -4.423  1.00  0.00     0.007 C 
BRANCH   7   8
HETATM    8  C   UNL     1     -17.324 -10.242  -4.098  1.00  0.00    -0.059 C 
HETATM    9  C   UNL     1     -16.175 -10.074  -4.788  1.00  0.00     0.048 C 
HETATM   10  C   UNL     1     -17.435  -9.375  -2.857  1.00  0.00     0.048 C 
BRANCH   9  11
HETATM   11  C   UNL     1     -15.666 -10.732  -6.015  1.00  0.00     0.259 C 
HETATM   12  O   UNL     1     -14.823 -11.618  -5.951  1.00  0.00    -0.302 OA
ENDBRANCH   9  11
ENDBRANCH   7   8
ENDBRANCH   4   6
ENDBRANCH   2   3
BRANCH   1  13
HETATM   13  C   UNL     1     -21.988  -9.786  -1.718  1.00  0.00    -0.048 C 
HETATM   14  C   UNL     1     -21.655  -8.470  -1.765  1.00  0.00    -0.077 C 
HETATM   15  C   UNL     1     -20.939  -7.792  -2.907  1.00  0.00     0.044 C 
HETATM   16  C   UNL     1     -22.028  -7.481  -0.674  1.00  0.00     0.034 C 
HETATM   17  C   UNL     1     -22.559  -8.097   0.611  1.00  0.00     0.005 C 
HETATM   18  C   UNL     1     -23.518  -9.227   0.285  1.00  0.00     0.014 C 
HETATM   19  C   UNL     1     -22.847 -10.354  -0.554  1.00  0.00    -0.020 C 
HETATM   20  C   UNL     1     -24.014 -11.238  -1.053  1.00  0.00     0.020 C 
HETATM   21  C   UNL     1     -21.949 -11.193   0.380  1.00  0.00     0.020 C 
ENDBRANCH   1  13
TORSDOF 5
ENDMDL
MODEL 7
REMARK VINA RESULT:      -6.8      4.115      7.256
REMARK  5 active torsions:
REMARK  status: ('A' for Active; 'I' for Inactive)
REMARK    1  A    between atoms: C_3  and  C_10 
REMARK    2  A    between atoms: C_11  and  C_12 
REMARK    3  A    between atoms: C_13  and  C_14 
REMARK    4  A    between atoms: C_15  and  C_16 
REMARK    5  A    between atoms: C_17  and  C_18 
ROOT
HETATM    1  C   UNL     1     -21.926 -10.459  -0.950  1.00  0.00     0.009 C 
HETATM    2  C   UNL     1     -21.207 -11.031   0.036  1.00  0.00     0.007 C 
ENDROOT
BRANCH   2   3
HETATM    3  C   UNL     1     -21.316 -12.438   0.444  1.00  0.00    -0.062 C 
HETATM    4  C   UNL     1     -20.326 -13.354   0.307  1.00  0.00     0.007 C 
HETATM    5  C   UNL     1     -22.648 -12.869   1.013  1.00  0.00     0.048 C 
BRANCH   4   6
HETATM    6  C   UNL     1     -18.995 -13.078  -0.206  1.00  0.00     0.001 C 
HETATM    7  C   UNL     1     -18.013 -12.362   0.381  1.00  0.00     0.007 C 
BRANCH   7   8
HETATM    8  C   UNL     1     -16.707 -12.084  -0.241  1.00  0.00    -0.059 C 
HETATM    9  C   UNL     1     -15.499 -12.485   0.210  1.00  0.00     0.048 C 
HETATM   10  C   UNL     1     -16.650 -11.240  -1.502  1.00  0.00     0.048 C 
BRANCH   9  11
HETATM   11  C   UNL     1     -15.114 -13.282   1.399  1.00  0.00     0.259 C 
HETATM   12  O   UNL     1     -15.516 -12.981   2.516  1.00  0.00    -0.302 OA
ENDBRANCH   9  11
ENDBRANCH   7   8
ENDBRANCH   4   6
ENDBRANCH   2   3
BRANCH   1  13
HETATM   13  C   UNL     1     -21.834  -9.058  -1.405  1.00  0.00    -0.048 C 
HETATM   14  C   UNL     1     -22.395  -8.034  -0.712  1.00  0.00    -0.077 C 
HETATM   15  C   UNL     1     -23.124  -8.167   0.603  1.00  0.00     0.044 C 
HETATM   16  C   UNL     1     -22.302  -6.584  -1.154  1.00  0.00     0.034 C 
HETATM   17  C   UNL     1     -21.778  -6.365  -2.565  1.00  0.00     0.005 C 
HETATM   18  C   UNL     1     -20.606  -7.291  -2.831  1.00  0.00     0.014 C 
HETATM   19  C   UNL     1     -20.987  -8.793  -2.681  1.00  0.00    -0.020 C 
HETATM   20  C   UNL     1     -19.642  -9.555  -2.670  1.00  0.00     0.020 C 
HETATM   21  C   UNL     1     -21.794  -9.222  -3.925  1.00  0.00     0.020 C 
ENDBRANCH   1  13
TORSDOF 5
ENDMDL
MODEL 8
REMARK VINA RESULT:      -6.8      3.694      6.297
REMARK  5 active torsions:
REMARK  status: ('A' for Active; 'I' for Inactive)
REMARK    1  A    between atoms: C_3  and  C_10 
REMARK    2  A    between atoms: C_11  and  C_12 
REMARK    3  A    between atoms: C_13  and  C_14 
REMARK    4  A    between atoms: C_15  and  C_16 
REMARK    5  A    between atoms: C_17  and  C_18 
ROOT
HETATM    1  C   UNL     1     -20.227  -9.448  -2.617  1.00  0.00     0.009 C 
HETATM    2  C   UNL     1     -18.887  -9.335  -2.529  1.00  0.00     0.007 C 
ENDROOT
BRANCH   2   3
HETATM    3  C   UNL     1     -17.938  -9.825  -3.538  1.00  0.00    -0.062 C 
HETATM    4  C   UNL     1     -16.870 -10.614  -3.264  1.00  0.00     0.007 C 
HETATM    5  C   UNL     1     -18.174  -9.367  -4.958  1.00  0.00     0.048 C 
BRANCH   4   6
HETATM    6  C   UNL     1     -16.533 -11.141  -1.953  1.00  0.00     0.001 C 
HETATM    7  C   UNL     1     -16.975 -12.279  -1.379  1.00  0.00     0.007 C 
BRANCH   7   8
HETATM    8  C   UNL     1     -16.622 -12.709  -0.015  1.00  0.00    -0.059 C 
HETATM    9  C   UNL     1     -17.280 -13.616   0.738  1.00  0.00     0.048 C 
HETATM   10  C   UNL     1     -15.424 -12.081   0.675  1.00  0.00     0.048 C 
BRANCH   9  11
HETATM   11  C   UNL     1     -18.493 -14.422   0.461  1.00  0.00     0.259 C 
HETATM   12  O   UNL     1     -19.611 -13.933   0.565  1.00  0.00    -0.302 OA
ENDBRANCH   9  11
ENDBRANCH   7   8
ENDBRANCH   4   6
ENDBRANCH   2   3
BRANCH   1  13
HETATM   13  C   UNL     1     -21.216  -8.954  -1.639  1.00  0.00    -0.048 C 
HETATM   14  C   UNL     1     -21.631  -7.661  -1.618  1.00  0.00    -0.077 C 
HETATM   15  C   UNL     1     -21.197  -6.591  -2.589  1.00  0.00     0.044 C 
HETATM   16  C   UNL     1     -22.657  -7.135  -0.630  1.00  0.00     0.034 C 
HETATM   17  C   UNL     1     -22.996  -8.072   0.519  1.00  0.00     0.005 C 
HETATM   18  C   UNL     1     -23.133  -9.493   0.004  1.00  0.00     0.014 C 
HETATM   19  C   UNL     1     -21.832 -10.009  -0.677  1.00  0.00    -0.020 C 
HETATM   20  C   UNL     1     -22.241 -11.310  -1.404  1.00  0.00     0.020 C 
HETATM   21  C   UNL     1     -20.806 -10.354   0.424  1.00  0.00     0.020 C 
ENDBRANCH   1  13
TORSDOF 5
ENDMDL
MODEL 9
REMARK VINA RESULT:      -6.8     15.664     18.363
REMARK  5 active torsions:
REMARK  status: ('A' for Active; 'I' for Inactive)
REMARK    1  A    between atoms: C_3  and  C_10 
REMARK    2  A    between atoms: C_11  and  C_12 
REMARK    3  A    between atoms: C_13  and  C_14 
REMARK    4  A    between atoms: C_15  and  C_16 
REMARK    5  A    between atoms: C_17  and  C_18 
ROOT
HETATM    1  C   UNL     1     -24.579   7.967   0.130  1.00  0.00     0.009 C 
HETATM    2  C   UNL     1     -24.176   9.178   0.561  1.00  0.00     0.007 C 
ENDROOT
BRANCH   2   3
HETATM    3  C   UNL     1     -23.589   9.446   1.881  1.00  0.00    -0.062 C 
HETATM    4  C   UNL     1     -24.290   9.879   2.957  1.00  0.00     0.007 C 
HETATM    5  C   UNL     1     -22.095   9.253   2.001  1.00  0.00     0.048 C 
BRANCH   4   6
HETATM    6  C   UNL     1     -25.728  10.089   2.990  1.00  0.00     0.001 C 
HETATM    7  C   UNL     1     -26.701   9.156   3.041  1.00  0.00     0.007 C 
BRANCH   7   8
HETATM    8  C   UNL     1     -28.141   9.459   3.014  1.00  0.00    -0.059 C 
HETATM    9  C   UNL     1     -29.126   8.748   3.604  1.00  0.00     0.048 C 
HETATM   10  C   UNL     1     -28.631  10.666   2.233  1.00  0.00     0.048 C 
BRANCH   9  11
HETATM   11  C   UNL     1     -29.084   7.509   4.418  1.00  0.00     0.259 C 
HETATM   12  O   UNL     1     -29.235   6.410   3.899  1.00  0.00    -0.302 OA
ENDBRANCH   9  11
ENDBRANCH   7   8
ENDBRANCH   4   6
ENDBRANCH   2   3
BRANCH   1  13
HETATM   13  C   UNL     1     -25.154   7.651  -1.192  1.00  0.00    -0.048 C 
HETATM   14  C   UNL     1     -26.405   8.040  -1.549  1.00  0.00    -0.077 C 
HETATM   15  C   UNL     1     -27.337   8.866  -0.698  1.00  0.00     0.044 C 
HETATM   16  C   UNL     1     -27.011   7.737  -2.909  1.00  0.00     0.034 C 
HETATM   17  C   UNL     1     -26.244   6.734  -3.756  1.00  0.00     0.005 C 
HETATM   18  C   UNL     1     -24.754   7.008  -3.660  1.00  0.00     0.014 C 
HETATM   19  C   UNL     1     -24.224   6.917  -2.199  1.00  0.00    -0.020 C 
HETATM   20  C   UNL     1     -22.802   7.521  -2.244  1.00  0.00     0.020 C 
HETATM   21  C   UNL     1     -24.121   5.428  -1.806  1.00  0.00     0.020 C 
ENDBRANCH   1  13
TORSDOF 5
ENDMDL
