MODEL 1
REMARK VINA RESULT:      -6.2      0.000      0.000
REMARK  29 active torsions:
REMARK  status: ('A' for Active; 'I' for Inactive)
REMARK    1  A    between atoms: C_2  and  C_3 
REMARK    2  A    between atoms: C_3  and  C_4 
REMARK    3  A    between atoms: C_4  and  C_5 
REMARK    4  A    between atoms: C_5  and  C_6 
REMARK    5  A    between atoms: C_6  and  C_7 
REMARK    6  A    between atoms: C_7  and  C_8 
REMARK    7  A    between atoms: C_8  and  C_9 
REMARK    8  A    between atoms: C_9  and  C_10 
REMARK    9  A    between atoms: C_10  and  C_11 
REMARK   10  A    between atoms: C_11  and  C_12 
REMARK   11  A    between atoms: C_12  and  O_14 
REMARK   12  A    between atoms: O_14  and  C_15 
REMARK   13  A    between atoms: C_15  and  C_16 
REMARK   14  A    between atoms: C_16  and  O_17 
REMARK   15  A    between atoms: O_17  and  C_18 
REMARK   16  A    between atoms: C_18  and  C_19 
REMARK   17  A    between atoms: C_19  and  C_20 
REMARK   18  A    between atoms: C_19  and  O_33 
REMARK   19  A    between atoms: C_21  and  O_29 
REMARK   20  A    between atoms: C_22  and  O_25 
REMARK   21  A    between atoms: O_25  and  C_26 
REMARK   22  A    between atoms: C_26  and  C_27 
REMARK   23  A    between atoms: C_27  and  O_28 
REMARK   24  A    between atoms: O_29  and  C_30 
REMARK   25  A    between atoms: C_30  and  C_31 
REMARK   26  A    between atoms: C_31  and  O_32 
REMARK   27  A    between atoms: O_33  and  C_34 
REMARK   28  A    between atoms: C_34  and  C_35 
REMARK   29  A    between atoms: C_35  and  O_36 
ROOT
HETATM    1  C   UNL     1     -25.799  -6.831 -16.973  1.00  0.00     0.176 C 
ENDROOT
BRANCH   1   2
HETATM    2  C   UNL     1     -25.304  -6.578 -15.531  1.00  0.00     0.202 C 
BRANCH   2   3
HETATM    3  O   UNL     1     -24.761  -5.268 -15.400  1.00  0.00    -0.386 OA
BRANCH   3   4
HETATM    4  C   UNL     1     -24.555  -4.938 -14.030  1.00  0.00     0.194 C 
BRANCH   4   5
HETATM    5  C   UNL     1     -23.791  -3.622 -13.946  1.00  0.00     0.205 C 
BRANCH   5   6
HETATM    6  O   UNL     1     -24.385  -2.736 -12.980  1.00  0.00    -0.319 OA
BRANCH   6   7
HETATM    7  C   UNL     1     -24.116  -3.078 -11.694  1.00  0.00     0.258 C 
HETATM    8  O   UNL     1     -24.956  -3.311 -10.826  1.00  0.00    -0.265 OA
BRANCH   7   9
HETATM    9  C   UNL     1     -22.634  -3.157 -11.449  1.00  0.00     0.111 C 
BRANCH   9  10
HETATM   10  C   UNL     1     -22.274  -4.446 -10.720  1.00  0.00     0.010 C 
BRANCH  10  11
HETATM   11  C   UNL     1     -21.429  -4.178  -9.476  1.00  0.00     0.000 C 
BRANCH  11  12
HETATM   12  C   UNL     1     -22.308  -3.746  -8.310  1.00  0.00     0.000 C 
BRANCH  12  13
HETATM   13  C   UNL     1     -22.107  -4.680  -7.125  1.00  0.00     0.000 C 
BRANCH  13  14
HETATM   14  C   UNL     1     -20.694  -4.541  -6.583  1.00  0.00     0.000 C 
BRANCH  14  15
HETATM   15  C   UNL     1     -20.570  -5.260  -5.249  1.00  0.00     0.000 C 
BRANCH  15  16
HETATM   16  C   UNL     1     -21.319  -6.583  -5.294  1.00  0.00     0.000 C 
BRANCH  16  17
HETATM   17  C   UNL     1     -21.428  -7.174  -3.897  1.00  0.00    -0.000 C 
BRANCH  17  18
HETATM   18  C   UNL     1     -21.781  -6.092  -2.884  1.00  0.00    -0.005 C 
HETATM   19  C   UNL     1     -22.128  -6.712  -1.544  1.00  0.00     0.005 C 
ENDBRANCH  17  18
ENDBRANCH  16  17
ENDBRANCH  15  16
ENDBRANCH  14  15
ENDBRANCH  13  14
ENDBRANCH  12  13
ENDBRANCH  11  12
ENDBRANCH  10  11
ENDBRANCH   9  10
ENDBRANCH   7   9
ENDBRANCH   6   7
ENDBRANCH   5   6
ENDBRANCH   4   5
ENDBRANCH   3   4
ENDBRANCH   2   3
ENDBRANCH   1   2
BRANCH   1  20
HETATM   20  C   UNL     1     -27.181  -6.151 -17.181  1.00  0.00     0.184 C 
HETATM   21  C   UNL     1     -28.390  -7.080 -17.009  1.00  0.00     0.184 C 
HETATM   22  C   UNL     1     -29.417  -6.452 -17.960  1.00  0.00     0.176 C 
HETATM   23  C   UNL     1     -28.519  -5.916 -19.077  1.00  0.00     0.203 C 
HETATM   24  O   UNL     1     -27.243  -5.605 -18.515  1.00  0.00    -0.378 OA
BRANCH  21  25
HETATM   25  O   UNL     1     -28.775  -7.173 -15.629  1.00  0.00    -0.378 OA
BRANCH  25  26
HETATM   26  C   UNL     1     -28.543  -5.971 -14.883  1.00  0.00     0.194 C 
BRANCH  26  27
HETATM   27  C   UNL     1     -29.878  -5.422 -14.374  1.00  0.00     0.190 C 
BRANCH  27  28
HETATM   28  O   UNL     1     -30.010  -5.644 -12.973  1.00  0.00    -0.399 OA
HETATM   29  H   UNL     1     -29.206  -6.135 -12.713  1.00  0.00     0.209 HD
ENDBRANCH  27  28
ENDBRANCH  26  27
ENDBRANCH  25  26
ENDBRANCH  21  25
BRANCH  22  30
HETATM   30  O   UNL     1     -30.175  -5.405 -17.332  1.00  0.00    -0.379 OA
BRANCH  30  31
HETATM   31  C   UNL     1     -31.584  -5.683 -17.352  1.00  0.00     0.194 C 
BRANCH  31  32
HETATM   32  C   UNL     1     -32.361  -4.436 -16.966  1.00  0.00     0.190 C 
BRANCH  32  33
HETATM   33  O   UNL     1     -31.631  -3.263 -17.310  1.00  0.00    -0.399 OA
HETATM   34  H   UNL     1     -32.201  -2.514 -17.050  1.00  0.00     0.209 HD
ENDBRANCH  32  33
ENDBRANCH  31  32
ENDBRANCH  30  31
ENDBRANCH  22  30
ENDBRANCH   1  20
BRANCH   1  35
HETATM   35  O   UNL     1     -24.826  -6.352 -17.940  1.00  0.00    -0.379 OA
BRANCH  35  36
HETATM   36  C   UNL     1     -24.186  -7.429 -18.648  1.00  0.00     0.194 C 
BRANCH  36  37
HETATM   37  C   UNL     1     -24.731  -7.546 -20.065  1.00  0.00     0.190 C 
BRANCH  37  38
HETATM   38  O   UNL     1     -25.191  -6.279 -20.527  1.00  0.00    -0.399 OA
HETATM   39  H   UNL     1     -24.539  -5.627 -20.208  1.00  0.00     0.209 HD
ENDBRANCH  37  38
ENDBRANCH  36  37
ENDBRANCH  35  36
ENDBRANCH   1  35
TORSDOF 29
ENDMDL
MODEL 2
REMARK VINA RESULT:      -6.0      9.017     16.006
REMARK  29 active torsions:
REMARK  status: ('A' for Active; 'I' for Inactive)
REMARK    1  A    between atoms: C_2  and  C_3 
REMARK    2  A    between atoms: C_3  and  C_4 
REMARK    3  A    between atoms: C_4  and  C_5 
REMARK    4  A    between atoms: C_5  and  C_6 
REMARK    5  A    between atoms: C_6  and  C_7 
REMARK    6  A    between atoms: C_7  and  C_8 
REMARK    7  A    between atoms: C_8  and  C_9 
REMARK    8  A    between atoms: C_9  and  C_10 
REMARK    9  A    between atoms: C_10  and  C_11 
REMARK   10  A    between atoms: C_11  and  C_12 
REMARK   11  A    between atoms: C_12  and  O_14 
REMARK   12  A    between atoms: O_14  and  C_15 
REMARK   13  A    between atoms: C_15  and  C_16 
REMARK   14  A    between atoms: C_16  and  O_17 
REMARK   15  A    between atoms: O_17  and  C_18 
REMARK   16  A    between atoms: C_18  and  C_19 
REMARK   17  A    between atoms: C_19  and  C_20 
REMARK   18  A    between atoms: C_19  and  O_33 
REMARK   19  A    between atoms: C_21  and  O_29 
REMARK   20  A    between atoms: C_22  and  O_25 
REMARK   21  A    between atoms: O_25  and  C_26 
REMARK   22  A    between atoms: C_26  and  C_27 
REMARK   23  A    between atoms: C_27  and  O_28 
REMARK   24  A    between atoms: O_29  and  C_30 
REMARK   25  A    between atoms: C_30  and  C_31 
REMARK   26  A    between atoms: C_31  and  O_32 
REMARK   27  A    between atoms: O_33  and  C_34 
REMARK   28  A    between atoms: C_34  and  C_35 
REMARK   29  A    between atoms: C_35  and  O_36 
ROOT
HETATM    1  C   UNL     1     -21.581 -11.245  -0.674  1.00  0.00     0.176 C 
ENDROOT
BRANCH   1   2
HETATM    2  C   UNL     1     -21.990 -12.026  -1.943  1.00  0.00     0.202 C 
BRANCH   2   3
HETATM    3  O   UNL     1     -22.777 -11.215  -2.809  1.00  0.00    -0.386 OA
BRANCH   3   4
HETATM    4  C   UNL     1     -22.310 -11.304  -4.152  1.00  0.00     0.194 C 
BRANCH   4   5
HETATM    5  C   UNL     1     -21.321 -10.173  -4.408  1.00  0.00     0.205 C 
BRANCH   5   6
HETATM    6  O   UNL     1     -21.881  -8.898  -4.042  1.00  0.00    -0.319 OA
BRANCH   6   7
HETATM    7  C   UNL     1     -20.950  -7.926  -3.867  1.00  0.00     0.258 C 
HETATM    8  O   UNL     1     -20.729  -7.329  -2.815  1.00  0.00    -0.265 OA
BRANCH   7   9
HETATM    9  C   UNL     1     -20.187  -7.668  -5.138  1.00  0.00     0.111 C 
BRANCH   9  10
HETATM   10  C   UNL     1     -20.948  -6.702  -6.039  1.00  0.00     0.010 C 
BRANCH  10  11
HETATM   11  C   UNL     1     -20.537  -5.252  -5.792  1.00  0.00     0.000 C 
BRANCH  11  12
HETATM   12  C   UNL     1     -19.637  -4.748  -6.912  1.00  0.00     0.000 C 
BRANCH  12  13
HETATM   13  C   UNL     1     -20.472  -4.104  -8.010  1.00  0.00     0.000 C 
BRANCH  13  14
HETATM   14  C   UNL     1     -20.222  -4.802  -9.336  1.00  0.00     0.000 C 
BRANCH  14  15
HETATM   15  C   UNL     1     -20.368  -3.817 -10.484  1.00  0.00     0.000 C 
BRANCH  15  16
HETATM   16  C   UNL     1     -21.517  -4.234 -11.390  1.00  0.00     0.000 C 
BRANCH  16  17
HETATM   17  C   UNL     1     -22.487  -3.077 -11.575  1.00  0.00    -0.000 C 
BRANCH  17  18
HETATM   18  C   UNL     1     -23.824  -3.388 -10.916  1.00  0.00    -0.005 C 
HETATM   19  C   UNL     1     -23.859  -4.828 -10.440  1.00  0.00     0.005 C 
ENDBRANCH  17  18
ENDBRANCH  16  17
ENDBRANCH  15  16
ENDBRANCH  14  15
ENDBRANCH  13  14
ENDBRANCH  12  13
ENDBRANCH  11  12
ENDBRANCH  10  11
ENDBRANCH   9  10
ENDBRANCH   7   9
ENDBRANCH   6   7
ENDBRANCH   5   6
ENDBRANCH   4   5
ENDBRANCH   3   4
ENDBRANCH   2   3
ENDBRANCH   1   2
BRANCH   1  20
HETATM   20  C   UNL     1     -20.089 -11.525  -0.342  1.00  0.00     0.184 C 
HETATM   21  C   UNL     1     -19.161 -11.612  -1.562  1.00  0.00     0.184 C 
HETATM   22  C   UNL     1     -18.082 -12.589  -1.076  1.00  0.00     0.176 C 
HETATM   23  C   UNL     1     -18.890 -13.517  -0.168  1.00  0.00     0.203 C 
HETATM   24  O   UNL     1     -19.988 -12.777   0.366  1.00  0.00    -0.378 OA
BRANCH  21  25
HETATM   25  O   UNL     1     -18.708 -10.309  -1.957  1.00  0.00    -0.378 OA
BRANCH  25  26
HETATM   26  C   UNL     1     -17.910 -10.311  -3.149  1.00  0.00     0.194 C 
BRANCH  26  27
HETATM   27  C   UNL     1     -16.640  -9.492  -2.913  1.00  0.00     0.190 C 
BRANCH  27  28
HETATM   28  O   UNL     1     -15.638 -10.290  -2.288  1.00  0.00    -0.399 OA
HETATM   29  H   UNL     1     -14.842 -10.186  -2.845  1.00  0.00     0.209 HD
ENDBRANCH  27  28
ENDBRANCH  26  27
ENDBRANCH  25  26
ENDBRANCH  21  25
BRANCH  22  30
HETATM   30  O   UNL     1     -17.026 -11.925  -0.363  1.00  0.00    -0.379 OA
BRANCH  30  31
HETATM   31  C   UNL     1     -16.663 -12.634   0.832  1.00  0.00     0.194 C 
BRANCH  31  32
HETATM   32  C   UNL     1     -15.214 -12.343   1.185  1.00  0.00     0.190 C 
BRANCH  32  33
HETATM   33  O   UNL     1     -14.439 -13.536   1.144  1.00  0.00    -0.399 OA
HETATM   34  H   UNL     1     -14.975 -14.181   0.644  1.00  0.00     0.209 HD
ENDBRANCH  32  33
ENDBRANCH  31  32
ENDBRANCH  30  31
ENDBRANCH  22  30
ENDBRANCH   1  20
BRANCH   1  35
HETATM   35  O   UNL     1     -21.823  -9.823  -0.848  1.00  0.00    -0.379 OA
BRANCH  35  36
HETATM   36  C   UNL     1     -21.596  -9.080   0.364  1.00  0.00     0.194 C 
BRANCH  36  37
HETATM   37  C   UNL     1     -22.382  -7.776   0.355  1.00  0.00     0.190 C 
BRANCH  37  38
HETATM   38  O   UNL     1     -23.751  -8.018   0.667  1.00  0.00    -0.399 OA
HETATM   39  H   UNL     1     -24.266  -7.559  -0.023  1.00  0.00     0.209 HD
ENDBRANCH  37  38
ENDBRANCH  36  37
ENDBRANCH  35  36
ENDBRANCH   1  35
TORSDOF 29
ENDMDL
MODEL 3
REMARK VINA RESULT:      -5.9      8.089     14.235
REMARK  29 active torsions:
REMARK  status: ('A' for Active; 'I' for Inactive)
REMARK    1  A    between atoms: C_2  and  C_3 
REMARK    2  A    between atoms: C_3  and  C_4 
REMARK    3  A    between atoms: C_4  and  C_5 
REMARK    4  A    between atoms: C_5  and  C_6 
REMARK    5  A    between atoms: C_6  and  C_7 
REMARK    6  A    between atoms: C_7  and  C_8 
REMARK    7  A    between atoms: C_8  and  C_9 
REMARK    8  A    between atoms: C_9  and  C_10 
REMARK    9  A    between atoms: C_10  and  C_11 
REMARK   10  A    between atoms: C_11  and  C_12 
REMARK   11  A    between atoms: C_12  and  O_14 
REMARK   12  A    between atoms: O_14  and  C_15 
REMARK   13  A    between atoms: C_15  and  C_16 
REMARK   14  A    between atoms: C_16  and  O_17 
REMARK   15  A    between atoms: O_17  and  C_18 
REMARK   16  A    between atoms: C_18  and  C_19 
REMARK   17  A    between atoms: C_19  and  C_20 
REMARK   18  A    between atoms: C_19  and  O_33 
REMARK   19  A    between atoms: C_21  and  O_29 
REMARK   20  A    between atoms: C_22  and  O_25 
REMARK   21  A    between atoms: O_25  and  C_26 
REMARK   22  A    between atoms: C_26  and  C_27 
REMARK   23  A    between atoms: C_27  and  O_28 
REMARK   24  A    between atoms: O_29  and  C_30 
REMARK   25  A    between atoms: C_30  and  C_31 
REMARK   26  A    between atoms: C_31  and  O_32 
REMARK   27  A    between atoms: O_33  and  C_34 
REMARK   28  A    between atoms: C_34  and  C_35 
REMARK   29  A    between atoms: C_35  and  O_36 
ROOT
HETATM    1  C   UNL     1     -21.034 -10.291  -2.167  1.00  0.00     0.176 C 
ENDROOT
BRANCH   1   2
HETATM    2  C   UNL     1     -21.093  -9.328  -0.959  1.00  0.00     0.202 C 
BRANCH   2   3
HETATM    3  O   UNL     1     -22.285  -8.551  -0.985  1.00  0.00    -0.386 OA
BRANCH   3   4
HETATM    4  C   UNL     1     -22.010  -7.190  -0.667  1.00  0.00     0.194 C 
BRANCH   4   5
HETATM    5  C   UNL     1     -22.330  -6.323  -1.879  1.00  0.00     0.205 C 
BRANCH   5   6
HETATM    6  O   UNL     1     -21.268  -6.374  -2.850  1.00  0.00    -0.319 OA
BRANCH   6   7
HETATM    7  C   UNL     1     -21.706  -6.340  -4.134  1.00  0.00     0.258 C 
HETATM    8  O   UNL     1     -22.884  -6.321  -4.487  1.00  0.00    -0.265 OA
BRANCH   7   9
HETATM    9  C   UNL     1     -20.555  -6.309  -5.103  1.00  0.00     0.111 C 
BRANCH   9  10
HETATM   10  C   UNL     1     -20.326  -4.896  -5.627  1.00  0.00     0.010 C 
BRANCH  10  11
HETATM   11  C   UNL     1     -19.228  -4.854  -6.687  1.00  0.00     0.000 C 
BRANCH  11  12
HETATM   12  C   UNL     1     -19.715  -4.142  -7.941  1.00  0.00     0.000 C 
BRANCH  12  13
HETATM   13  C   UNL     1     -21.159  -3.693  -7.764  1.00  0.00     0.000 C 
BRANCH  13  14
HETATM   14  C   UNL     1     -21.968  -4.030  -9.006  1.00  0.00     0.000 C 
BRANCH  14  15
HETATM   15  C   UNL     1     -21.039  -4.345 -10.167  1.00  0.00     0.000 C 
BRANCH  15  16
HETATM   16  C   UNL     1     -21.256  -3.350 -11.298  1.00  0.00     0.000 C 
BRANCH  16  17
HETATM   17  C   UNL     1     -22.670  -3.476 -11.845  1.00  0.00    -0.000 C 
BRANCH  17  18
HETATM   18  C   UNL     1     -22.731  -2.995 -13.288  1.00  0.00    -0.005 C 
HETATM   19  C   UNL     1     -24.033  -2.262 -13.548  1.00  0.00     0.005 C 
ENDBRANCH  17  18
ENDBRANCH  16  17
ENDBRANCH  15  16
ENDBRANCH  14  15
ENDBRANCH  13  14
ENDBRANCH  12  13
ENDBRANCH  11  12
ENDBRANCH  10  11
ENDBRANCH   9  10
ENDBRANCH   7   9
ENDBRANCH   6   7
ENDBRANCH   5   6
ENDBRANCH   4   5
ENDBRANCH   3   4
ENDBRANCH   2   3
ENDBRANCH   1   2
BRANCH   1  20
HETATM   20  C   UNL     1     -19.909  -9.845  -3.141  1.00  0.00     0.184 C 
HETATM   21  C   UNL     1     -19.197 -10.991  -3.873  1.00  0.00     0.184 C 
HETATM   22  C   UNL     1     -17.791 -10.413  -4.083  1.00  0.00     0.176 C 
HETATM   23  C   UNL     1     -17.616  -9.557  -2.827  1.00  0.00     0.203 C 
HETATM   24  O   UNL     1     -18.907  -9.115  -2.404  1.00  0.00    -0.378 OA
BRANCH  21  25
HETATM   25  O   UNL     1     -19.913 -11.367  -5.059  1.00  0.00    -0.378 OA
BRANCH  25  26
HETATM   26  C   UNL     1     -20.043 -12.785  -5.230  1.00  0.00     0.194 C 
BRANCH  26  27
HETATM   27  C   UNL     1     -21.448 -13.221  -4.808  1.00  0.00     0.190 C 
BRANCH  27  28
HETATM   28  O   UNL     1     -22.377 -12.155  -4.982  1.00  0.00    -0.399 OA
HETATM   29  H   UNL     1     -21.970 -11.383  -4.542  1.00  0.00     0.209 HD
ENDBRANCH  27  28
ENDBRANCH  26  27
ENDBRANCH  25  26
ENDBRANCH  21  25
BRANCH  22  30
HETATM   30  O   UNL     1     -17.695  -9.631  -5.285  1.00  0.00    -0.379 OA
BRANCH  30  31
HETATM   31  C   UNL     1     -16.470  -9.889  -5.990  1.00  0.00     0.194 C 
BRANCH  31  32
HETATM   32  C   UNL     1     -16.206 -11.384  -6.035  1.00  0.00     0.190 C 
BRANCH  32  33
HETATM   33  O   UNL     1     -15.070 -11.669  -6.845  1.00  0.00    -0.399 OA
HETATM   34  H   UNL     1     -15.099 -11.020  -7.575  1.00  0.00     0.209 HD
ENDBRANCH  32  33
ENDBRANCH  31  32
ENDBRANCH  30  31
ENDBRANCH  22  30
ENDBRANCH   1  20
BRANCH   1  35
HETATM   35  O   UNL     1     -20.832 -11.659  -1.721  1.00  0.00    -0.379 OA
BRANCH  35  36
HETATM   36  C   UNL     1     -21.882 -12.107  -0.844  1.00  0.00     0.194 C 
BRANCH  36  37
HETATM   37  C   UNL     1     -23.231 -12.070  -1.549  1.00  0.00     0.190 C 
BRANCH  37  38
HETATM   38  O   UNL     1     -24.121 -11.188  -0.872  1.00  0.00    -0.399 OA
HETATM   39  H   UNL     1     -24.394 -11.657  -0.061  1.00  0.00     0.209 HD
ENDBRANCH  37  38
ENDBRANCH  36  37
ENDBRANCH  35  36
ENDBRANCH   1  35
TORSDOF 29
ENDMDL
MODEL 4
REMARK VINA RESULT:      -5.9      1.596      2.890
REMARK  29 active torsions:
REMARK  status: ('A' for Active; 'I' for Inactive)
REMARK    1  A    between atoms: C_2  and  C_3 
REMARK    2  A    between atoms: C_3  and  C_4 
REMARK    3  A    between atoms: C_4  and  C_5 
REMARK    4  A    between atoms: C_5  and  C_6 
REMARK    5  A    between atoms: C_6  and  C_7 
REMARK    6  A    between atoms: C_7  and  C_8 
REMARK    7  A    between atoms: C_8  and  C_9 
REMARK    8  A    between atoms: C_9  and  C_10 
REMARK    9  A    between atoms: C_10  and  C_11 
REMARK   10  A    between atoms: C_11  and  C_12 
REMARK   11  A    between atoms: C_12  and  O_14 
REMARK   12  A    between atoms: O_14  and  C_15 
REMARK   13  A    between atoms: C_15  and  C_16 
REMARK   14  A    between atoms: C_16  and  O_17 
REMARK   15  A    between atoms: O_17  and  C_18 
REMARK   16  A    between atoms: C_18  and  C_19 
REMARK   17  A    between atoms: C_19  and  C_20 
REMARK   18  A    between atoms: C_19  and  O_33 
REMARK   19  A    between atoms: C_21  and  O_29 
REMARK   20  A    between atoms: C_22  and  O_25 
REMARK   21  A    between atoms: O_25  and  C_26 
REMARK   22  A    between atoms: C_26  and  C_27 
REMARK   23  A    between atoms: C_27  and  O_28 
REMARK   24  A    between atoms: O_29  and  C_30 
REMARK   25  A    between atoms: C_30  and  C_31 
REMARK   26  A    between atoms: C_31  and  O_32 
REMARK   27  A    between atoms: O_33  and  C_34 
REMARK   28  A    between atoms: C_34  and  C_35 
REMARK   29  A    between atoms: C_35  and  O_36 
ROOT
HETATM    1  C   UNL     1     -25.562  -6.607 -15.702  1.00  0.00     0.176 C 
ENDROOT
BRANCH   1   2
HETATM    2  C   UNL     1     -25.500  -5.397 -14.742  1.00  0.00     0.202 C 
BRANCH   2   3
HETATM    3  O   UNL     1     -24.181  -4.865 -14.675  1.00  0.00    -0.386 OA
BRANCH   3   4
HETATM    4  C   UNL     1     -24.202  -3.506 -14.251  1.00  0.00     0.194 C 
BRANCH   4   5
HETATM    5  C   UNL     1     -23.713  -3.428 -12.810  1.00  0.00     0.205 C 
BRANCH   5   6
HETATM    6  O   UNL     1     -24.785  -3.079 -11.914  1.00  0.00    -0.319 OA
BRANCH   6   7
HETATM    7  C   UNL     1     -24.572  -3.477 -10.634  1.00  0.00     0.258 C 
HETATM    8  O   UNL     1     -25.143  -3.026  -9.642  1.00  0.00    -0.265 OA
BRANCH   7   9
HETATM    9  C   UNL     1     -23.545  -4.575 -10.567  1.00  0.00     0.111 C 
BRANCH   9  10
HETATM   10  C   UNL     1     -22.751  -4.494  -9.268  1.00  0.00     0.010 C 
BRANCH  10  11
HETATM   11  C   UNL     1     -21.264  -4.260  -9.525  1.00  0.00     0.000 C 
BRANCH  11  12
HETATM   12  C   UNL     1     -20.424  -4.835  -8.394  1.00  0.00     0.000 C 
BRANCH  12  13
HETATM   13  C   UNL     1     -20.679  -4.066  -7.105  1.00  0.00     0.000 C 
BRANCH  13  14
HETATM   14  C   UNL     1     -20.107  -4.826  -5.920  1.00  0.00     0.000 C 
BRANCH  14  15
HETATM   15  C   UNL     1     -20.178  -6.323  -6.173  1.00  0.00     0.000 C 
BRANCH  15  16
HETATM   16  C   UNL     1     -20.707  -7.039  -4.939  1.00  0.00     0.000 C 
BRANCH  16  17
HETATM   17  C   UNL     1     -21.347  -6.041  -3.986  1.00  0.00    -0.000 C 
BRANCH  17  18
HETATM   18  C   UNL     1     -21.393  -6.605  -2.572  1.00  0.00    -0.005 C 
HETATM   19  C   UNL     1     -21.280  -8.117  -2.599  1.00  0.00     0.005 C 
ENDBRANCH  17  18
ENDBRANCH  16  17
ENDBRANCH  15  16
ENDBRANCH  14  15
ENDBRANCH  13  14
ENDBRANCH  12  13
ENDBRANCH  11  12
ENDBRANCH  10  11
ENDBRANCH   9  10
ENDBRANCH   7   9
ENDBRANCH   6   7
ENDBRANCH   5   6
ENDBRANCH   4   5
ENDBRANCH   3   4
ENDBRANCH   2   3
ENDBRANCH   1   2
BRANCH   1  20
HETATM   20  C   UNL     1     -27.039  -7.043 -15.904  1.00  0.00     0.184 C 
HETATM   21  C   UNL     1     -27.794  -6.279 -17.000  1.00  0.00     0.184 C 
HETATM   22  C   UNL     1     -29.237  -6.316 -16.481  1.00  0.00     0.176 C 
HETATM   23  C   UNL     1     -29.026  -6.260 -14.968  1.00  0.00     0.203 C 
HETATM   24  O   UNL     1     -27.762  -6.854 -14.671  1.00  0.00    -0.378 OA
BRANCH  21  25
HETATM   25  O   UNL     1     -27.566  -6.868 -18.289  1.00  0.00    -0.378 OA
BRANCH  25  26
HETATM   26  C   UNL     1     -27.526  -5.916 -19.360  1.00  0.00     0.194 C 
BRANCH  26  27
HETATM   27  C   UNL     1     -26.826  -6.540 -20.570  1.00  0.00     0.190 C 
BRANCH  27  28
HETATM   28  O   UNL     1     -26.886  -7.962 -20.504  1.00  0.00    -0.399 OA
HETATM   29  H   UNL     1     -26.326  -8.209 -19.743  1.00  0.00     0.209 HD
ENDBRANCH  27  28
ENDBRANCH  26  27
ENDBRANCH  25  26
ENDBRANCH  21  25
BRANCH  22  30
HETATM   30  O   UNL     1     -29.932  -7.508 -16.883  1.00  0.00    -0.379 OA
BRANCH  30  31
HETATM   31  C   UNL     1     -30.958  -7.227 -17.848  1.00  0.00     0.194 C 
BRANCH  31  32
HETATM   32  C   UNL     1     -30.656  -7.951 -19.149  1.00  0.00     0.190 C 
BRANCH  32  33
HETATM   33  O   UNL     1     -29.521  -8.798 -19.000  1.00  0.00    -0.399 OA
HETATM   34  H   UNL     1     -29.521  -9.075 -18.063  1.00  0.00     0.209 HD
ENDBRANCH  32  33
ENDBRANCH  31  32
ENDBRANCH  30  31
ENDBRANCH  22  30
ENDBRANCH   1  20
BRANCH   1  35
HETATM   35  O   UNL     1     -24.930  -6.286 -16.970  1.00  0.00    -0.379 OA
BRANCH  35  36
HETATM   36  C   UNL     1     -24.334  -7.441 -17.590  1.00  0.00     0.194 C 
BRANCH  36  37
HETATM   37  C   UNL     1     -23.631  -7.060 -18.885  1.00  0.00     0.190 C 
BRANCH  37  38
HETATM   38  O   UNL     1     -23.956  -7.985 -19.918  1.00  0.00    -0.399 OA
HETATM   39  H   UNL     1     -23.185  -8.578 -19.997  1.00  0.00     0.209 HD
ENDBRANCH  37  38
ENDBRANCH  36  37
ENDBRANCH  35  36
ENDBRANCH   1  35
TORSDOF 29
ENDMDL
MODEL 5
REMARK VINA RESULT:      -5.9      8.102     15.268
REMARK  29 active torsions:
REMARK  status: ('A' for Active; 'I' for Inactive)
REMARK    1  A    between atoms: C_2  and  C_3 
REMARK    2  A    between atoms: C_3  and  C_4 
REMARK    3  A    between atoms: C_4  and  C_5 
REMARK    4  A    between atoms: C_5  and  C_6 
REMARK    5  A    between atoms: C_6  and  C_7 
REMARK    6  A    between atoms: C_7  and  C_8 
REMARK    7  A    between atoms: C_8  and  C_9 
REMARK    8  A    between atoms: C_9  and  C_10 
REMARK    9  A    between atoms: C_10  and  C_11 
REMARK   10  A    between atoms: C_11  and  C_12 
REMARK   11  A    between atoms: C_12  and  O_14 
REMARK   12  A    between atoms: O_14  and  C_15 
REMARK   13  A    between atoms: C_15  and  C_16 
REMARK   14  A    between atoms: C_16  and  O_17 
REMARK   15  A    between atoms: O_17  and  C_18 
REMARK   16  A    between atoms: C_18  and  C_19 
REMARK   17  A    between atoms: C_19  and  C_20 
REMARK   18  A    between atoms: C_19  and  O_33 
REMARK   19  A    between atoms: C_21  and  O_29 
REMARK   20  A    between atoms: C_22  and  O_25 
REMARK   21  A    between atoms: O_25  and  C_26 
REMARK   22  A    between atoms: C_26  and  C_27 
REMARK   23  A    between atoms: C_27  and  O_28 
REMARK   24  A    between atoms: O_29  and  C_30 
REMARK   25  A    between atoms: C_30  and  C_31 
REMARK   26  A    between atoms: C_31  and  O_32 
REMARK   27  A    between atoms: O_33  and  C_34 
REMARK   28  A    between atoms: C_34  and  C_35 
REMARK   29  A    between atoms: C_35  and  O_36 
ROOT
HETATM    1  C   UNL     1     -21.725 -10.120  -1.657  1.00  0.00     0.176 C 
ENDROOT
BRANCH   1   2
HETATM    2  C   UNL     1     -21.733  -9.631  -3.124  1.00  0.00     0.202 C 
BRANCH   2   3
HETATM    3  O   UNL     1     -21.248 -10.641  -4.002  1.00  0.00    -0.386 OA
BRANCH   3   4
HETATM    4  C   UNL     1     -21.031 -10.116  -5.308  1.00  0.00     0.194 C 
BRANCH   4   5
HETATM    5  C   UNL     1     -20.495  -8.695  -5.188  1.00  0.00     0.205 C 
BRANCH   5   6
HETATM    6  O   UNL     1     -21.291  -7.771  -5.954  1.00  0.00    -0.319 OA
BRANCH   6   7
HETATM    7  C   UNL     1     -21.649  -6.661  -5.261  1.00  0.00     0.258 C 
HETATM    8  O   UNL     1     -22.803  -6.291  -5.051  1.00  0.00    -0.265 OA
BRANCH   7   9
HETATM    9  C   UNL     1     -20.441  -5.922  -4.753  1.00  0.00     0.111 C 
BRANCH   9  10
HETATM   10  C   UNL     1     -20.227  -4.631  -5.535  1.00  0.00     0.010 C 
BRANCH  10  11
HETATM   11  C   UNL     1     -19.578  -4.891  -6.893  1.00  0.00     0.000 C 
BRANCH  11  12
HETATM   12  C   UNL     1     -20.239  -4.050  -7.976  1.00  0.00     0.000 C 
BRANCH  12  13
HETATM   13  C   UNL     1     -21.638  -3.636  -7.541  1.00  0.00     0.000 C 
BRANCH  13  14
HETATM   14  C   UNL     1     -22.676  -4.531  -8.196  1.00  0.00     0.000 C 
BRANCH  14  15
HETATM   15  C   UNL     1     -23.510  -3.732  -9.185  1.00  0.00     0.000 C 
BRANCH  15  16
HETATM   16  C   UNL     1     -23.552  -4.442 -10.530  1.00  0.00     0.000 C 
BRANCH  16  17
HETATM   17  C   UNL     1     -22.169  -4.449 -11.165  1.00  0.00    -0.000 C 
BRANCH  17  18
HETATM   18  C   UNL     1     -21.874  -3.106 -11.820  1.00  0.00    -0.005 C 
HETATM   19  C   UNL     1     -23.046  -2.664 -12.676  1.00  0.00     0.005 C 
ENDBRANCH  17  18
ENDBRANCH  16  17
ENDBRANCH  15  16
ENDBRANCH  14  15
ENDBRANCH  13  14
ENDBRANCH  12  13
ENDBRANCH  11  12
ENDBRANCH  10  11
ENDBRANCH   9  10
ENDBRANCH   7   9
ENDBRANCH   6   7
ENDBRANCH   5   6
ENDBRANCH   4   5
ENDBRANCH   3   4
ENDBRANCH   2   3
ENDBRANCH   1   2
BRANCH   1  20
HETATM   20  C   UNL     1     -20.795 -11.357  -1.521  1.00  0.00     0.184 C 
HETATM   21  C   UNL     1     -21.313 -12.454  -0.582  1.00  0.00     0.184 C 
HETATM   22  C   UNL     1     -20.010 -13.068  -0.054  1.00  0.00     0.176 C 
HETATM   23  C   UNL     1     -19.087 -11.849  -0.011  1.00  0.00     0.203 C 
HETATM   24  O   UNL     1     -19.511 -10.931  -1.019  1.00  0.00    -0.378 OA
BRANCH  21  25
HETATM   25  O   UNL     1     -22.202 -13.345  -1.272  1.00  0.00    -0.378 OA
BRANCH  25  26
HETATM   26  C   UNL     1     -23.041 -14.114  -0.401  1.00  0.00     0.194 C 
BRANCH  26  27
HETATM   27  C   UNL     1     -23.124 -15.554  -0.914  1.00  0.00     0.190 C 
BRANCH  27  28
HETATM   28  O   UNL     1     -23.028 -16.477   0.168  1.00  0.00    -0.399 OA
HETATM   29  H   UNL     1     -23.690 -16.177   0.822  1.00  0.00     0.209 HD
ENDBRANCH  27  28
ENDBRANCH  26  27
ENDBRANCH  25  26
ENDBRANCH  21  25
BRANCH  22  30
HETATM   30  O   UNL     1     -19.501 -14.097  -0.919  1.00  0.00    -0.379 OA
BRANCH  30  31
HETATM   31  C   UNL     1     -19.232 -15.311  -0.200  1.00  0.00     0.194 C 
BRANCH  31  32
HETATM   32  C   UNL     1     -19.845 -15.235   1.188  1.00  0.00     0.190 C 
BRANCH  32  33
HETATM   33  O   UNL     1     -18.961 -15.787   2.158  1.00  0.00    -0.399 OA
HETATM   34  H   UNL     1     -18.385 -16.405   1.666  1.00  0.00     0.209 HD
ENDBRANCH  32  33
ENDBRANCH  31  32
ENDBRANCH  30  31
ENDBRANCH  22  30
ENDBRANCH   1  20
BRANCH   1  35
HETATM   35  O   UNL     1     -21.312  -9.051  -0.764  1.00  0.00    -0.379 OA
BRANCH  35  36
HETATM   36  C   UNL     1     -21.218  -7.783  -1.438  1.00  0.00     0.194 C 
BRANCH  36  37
HETATM   37  C   UNL     1     -22.315  -6.836  -0.969  1.00  0.00     0.190 C 
BRANCH  37  38
HETATM   38  O   UNL     1     -22.625  -5.890  -1.988  1.00  0.00    -0.399 OA
HETATM   39  H   UNL     1     -22.641  -5.020  -1.547  1.00  0.00     0.209 HD
ENDBRANCH  37  38
ENDBRANCH  36  37
ENDBRANCH  35  36
ENDBRANCH   1  35
TORSDOF 29
ENDMDL
MODEL 6
REMARK VINA RESULT:      -5.8      8.167     14.648
REMARK  29 active torsions:
REMARK  status: ('A' for Active; 'I' for Inactive)
REMARK    1  A    between atoms: C_2  and  C_3 
REMARK    2  A    between atoms: C_3  and  C_4 
REMARK    3  A    between atoms: C_4  and  C_5 
REMARK    4  A    between atoms: C_5  and  C_6 
REMARK    5  A    between atoms: C_6  and  C_7 
REMARK    6  A    between atoms: C_7  and  C_8 
REMARK    7  A    between atoms: C_8  and  C_9 
REMARK    8  A    between atoms: C_9  and  C_10 
REMARK    9  A    between atoms: C_10  and  C_11 
REMARK   10  A    between atoms: C_11  and  C_12 
REMARK   11  A    between atoms: C_12  and  O_14 
REMARK   12  A    between atoms: O_14  and  C_15 
REMARK   13  A    between atoms: C_15  and  C_16 
REMARK   14  A    between atoms: C_16  and  O_17 
REMARK   15  A    between atoms: O_17  and  C_18 
REMARK   16  A    between atoms: C_18  and  C_19 
REMARK   17  A    between atoms: C_19  and  C_20 
REMARK   18  A    between atoms: C_19  and  O_33 
REMARK   19  A    between atoms: C_21  and  O_29 
REMARK   20  A    between atoms: C_22  and  O_25 
REMARK   21  A    between atoms: O_25  and  C_26 
REMARK   22  A    between atoms: C_26  and  C_27 
REMARK   23  A    between atoms: C_27  and  O_28 
REMARK   24  A    between atoms: O_29  and  C_30 
REMARK   25  A    between atoms: C_30  and  C_31 
REMARK   26  A    between atoms: C_31  and  O_32 
REMARK   27  A    between atoms: O_33  and  C_34 
REMARK   28  A    between atoms: C_34  and  C_35 
REMARK   29  A    between atoms: C_35  and  O_36 
ROOT
HETATM    1  C   UNL     1     -21.541 -10.054  -2.488  1.00  0.00     0.176 C 
ENDROOT
BRANCH   1   2
HETATM    2  C   UNL     1     -21.150  -8.772  -1.718  1.00  0.00     0.202 C 
BRANCH   2   3
HETATM    3  O   UNL     1     -22.269  -8.233  -1.023  1.00  0.00    -0.386 OA
BRANCH   3   4
HETATM    4  C   UNL     1     -22.256  -6.810  -1.066  1.00  0.00     0.194 C 
BRANCH   4   5
HETATM    5  C   UNL     1     -21.510  -6.359  -2.317  1.00  0.00     0.205 C 
BRANCH   5   6
HETATM    6  O   UNL     1     -22.424  -6.047  -3.385  1.00  0.00    -0.319 OA
BRANCH   6   7
HETATM    7  C   UNL     1     -22.002  -6.474  -4.602  1.00  0.00     0.258 C 
HETATM    8  O   UNL     1     -22.299  -7.547  -5.125  1.00  0.00    -0.265 OA
BRANCH   7   9
HETATM    9  C   UNL     1     -21.118  -5.451  -5.263  1.00  0.00     0.111 C 
BRANCH   9  10
HETATM   10  C   UNL     1     -19.991  -6.127  -6.034  1.00  0.00     0.010 C 
BRANCH  10  11
HETATM   11  C   UNL     1     -19.971  -5.702  -7.501  1.00  0.00     0.000 C 
BRANCH  11  12
HETATM   12  C   UNL     1     -20.579  -4.316  -7.668  1.00  0.00     0.000 C 
BRANCH  12  13
HETATM   13  C   UNL     1     -21.648  -4.337  -8.752  1.00  0.00     0.000 C 
BRANCH  13  14
HETATM   14  C   UNL     1     -23.020  -4.111  -8.139  1.00  0.00     0.000 C 
BRANCH  14  15
HETATM   15  C   UNL     1     -24.026  -3.754  -9.221  1.00  0.00     0.000 C 
BRANCH  15  16
HETATM   16  C   UNL     1     -23.654  -4.435 -10.529  1.00  0.00     0.000 C 
BRANCH  16  17
HETATM   17  C   UNL     1     -24.114  -3.594 -11.709  1.00  0.00    -0.000 C 
BRANCH  17  18
HETATM   18  C   UNL     1     -23.038  -2.594 -12.107  1.00  0.00    -0.005 C 
HETATM   19  C   UNL     1     -21.662  -3.223 -11.999  1.00  0.00     0.005 C 
ENDBRANCH  17  18
ENDBRANCH  16  17
ENDBRANCH  15  16
ENDBRANCH  14  15
ENDBRANCH  13  14
ENDBRANCH  12  13
ENDBRANCH  11  12
ENDBRANCH  10  11
ENDBRANCH   9  10
ENDBRANCH   7   9
ENDBRANCH   6   7
ENDBRANCH   5   6
ENDBRANCH   4   5
ENDBRANCH   3   4
ENDBRANCH   2   3
ENDBRANCH   1   2
BRANCH   1  20
HETATM   20  C   UNL     1     -20.354 -10.519  -3.375  1.00  0.00     0.184 C 
HETATM   21  C   UNL     1     -18.988 -10.522  -2.676  1.00  0.00     0.184 C 
HETATM   22  C   UNL     1     -18.029 -10.245  -3.841  1.00  0.00     0.176 C 
HETATM   23  C   UNL     1     -18.874  -9.327  -4.726  1.00  0.00     0.203 C 
HETATM   24  O   UNL     1     -20.250  -9.648  -4.520  1.00  0.00    -0.378 OA
BRANCH  21  25
HETATM   25  O   UNL     1     -18.780 -11.749  -1.960  1.00  0.00    -0.378 OA
BRANCH  25  26
HETATM   26  C   UNL     1     -17.643 -11.722  -1.086  1.00  0.00     0.194 C 
BRANCH  26  27
HETATM   27  C   UNL     1     -18.114 -11.836   0.366  1.00  0.00     0.190 C 
BRANCH  27  28
HETATM   28  O   UNL     1     -17.017 -12.130   1.226  1.00  0.00    -0.399 OA
HETATM   29  H   UNL     1     -16.390 -12.643   0.679  1.00  0.00     0.209 HD
ENDBRANCH  27  28
ENDBRANCH  26  27
ENDBRANCH  25  26
ENDBRANCH  21  25
BRANCH  22  30
HETATM   30  O   UNL     1     -17.642 -11.446  -4.528  1.00  0.00    -0.379 OA
BRANCH  30  31
HETATM   31  C   UNL     1     -16.221 -11.510  -4.728  1.00  0.00     0.194 C 
BRANCH  31  32
HETATM   32  C   UNL     1     -15.635 -10.109  -4.716  1.00  0.00     0.190 C 
BRANCH  32  33
HETATM   33  O   UNL     1     -15.599  -9.569  -6.033  1.00  0.00    -0.399 OA
HETATM   34  H   UNL     1     -15.207  -8.678  -5.940  1.00  0.00     0.209 HD
ENDBRANCH  32  33
ENDBRANCH  31  32
ENDBRANCH  30  31
ENDBRANCH  22  30
ENDBRANCH   1  20
BRANCH   1  35
HETATM   35  O   UNL     1     -21.949 -11.101  -1.565  1.00  0.00    -0.379 OA
BRANCH  35  36
HETATM   36  C   UNL     1     -23.195 -11.710  -1.949  1.00  0.00     0.194 C 
BRANCH  36  37
HETATM   37  C   UNL     1     -24.228 -11.579  -0.837  1.00  0.00     0.190 C 
BRANCH  37  38
HETATM   38  O   UNL     1     -24.006 -10.386  -0.091  1.00  0.00    -0.399 OA
HETATM   39  H   UNL     1     -23.037 -10.296  -0.016  1.00  0.00     0.209 HD
ENDBRANCH  37  38
ENDBRANCH  36  37
ENDBRANCH  35  36
ENDBRANCH   1  35
TORSDOF 29
ENDMDL
MODEL 7
REMARK VINA RESULT:      -5.8      8.354     15.233
REMARK  29 active torsions:
REMARK  status: ('A' for Active; 'I' for Inactive)
REMARK    1  A    between atoms: C_2  and  C_3 
REMARK    2  A    between atoms: C_3  and  C_4 
REMARK    3  A    between atoms: C_4  and  C_5 
REMARK    4  A    between atoms: C_5  and  C_6 
REMARK    5  A    between atoms: C_6  and  C_7 
REMARK    6  A    between atoms: C_7  and  C_8 
REMARK    7  A    between atoms: C_8  and  C_9 
REMARK    8  A    between atoms: C_9  and  C_10 
REMARK    9  A    between atoms: C_10  and  C_11 
REMARK   10  A    between atoms: C_11  and  C_12 
REMARK   11  A    between atoms: C_12  and  O_14 
REMARK   12  A    between atoms: O_14  and  C_15 
REMARK   13  A    between atoms: C_15  and  C_16 
REMARK   14  A    between atoms: C_16  and  O_17 
REMARK   15  A    between atoms: O_17  and  C_18 
REMARK   16  A    between atoms: C_18  and  C_19 
REMARK   17  A    between atoms: C_19  and  C_20 
REMARK   18  A    between atoms: C_19  and  O_33 
REMARK   19  A    between atoms: C_21  and  O_29 
REMARK   20  A    between atoms: C_22  and  O_25 
REMARK   21  A    between atoms: O_25  and  C_26 
REMARK   22  A    between atoms: C_26  and  C_27 
REMARK   23  A    between atoms: C_27  and  O_28 
REMARK   24  A    between atoms: O_29  and  C_30 
REMARK   25  A    between atoms: C_30  and  C_31 
REMARK   26  A    between atoms: C_31  and  O_32 
REMARK   27  A    between atoms: O_33  and  C_34 
REMARK   28  A    between atoms: C_34  and  C_35 
REMARK   29  A    between atoms: C_35  and  O_36 
ROOT
HETATM    1  C   UNL     1     -21.116  -9.877  -0.826  1.00  0.00     0.176 C 
ENDROOT
BRANCH   1   2
HETATM    2  C   UNL     1     -21.169  -8.332  -0.858  1.00  0.00     0.202 C 
BRANCH   2   3
HETATM    3  O   UNL     1     -21.960  -7.871  -1.947  1.00  0.00    -0.386 OA
BRANCH   3   4
HETATM    4  C   UNL     1     -22.000  -6.448  -1.980  1.00  0.00     0.194 C 
BRANCH   4   5
HETATM    5  C   UNL     1     -21.400  -5.965  -3.295  1.00  0.00     0.205 C 
BRANCH   5   6
HETATM    6  O   UNL     1     -21.112  -7.070  -4.173  1.00  0.00    -0.319 OA
BRANCH   6   7
HETATM    7  C   UNL     1     -20.615  -6.690  -5.377  1.00  0.00     0.258 C 
HETATM    8  O   UNL     1     -20.115  -7.441  -6.213  1.00  0.00    -0.265 OA
BRANCH   7   9
HETATM    9  C   UNL     1     -20.765  -5.207  -5.586  1.00  0.00     0.111 C 
BRANCH   9  10
HETATM   10  C   UNL     1     -21.868  -4.911  -6.594  1.00  0.00     0.010 C 
BRANCH  10  11
HETATM   11  C   UNL     1     -21.432  -3.873  -7.626  1.00  0.00     0.000 C 
BRANCH  11  12
HETATM   12  C   UNL     1     -20.058  -4.215  -8.186  1.00  0.00     0.000 C 
BRANCH  12  13
HETATM   13  C   UNL     1     -20.190  -4.785  -9.592  1.00  0.00     0.000 C 
BRANCH  13  14
HETATM   14  C   UNL     1     -20.497  -3.673 -10.581  1.00  0.00     0.000 C 
BRANCH  14  15
HETATM   15  C   UNL     1     -21.467  -4.167 -11.642  1.00  0.00     0.000 C 
BRANCH  15  16
HETATM   16  C   UNL     1     -22.194  -2.992 -12.277  1.00  0.00     0.000 C 
BRANCH  16  17
HETATM   17  C   UNL     1     -23.638  -2.947 -11.799  1.00  0.00    -0.000 C 
BRANCH  17  18
HETATM   18  C   UNL     1     -23.886  -4.014 -10.742  1.00  0.00    -0.005 C 
HETATM   19  C   UNL     1     -24.636  -3.429  -9.561  1.00  0.00     0.005 C 
ENDBRANCH  17  18
ENDBRANCH  16  17
ENDBRANCH  15  16
ENDBRANCH  14  15
ENDBRANCH  13  14
ENDBRANCH  12  13
ENDBRANCH  11  12
ENDBRANCH  10  11
ENDBRANCH   9  10
ENDBRANCH   7   9
ENDBRANCH   6   7
ENDBRANCH   5   6
ENDBRANCH   4   5
ENDBRANCH   3   4
ENDBRANCH   2   3
ENDBRANCH   1   2
BRANCH   1  20
HETATM   20  C   UNL     1     -19.647 -10.356  -0.990  1.00  0.00     0.184 C 
HETATM   21  C   UNL     1     -19.373 -11.178  -2.257  1.00  0.00     0.184 C 
HETATM   22  C   UNL     1     -18.231 -12.097  -1.803  1.00  0.00     0.176 C 
HETATM   23  C   UNL     1     -18.579 -12.321  -0.331  1.00  0.00     0.203 C 
HETATM   24  O   UNL     1     -19.287 -11.175   0.142  1.00  0.00    -0.378 OA
BRANCH  21  25
HETATM   25  O   UNL     1     -19.095 -10.322  -3.375  1.00  0.00    -0.378 OA
BRANCH  25  26
HETATM   26  C   UNL     1     -19.912 -10.588  -4.523  1.00  0.00     0.194 C 
BRANCH  26  27
HETATM   27  C   UNL     1     -19.017 -10.899  -5.724  1.00  0.00     0.190 C 
BRANCH  27  28
HETATM   28  O   UNL     1     -18.375  -9.715  -6.190  1.00  0.00    -0.399 OA
HETATM   29  H   UNL     1     -17.759 -10.013  -6.888  1.00  0.00     0.209 HD
ENDBRANCH  27  28
ENDBRANCH  26  27
ENDBRANCH  25  26
ENDBRANCH  21  25
BRANCH  22  30
HETATM   30  O   UNL     1     -16.941 -11.484  -1.963  1.00  0.00    -0.379 OA
BRANCH  30  31
HETATM   31  C   UNL     1     -16.009 -11.937  -0.968  1.00  0.00     0.194 C 
BRANCH  31  32
HETATM   32  C   UNL     1     -15.225 -13.125  -1.500  1.00  0.00     0.190 C 
BRANCH  32  33
HETATM   33  O   UNL     1     -15.214 -14.185  -0.550  1.00  0.00    -0.399 OA
HETATM   34  H   UNL     1     -16.153 -14.382  -0.366  1.00  0.00     0.209 HD
ENDBRANCH  32  33
ENDBRANCH  31  32
ENDBRANCH  30  31
ENDBRANCH  22  30
ENDBRANCH   1  20
BRANCH   1  35
HETATM   35  O   UNL     1     -21.700 -10.384   0.404  1.00  0.00    -0.379 OA
BRANCH  35  36
HETATM   36  C   UNL     1     -22.571 -11.507   0.171  1.00  0.00     0.194 C 
BRANCH  36  37
HETATM   37  C   UNL     1     -23.341 -11.335  -1.132  1.00  0.00     0.190 C 
BRANCH  37  38
HETATM   38  O   UNL     1     -24.556 -12.077  -1.092  1.00  0.00    -0.399 OA
HETATM   39  H   UNL     1     -25.259 -11.426  -0.904  1.00  0.00     0.209 HD
ENDBRANCH  37  38
ENDBRANCH  36  37
ENDBRANCH  35  36
ENDBRANCH   1  35
TORSDOF 29
ENDMDL
MODEL 8
REMARK VINA RESULT:      -5.8      9.218     15.820
REMARK  29 active torsions:
REMARK  status: ('A' for Active; 'I' for Inactive)
REMARK    1  A    between atoms: C_2  and  C_3 
REMARK    2  A    between atoms: C_3  and  C_4 
REMARK    3  A    between atoms: C_4  and  C_5 
REMARK    4  A    between atoms: C_5  and  C_6 
REMARK    5  A    between atoms: C_6  and  C_7 
REMARK    6  A    between atoms: C_7  and  C_8 
REMARK    7  A    between atoms: C_8  and  C_9 
REMARK    8  A    between atoms: C_9  and  C_10 
REMARK    9  A    between atoms: C_10  and  C_11 
REMARK   10  A    between atoms: C_11  and  C_12 
REMARK   11  A    between atoms: C_12  and  O_14 
REMARK   12  A    between atoms: O_14  and  C_15 
REMARK   13  A    between atoms: C_15  and  C_16 
REMARK   14  A    between atoms: C_16  and  O_17 
REMARK   15  A    between atoms: O_17  and  C_18 
REMARK   16  A    between atoms: C_18  and  C_19 
REMARK   17  A    between atoms: C_19  and  C_20 
REMARK   18  A    between atoms: C_19  and  O_33 
REMARK   19  A    between atoms: C_21  and  O_29 
REMARK   20  A    between atoms: C_22  and  O_25 
REMARK   21  A    between atoms: O_25  and  C_26 
REMARK   22  A    between atoms: C_26  and  C_27 
REMARK   23  A    between atoms: C_27  and  O_28 
REMARK   24  A    between atoms: O_29  and  C_30 
REMARK   25  A    between atoms: C_30  and  C_31 
REMARK   26  A    between atoms: C_31  and  O_32 
REMARK   27  A    between atoms: O_33  and  C_34 
REMARK   28  A    between atoms: C_34  and  C_35 
REMARK   29  A    between atoms: C_35  and  O_36 
ROOT
HETATM    1  C   UNL     1     -18.736 -12.604  -1.299  1.00  0.00     0.176 C 
ENDROOT
BRANCH   1   2
HETATM    2  C   UNL     1     -19.280 -11.624  -0.235  1.00  0.00     0.202 C 
BRANCH   2   3
HETATM    3  O   UNL     1     -20.430 -10.936  -0.715  1.00  0.00    -0.386 OA
BRANCH   3   4
HETATM    4  C   UNL     1     -21.275 -10.548   0.364  1.00  0.00     0.194 C 
BRANCH   4   5
HETATM    5  C   UNL     1     -22.502  -9.839  -0.199  1.00  0.00     0.205 C 
BRANCH   5   6
HETATM    6  O   UNL     1     -22.181  -9.120  -1.404  1.00  0.00    -0.319 OA
BRANCH   6   7
HETATM    7  C   UNL     1     -22.065  -7.780  -1.221  1.00  0.00     0.258 C 
HETATM    8  O   UNL     1     -22.768  -7.097  -0.478  1.00  0.00    -0.265 OA
BRANCH   7   9
HETATM    9  C   UNL     1     -20.937  -7.213  -2.039  1.00  0.00     0.111 C 
BRANCH   9  10
HETATM   10  C   UNL     1     -21.466  -6.257  -3.101  1.00  0.00     0.010 C 
BRANCH  10  11
HETATM   11  C   UNL     1     -21.766  -6.976  -4.415  1.00  0.00     0.000 C 
BRANCH  11  12
HETATM   12  C   UNL     1     -21.836  -5.985  -5.568  1.00  0.00     0.000 C 
BRANCH  12  13
HETATM   13  C   UNL     1     -20.585  -5.118  -5.595  1.00  0.00     0.000 C 
BRANCH  13  14
HETATM   14  C   UNL     1     -20.506  -4.354  -6.906  1.00  0.00     0.000 C 
BRANCH  14  15
HETATM   15  C   UNL     1     -21.904  -4.078  -7.438  1.00  0.00     0.000 C 
BRANCH  15  16
HETATM   16  C   UNL     1     -21.878  -3.977  -8.955  1.00  0.00     0.000 C 
BRANCH  16  17
HETATM   17  C   UNL     1     -20.515  -4.392  -9.486  1.00  0.00    -0.000 C 
BRANCH  17  18
HETATM   18  C   UNL     1     -20.384  -4.038 -10.962  1.00  0.00    -0.005 C 
HETATM   19  C   UNL     1     -21.718  -3.578 -11.518  1.00  0.00     0.005 C 
ENDBRANCH  17  18
ENDBRANCH  16  17
ENDBRANCH  15  16
ENDBRANCH  14  15
ENDBRANCH  13  14
ENDBRANCH  12  13
ENDBRANCH  11  12
ENDBRANCH  10  11
ENDBRANCH   9  10
ENDBRANCH   7   9
ENDBRANCH   6   7
ENDBRANCH   5   6
ENDBRANCH   4   5
ENDBRANCH   3   4
ENDBRANCH   2   3
ENDBRANCH   1   2
BRANCH   1  20
HETATM   20  C   UNL     1     -17.925 -11.822  -2.369  1.00  0.00     0.184 C 
HETATM   21  C   UNL     1     -17.137 -12.700  -3.351  1.00  0.00     0.184 C 
HETATM   22  C   UNL     1     -15.944 -11.800  -3.700  1.00  0.00     0.176 C 
HETATM   23  C   UNL     1     -15.725 -11.051  -2.384  1.00  0.00     0.203 C 
HETATM   24  O   UNL     1     -16.979 -10.958  -1.708  1.00  0.00    -0.378 OA
BRANCH  21  25
HETATM   25  O   UNL     1     -17.964 -13.114  -4.449  1.00  0.00    -0.378 OA
BRANCH  25  26
HETATM   26  C   UNL     1     -19.155 -12.331  -4.603  1.00  0.00     0.194 C 
BRANCH  26  27
HETATM   27  C   UNL     1     -19.215 -11.771  -6.025  1.00  0.00     0.190 C 
BRANCH  27  28
HETATM   28  O   UNL     1     -20.011 -10.589  -6.065  1.00  0.00    -0.399 OA
HETATM   29  H   UNL     1     -20.336 -10.527  -6.984  1.00  0.00     0.209 HD
ENDBRANCH  27  28
ENDBRANCH  26  27
ENDBRANCH  25  26
ENDBRANCH  21  25
BRANCH  22  30
HETATM   30  O   UNL     1     -16.234 -10.905  -4.786  1.00  0.00    -0.379 OA
BRANCH  30  31
HETATM   31  C   UNL     1     -15.393 -11.159  -5.923  1.00  0.00     0.194 C 
BRANCH  31  32
HETATM   32  C   UNL     1     -14.661 -12.477  -5.738  1.00  0.00     0.190 C 
BRANCH  32  33
HETATM   33  O   UNL     1     -13.252 -12.283  -5.811  1.00  0.00    -0.399 OA
HETATM   34  H   UNL     1     -12.869 -12.896  -5.153  1.00  0.00     0.209 HD
ENDBRANCH  32  33
ENDBRANCH  31  32
ENDBRANCH  30  31
ENDBRANCH  22  30
ENDBRANCH   1  20
BRANCH   1  35
HETATM   35  O   UNL     1     -17.926 -13.637  -0.677  1.00  0.00    -0.379 OA
BRANCH  35  36
HETATM   36  C   UNL     1     -17.646 -13.352   0.706  1.00  0.00     0.194 C 
BRANCH  36  37
HETATM   37  C   UNL     1     -16.164 -13.068   0.912  1.00  0.00     0.190 C 
BRANCH  37  38
HETATM   38  O   UNL     1     -15.952 -11.679   1.148  1.00  0.00    -0.399 OA
HETATM   39  H   UNL     1     -16.793 -11.239   0.921  1.00  0.00     0.209 HD
ENDBRANCH  37  38
ENDBRANCH  36  37
ENDBRANCH  35  36
ENDBRANCH   1  35
TORSDOF 29
ENDMDL
MODEL 9
REMARK VINA RESULT:      -5.7      9.268     13.790
REMARK  29 active torsions:
REMARK  status: ('A' for Active; 'I' for Inactive)
REMARK    1  A    between atoms: C_2  and  C_3 
REMARK    2  A    between atoms: C_3  and  C_4 
REMARK    3  A    between atoms: C_4  and  C_5 
REMARK    4  A    between atoms: C_5  and  C_6 
REMARK    5  A    between atoms: C_6  and  C_7 
REMARK    6  A    between atoms: C_7  and  C_8 
REMARK    7  A    between atoms: C_8  and  C_9 
REMARK    8  A    between atoms: C_9  and  C_10 
REMARK    9  A    between atoms: C_10  and  C_11 
REMARK   10  A    between atoms: C_11  and  C_12 
REMARK   11  A    between atoms: C_12  and  O_14 
REMARK   12  A    between atoms: O_14  and  C_15 
REMARK   13  A    between atoms: C_15  and  C_16 
REMARK   14  A    between atoms: C_16  and  O_17 
REMARK   15  A    between atoms: O_17  and  C_18 
REMARK   16  A    between atoms: C_18  and  C_19 
REMARK   17  A    between atoms: C_19  and  C_20 
REMARK   18  A    between atoms: C_19  and  O_33 
REMARK   19  A    between atoms: C_21  and  O_29 
REMARK   20  A    between atoms: C_22  and  O_25 
REMARK   21  A    between atoms: O_25  and  C_26 
REMARK   22  A    between atoms: C_26  and  C_27 
REMARK   23  A    between atoms: C_27  and  O_28 
REMARK   24  A    between atoms: O_29  and  C_30 
REMARK   25  A    between atoms: C_30  and  C_31 
REMARK   26  A    between atoms: C_31  and  O_32 
REMARK   27  A    between atoms: O_33  and  C_34 
REMARK   28  A    between atoms: C_34  and  C_35 
REMARK   29  A    between atoms: C_35  and  O_36 
ROOT
HETATM    1  C   UNL     1     -21.358 -11.572  -3.732  1.00  0.00     0.176 C 
ENDROOT
BRANCH   1   2
HETATM    2  C   UNL     1     -20.528 -11.523  -2.429  1.00  0.00     0.202 C 
BRANCH   2   3
HETATM    3  O   UNL     1     -20.671 -10.263  -1.781  1.00  0.00    -0.386 OA
BRANCH   3   4
HETATM    4  C   UNL     1     -20.579 -10.406  -0.367  1.00  0.00     0.194 C 
BRANCH   4   5
HETATM    5  C   UNL     1     -21.350  -9.272   0.297  1.00  0.00     0.205 C 
BRANCH   5   6
HETATM    6  O   UNL     1     -21.151  -8.028  -0.400  1.00  0.00    -0.319 OA
BRANCH   6   7
HETATM    7  C   UNL     1     -22.298  -7.334  -0.611  1.00  0.00     0.258 C 
HETATM    8  O   UNL     1     -23.319  -7.419   0.070  1.00  0.00    -0.265 OA
BRANCH   7   9
HETATM    9  C   UNL     1     -22.169  -6.413  -1.794  1.00  0.00     0.111 C 
BRANCH   9  10
HETATM   10  C   UNL     1     -21.506  -7.126  -2.966  1.00  0.00     0.010 C 
BRANCH  10  11
HETATM   11  C   UNL     1     -21.886  -6.496  -4.304  1.00  0.00     0.000 C 
BRANCH  11  12
HETATM   12  C   UNL     1     -20.781  -5.573  -4.798  1.00  0.00     0.000 C 
BRANCH  12  13
HETATM   13  C   UNL     1     -20.545  -5.785  -6.288  1.00  0.00     0.000 C 
BRANCH  13  14
HETATM   14  C   UNL     1     -19.610  -4.716  -6.826  1.00  0.00     0.000 C 
BRANCH  14  15
HETATM   15  C   UNL     1     -20.241  -4.021  -8.023  1.00  0.00     0.000 C 
BRANCH  15  16
HETATM   16  C   UNL     1     -21.757  -4.028  -7.894  1.00  0.00     0.000 C 
BRANCH  16  17
HETATM   17  C   UNL     1     -22.400  -3.738  -9.242  1.00  0.00    -0.000 C 
BRANCH  17  18
HETATM   18  C   UNL     1     -21.566  -4.327 -10.372  1.00  0.00    -0.005 C 
HETATM   19  C   UNL     1     -21.461  -3.344 -11.523  1.00  0.00     0.005 C 
ENDBRANCH  17  18
ENDBRANCH  16  17
ENDBRANCH  15  16
ENDBRANCH  14  15
ENDBRANCH  13  14
ENDBRANCH  12  13
ENDBRANCH  11  12
ENDBRANCH  10  11
ENDBRANCH   9  10
ENDBRANCH   7   9
ENDBRANCH   6   7
ENDBRANCH   5   6
ENDBRANCH   4   5
ENDBRANCH   3   4
ENDBRANCH   2   3
ENDBRANCH   1   2
BRANCH   1  20
HETATM   20  C   UNL     1     -20.583 -12.366  -4.819  1.00  0.00     0.184 C 
HETATM   21  C   UNL     1     -19.572 -11.539  -5.625  1.00  0.00     0.184 C 
HETATM   22  C   UNL     1     -19.574 -12.260  -6.980  1.00  0.00     0.176 C 
HETATM   23  C   UNL     1     -21.026 -12.730  -7.080  1.00  0.00     0.203 C 
HETATM   24  O   UNL     1     -21.524 -12.929  -5.756  1.00  0.00    -0.378 OA
BRANCH  21  25
HETATM   25  O   UNL     1     -18.309 -11.466  -4.946  1.00  0.00    -0.378 OA
BRANCH  25  26
HETATM   26  C   UNL     1     -17.890 -10.127  -4.649  1.00  0.00     0.194 C 
BRANCH  26  27
HETATM   27  C   UNL     1     -18.891  -9.136  -5.247  1.00  0.00     0.190 C 
BRANCH  27  28
HETATM   28  O   UNL     1     -18.396  -8.602  -6.472  1.00  0.00    -0.399 OA
HETATM   29  H   UNL     1     -18.925  -9.031  -7.173  1.00  0.00     0.209 HD
ENDBRANCH  27  28
ENDBRANCH  26  27
ENDBRANCH  25  26
ENDBRANCH  21  25
BRANCH  22  30
HETATM   30  O   UNL     1     -18.649 -13.360  -7.014  1.00  0.00    -0.379 OA
BRANCH  30  31
HETATM   31  C   UNL     1     -19.049 -14.361  -7.963  1.00  0.00     0.194 C 
BRANCH  31  32
HETATM   32  C   UNL     1     -18.108 -14.346  -9.156  1.00  0.00     0.190 C 
BRANCH  32  33
HETATM   33  O   UNL     1     -18.379 -15.443 -10.023  1.00  0.00    -0.399 OA
HETATM   34  H   UNL     1     -18.209 -16.245  -9.492  1.00  0.00     0.209 HD
ENDBRANCH  32  33
ENDBRANCH  31  32
ENDBRANCH  30  31
ENDBRANCH  22  30
ENDBRANCH   1  20
BRANCH   1  35
HETATM   35  O   UNL     1     -22.665 -12.158  -3.485  1.00  0.00    -0.379 OA
BRANCH  35  36
HETATM   36  C   UNL     1     -22.686 -12.957  -2.288  1.00  0.00     0.194 C 
BRANCH  36  37
HETATM   37  C   UNL     1     -23.735 -12.443  -1.311  1.00  0.00     0.190 C 
BRANCH  37  38
HETATM   38  O   UNL     1     -23.849 -11.026  -1.404  1.00  0.00    -0.399 OA
HETATM   39  H   UNL     1     -24.664 -10.857  -1.913  1.00  0.00     0.209 HD
ENDBRANCH  37  38
ENDBRANCH  36  37
ENDBRANCH  35  36
ENDBRANCH   1  35
TORSDOF 29
ENDMDL
