MODEL 1
REMARK VINA RESULT:      -7.5      0.000      0.000
REMARK  12 active torsions:
REMARK  status: ('A' for Active; 'I' for Inactive)
REMARK    1  A    between atoms: C_2  and  C_3 
REMARK    2  A    between atoms: C_3  and  C_4 
REMARK    3  A    between atoms: C_4  and  C_5 
REMARK    4  A    between atoms: C_5  and  C_6 
REMARK    5  A    between atoms: C_6  and  C_7 
REMARK    6  A    between atoms: C_7  and  C_8 
REMARK    7  A    between atoms: C_8  and  C_9 
REMARK    8  A    between atoms: C_9  and  C_10 
REMARK    9  A    between atoms: C_10  and  C_11 
REMARK   10  A    between atoms: C_11  and  C_12 
REMARK       I    between atoms: C_12  and  N_14 
REMARK   11  A    between atoms: C_18  and  C_19 
REMARK   12  A    between atoms: C_19  and  O_21 
ROOT
HETATM    1  C   UNL     1     -20.453  -4.902  -7.303  1.00  0.00     0.103 C 
ENDROOT
BRANCH   1   2
HETATM    2  C   UNL     1     -20.654  -5.040  -5.796  1.00  0.00     0.009 C 
BRANCH   2   3
HETATM    3  C   UNL     1     -20.891  -6.500  -5.403  1.00  0.00     0.000 C 
BRANCH   3   4
HETATM    4  C   UNL     1     -22.163  -6.641  -4.568  1.00  0.00     0.000 C 
BRANCH   4   5
HETATM    5  C   UNL     1     -21.875  -6.478  -3.077  1.00  0.00     0.000 C 
BRANCH   5   6
HETATM    6  C   UNL     1     -20.910  -7.557  -2.587  1.00  0.00     0.000 C 
BRANCH   6   7
HETATM    7  C   UNL     1     -21.109  -7.844  -1.101  1.00  0.00     0.000 C 
BRANCH   7   8
HETATM    8  C   UNL     1     -22.385  -7.185  -0.578  1.00  0.00     0.000 C 
BRANCH   8   9
HETATM    9  C   UNL     1     -23.139  -8.123   0.364  1.00  0.00    -0.000 C 
BRANCH   9  10
HETATM   10  C   UNL     1     -22.631  -9.558   0.242  1.00  0.00    -0.005 C 
HETATM   11  C   UNL     1     -23.716 -10.481  -0.290  1.00  0.00     0.005 C 
ENDBRANCH   9  10
ENDBRANCH   8   9
ENDBRANCH   7   8
ENDBRANCH   6   7
ENDBRANCH   5   6
ENDBRANCH   4   5
ENDBRANCH   3   4
ENDBRANCH   2   3
ENDBRANCH   1   2
BRANCH   1  12
HETATM   12  C   UNL     1     -21.717  -4.457  -8.018  1.00  0.00     0.220 C 
HETATM   13  O   UNL     1     -22.796  -4.306  -7.436  1.00  0.00    -0.273 OA
HETATM   14  N   UNL     1     -21.627  -4.194  -9.362  1.00  0.00    -0.338 N 
HETATM   15  C   UNL     1     -20.459  -4.343 -10.210  1.00  0.00     0.127 C 
HETATM   16  C   UNL     1     -22.744  -3.612 -10.121  1.00  0.00     0.185 C 
HETATM   17  C   UNL     1     -20.600  -3.208 -11.203  1.00  0.00     0.022 C 
HETATM   18  C   UNL     1     -22.105  -3.103 -11.425  1.00  0.00     0.038 C 
BRANCH  16  19
HETATM   19  C   UNL     1     -23.869  -4.632 -10.387  1.00  0.00     0.163 C 
HETATM   20  O   UNL     1     -23.852  -5.478 -11.272  1.00  0.00    -0.648 OA
BRANCH  19  21
HETATM   21  O   UNL     1     -24.947  -4.476  -9.583  1.00  0.00    -0.775 OA
HETATM   22  H   UNL     1     -25.105  -3.529  -9.338  1.00  0.00     0.167 HD
ENDBRANCH  19  21
ENDBRANCH  16  19
ENDBRANCH   1  12
TORSDOF 12
ENDMDL
MODEL 2
REMARK VINA RESULT:      -7.3      1.670      2.316
REMARK  12 active torsions:
REMARK  status: ('A' for Active; 'I' for Inactive)
REMARK    1  A    between atoms: C_2  and  C_3 
REMARK    2  A    between atoms: C_3  and  C_4 
REMARK    3  A    between atoms: C_4  and  C_5 
REMARK    4  A    between atoms: C_5  and  C_6 
REMARK    5  A    between atoms: C_6  and  C_7 
REMARK    6  A    between atoms: C_7  and  C_8 
REMARK    7  A    between atoms: C_8  and  C_9 
REMARK    8  A    between atoms: C_9  and  C_10 
REMARK    9  A    between atoms: C_10  and  C_11 
REMARK   10  A    between atoms: C_11  and  C_12 
REMARK       I    between atoms: C_12  and  N_14 
REMARK   11  A    between atoms: C_18  and  C_19 
REMARK   12  A    between atoms: C_19  and  O_21 
ROOT
HETATM    1  C   UNL     1     -21.254  -4.062  -6.831  1.00  0.00     0.103 C 
ENDROOT
BRANCH   1   2
HETATM    2  C   UNL     1     -20.228  -4.786  -5.963  1.00  0.00     0.009 C 
BRANCH   2   3
HETATM    3  C   UNL     1     -20.587  -6.264  -5.801  1.00  0.00     0.000 C 
BRANCH   3   4
HETATM    4  C   UNL     1     -21.894  -6.427  -5.027  1.00  0.00     0.000 C 
BRANCH   4   5
HETATM    5  C   UNL     1     -21.656  -7.049  -3.651  1.00  0.00     0.000 C 
BRANCH   5   6
HETATM    6  C   UNL     1     -21.854  -6.016  -2.543  1.00  0.00     0.000 C 
BRANCH   6   7
HETATM    7  C   UNL     1     -22.251  -6.683  -1.229  1.00  0.00     0.000 C 
BRANCH   7   8
HETATM    8  C   UNL     1     -21.729  -8.117  -1.159  1.00  0.00     0.000 C 
BRANCH   8   9
HETATM    9  C   UNL     1     -22.464  -8.915  -0.083  1.00  0.00    -0.000 C 
BRANCH   9  10
HETATM   10  C   UNL     1     -22.692 -10.361  -0.522  1.00  0.00    -0.005 C 
HETATM   11  C   UNL     1     -24.097 -10.825  -0.172  1.00  0.00     0.005 C 
ENDBRANCH   9  10
ENDBRANCH   8   9
ENDBRANCH   7   8
ENDBRANCH   6   7
ENDBRANCH   5   6
ENDBRANCH   4   5
ENDBRANCH   3   4
ENDBRANCH   2   3
ENDBRANCH   1   2
BRANCH   1  12
HETATM   12  C   UNL     1     -21.015  -4.281  -8.315  1.00  0.00     0.220 C 
HETATM   13  O   UNL     1     -19.903  -4.554  -8.779  1.00  0.00    -0.273 OA
HETATM   14  N   UNL     1     -22.098  -4.189  -9.152  1.00  0.00    -0.338 N 
HETATM   15  C   UNL     1     -23.463  -3.850  -8.790  1.00  0.00     0.127 C 
HETATM   16  C   UNL     1     -22.014  -4.531 -10.580  1.00  0.00     0.185 C 
HETATM   17  C   UNL     1     -24.295  -4.687  -9.741  1.00  0.00     0.022 C 
HETATM   18  C   UNL     1     -23.476  -4.699 -11.027  1.00  0.00     0.038 C 
BRANCH  16  19
HETATM   19  C   UNL     1     -21.277  -3.453 -11.400  1.00  0.00     0.163 C 
HETATM   20  O   UNL     1     -21.780  -2.409 -11.796  1.00  0.00    -0.648 OA
BRANCH  19  21
HETATM   21  O   UNL     1     -20.005  -3.786 -11.719  1.00  0.00    -0.775 OA
HETATM   22  H   UNL     1     -19.953  -4.608 -12.270  1.00  0.00     0.167 HD
ENDBRANCH  19  21
ENDBRANCH  16  19
ENDBRANCH   1  12
TORSDOF 12
ENDMDL
MODEL 3
REMARK VINA RESULT:      -6.7      1.654      3.114
REMARK  12 active torsions:
REMARK  status: ('A' for Active; 'I' for Inactive)
REMARK    1  A    between atoms: C_2  and  C_3 
REMARK    2  A    between atoms: C_3  and  C_4 
REMARK    3  A    between atoms: C_4  and  C_5 
REMARK    4  A    between atoms: C_5  and  C_6 
REMARK    5  A    between atoms: C_6  and  C_7 
REMARK    6  A    between atoms: C_7  and  C_8 
REMARK    7  A    between atoms: C_8  and  C_9 
REMARK    8  A    between atoms: C_9  and  C_10 
REMARK    9  A    between atoms: C_10  and  C_11 
REMARK   10  A    between atoms: C_11  and  C_12 
REMARK       I    between atoms: C_12  and  N_14 
REMARK   11  A    between atoms: C_18  and  C_19 
REMARK   12  A    between atoms: C_19  and  O_21 
ROOT
HETATM    1  C   UNL     1     -21.832  -7.117  -5.035  1.00  0.00     0.103 C 
ENDROOT
BRANCH   1   2
HETATM    2  C   UNL     1     -21.557  -6.741  -3.582  1.00  0.00     0.009 C 
BRANCH   2   3
HETATM    3  C   UNL     1     -20.998  -7.932  -2.800  1.00  0.00     0.000 C 
BRANCH   3   4
HETATM    4  C   UNL     1     -20.931  -7.621  -1.306  1.00  0.00     0.000 C 
BRANCH   4   5
HETATM    5  C   UNL     1     -22.325  -7.421  -0.713  1.00  0.00     0.000 C 
BRANCH   5   6
HETATM    6  C   UNL     1     -22.569  -8.386   0.446  1.00  0.00     0.000 C 
BRANCH   6   7
HETATM    7  C   UNL     1     -22.512  -9.838  -0.022  1.00  0.00     0.000 C 
BRANCH   7   8
HETATM    8  C   UNL     1     -23.904 -10.469  -0.038  1.00  0.00     0.000 C 
BRANCH   8   9
HETATM    9  C   UNL     1     -23.819 -11.987   0.117  1.00  0.00    -0.000 C 
BRANCH   9  10
HETATM   10  C   UNL     1     -22.369 -12.454   0.228  1.00  0.00    -0.005 C 
HETATM   11  C   UNL     1     -22.148 -13.264   1.495  1.00  0.00     0.005 C 
ENDBRANCH   9  10
ENDBRANCH   8   9
ENDBRANCH   7   8
ENDBRANCH   6   7
ENDBRANCH   5   6
ENDBRANCH   4   5
ENDBRANCH   3   4
ENDBRANCH   2   3
ENDBRANCH   1   2
BRANCH   1  12
HETATM   12  C   UNL     1     -22.322  -5.937  -5.856  1.00  0.00     0.220 C 
HETATM   13  O   UNL     1     -23.446  -5.444  -5.714  1.00  0.00    -0.273 OA
HETATM   14  N   UNL     1     -21.455  -5.397  -6.772  1.00  0.00    -0.338 N 
HETATM   15  C   UNL     1     -20.117  -5.860  -7.094  1.00  0.00     0.127 C 
HETATM   16  C   UNL     1     -21.765  -4.164  -7.510  1.00  0.00     0.185 C 
HETATM   17  C   UNL     1     -19.368  -4.579  -7.399  1.00  0.00     0.022 C 
HETATM   18  C   UNL     1     -20.412  -3.698  -8.076  1.00  0.00     0.038 C 
BRANCH  16  19
HETATM   19  C   UNL     1     -22.810  -4.390  -8.621  1.00  0.00     0.163 C 
HETATM   20  O   UNL     1     -22.556  -4.782  -9.752  1.00  0.00    -0.648 OA
BRANCH  19  21
HETATM   21  O   UNL     1     -24.070  -4.048  -8.261  1.00  0.00    -0.775 OA
HETATM   22  H   UNL     1     -24.754  -4.650  -8.650  1.00  0.00     0.167 HD
ENDBRANCH  19  21
ENDBRANCH  16  19
ENDBRANCH   1  12
TORSDOF 12
ENDMDL
MODEL 4
REMARK VINA RESULT:      -6.4      4.207      9.657
REMARK  12 active torsions:
REMARK  status: ('A' for Active; 'I' for Inactive)
REMARK    1  A    between atoms: C_2  and  C_3 
REMARK    2  A    between atoms: C_3  and  C_4 
REMARK    3  A    between atoms: C_4  and  C_5 
REMARK    4  A    between atoms: C_5  and  C_6 
REMARK    5  A    between atoms: C_6  and  C_7 
REMARK    6  A    between atoms: C_7  and  C_8 
REMARK    7  A    between atoms: C_8  and  C_9 
REMARK    8  A    between atoms: C_9  and  C_10 
REMARK    9  A    between atoms: C_10  and  C_11 
REMARK   10  A    between atoms: C_11  and  C_12 
REMARK       I    between atoms: C_12  and  N_14 
REMARK   11  A    between atoms: C_18  and  C_19 
REMARK   12  A    between atoms: C_19  and  O_21 
ROOT
HETATM    1  C   UNL     1     -21.069  -9.185  -3.912  1.00  0.00     0.103 C 
ENDROOT
BRANCH   1   2
HETATM    2  C   UNL     1     -20.375  -8.028  -4.625  1.00  0.00     0.009 C 
BRANCH   2   3
HETATM    3  C   UNL     1     -21.282  -7.416  -5.695  1.00  0.00     0.000 C 
BRANCH   3   4
HETATM    4  C   UNL     1     -21.688  -5.993  -5.318  1.00  0.00     0.000 C 
BRANCH   4   5
HETATM    5  C   UNL     1     -20.478  -5.061  -5.265  1.00  0.00     0.000 C 
BRANCH   5   6
HETATM    6  C   UNL     1     -20.063  -4.625  -6.669  1.00  0.00     0.000 C 
BRANCH   6   7
HETATM    7  C   UNL     1     -21.108  -3.706  -7.295  1.00  0.00     0.000 C 
BRANCH   7   8
HETATM    8  C   UNL     1     -21.518  -4.199  -8.683  1.00  0.00     0.000 C 
BRANCH   8   9
HETATM    9  C   UNL     1     -20.386  -3.999  -9.690  1.00  0.00    -0.000 C 
BRANCH   9  10
HETATM   10  C   UNL     1     -20.886  -4.161 -11.125  1.00  0.00    -0.005 C 
HETATM   11  C   UNL     1     -21.727  -2.968 -11.551  1.00  0.00     0.005 C 
ENDBRANCH   9  10
ENDBRANCH   8   9
ENDBRANCH   7   8
ENDBRANCH   6   7
ENDBRANCH   5   6
ENDBRANCH   4   5
ENDBRANCH   3   4
ENDBRANCH   2   3
ENDBRANCH   1   2
BRANCH   1  12
HETATM   12  C   UNL     1     -21.360  -8.876  -2.454  1.00  0.00     0.220 C 
HETATM   13  O   UNL     1     -21.005  -7.824  -1.910  1.00  0.00    -0.273 OA
HETATM   14  N   UNL     1     -22.066  -9.808  -1.736  1.00  0.00    -0.338 N 
HETATM   15  C   UNL     1     -22.535 -11.102  -2.197  1.00  0.00     0.127 C 
HETATM   16  C   UNL     1     -22.535  -9.549  -0.366  1.00  0.00     0.185 C 
HETATM   17  C   UNL     1     -23.849 -11.280  -1.465  1.00  0.00     0.022 C 
HETATM   18  C   UNL     1     -23.602 -10.627  -0.110  1.00  0.00     0.038 C 
BRANCH  16  19
HETATM   19  C   UNL     1     -21.393  -9.607   0.667  1.00  0.00     0.163 C 
HETATM   20  O   UNL     1     -20.828 -10.631   1.029  1.00  0.00    -0.648 OA
BRANCH  19  21
HETATM   21  O   UNL     1     -21.092  -8.406   1.215  1.00  0.00    -0.775 OA
HETATM   22  H   UNL     1     -20.291  -8.443   1.798  1.00  0.00     0.167 HD
ENDBRANCH  19  21
ENDBRANCH  16  19
ENDBRANCH   1  12
TORSDOF 12
ENDMDL
MODEL 5
REMARK VINA RESULT:      -6.2      5.243      6.927
REMARK  12 active torsions:
REMARK  status: ('A' for Active; 'I' for Inactive)
REMARK    1  A    between atoms: C_2  and  C_3 
REMARK    2  A    between atoms: C_3  and  C_4 
REMARK    3  A    between atoms: C_4  and  C_5 
REMARK    4  A    between atoms: C_5  and  C_6 
REMARK    5  A    between atoms: C_6  and  C_7 
REMARK    6  A    between atoms: C_7  and  C_8 
REMARK    7  A    between atoms: C_8  and  C_9 
REMARK    8  A    between atoms: C_9  and  C_10 
REMARK    9  A    between atoms: C_10  and  C_11 
REMARK   10  A    between atoms: C_11  and  C_12 
REMARK       I    between atoms: C_12  and  N_14 
REMARK   11  A    between atoms: C_18  and  C_19 
REMARK   12  A    between atoms: C_19  and  O_21 
ROOT
HETATM    1  C   UNL     1     -20.169  -8.427  -3.544  1.00  0.00     0.103 C 
ENDROOT
BRANCH   1   2
HETATM    2  C   UNL     1     -21.064  -7.279  -4.003  1.00  0.00     0.009 C 
BRANCH   2   3
HETATM    3  C   UNL     1     -21.751  -6.606  -2.812  1.00  0.00     0.000 C 
BRANCH   3   4
HETATM    4  C   UNL     1     -21.480  -7.374  -1.520  1.00  0.00     0.000 C 
BRANCH   4   5
HETATM    5  C   UNL     1     -22.537  -7.073  -0.458  1.00  0.00     0.000 C 
BRANCH   5   6
HETATM    6  C   UNL     1     -22.617  -8.204   0.567  1.00  0.00     0.000 C 
BRANCH   6   7
HETATM    7  C   UNL     1     -21.513  -9.234   0.343  1.00  0.00     0.000 C 
BRANCH   7   8
HETATM    8  C   UNL     1     -22.088 -10.646   0.244  1.00  0.00     0.000 C 
BRANCH   8   9
HETATM    9  C   UNL     1     -23.520 -10.619  -0.289  1.00  0.00    -0.000 C 
BRANCH   9  10
HETATM   10  C   UNL     1     -23.663 -11.482  -1.542  1.00  0.00    -0.005 C 
HETATM   11  C   UNL     1     -22.883 -10.892  -2.706  1.00  0.00     0.005 C 
ENDBRANCH   9  10
ENDBRANCH   8   9
ENDBRANCH   7   8
ENDBRANCH   6   7
ENDBRANCH   5   6
ENDBRANCH   4   5
ENDBRANCH   3   4
ENDBRANCH   2   3
ENDBRANCH   1   2
BRANCH   1  12
HETATM   12  C   UNL     1     -19.359  -9.020  -4.684  1.00  0.00     0.220 C 
HETATM   13  O   UNL     1     -19.746  -9.007  -5.857  1.00  0.00    -0.273 OA
HETATM   14  N   UNL     1     -18.138  -9.568  -4.377  1.00  0.00    -0.338 N 
HETATM   15  C   UNL     1     -17.539  -9.697  -3.061  1.00  0.00     0.127 C 
HETATM   16  C   UNL     1     -17.206 -10.031  -5.415  1.00  0.00     0.185 C 
HETATM   17  C   UNL     1     -16.060  -9.510  -3.331  1.00  0.00     0.022 C 
HETATM   18  C   UNL     1     -15.853 -10.160  -4.694  1.00  0.00     0.038 C 
BRANCH  16  19
HETATM   19  C   UNL     1     -17.651 -11.361  -6.055  1.00  0.00     0.163 C 
HETATM   20  O   UNL     1     -17.304 -12.471  -5.674  1.00  0.00    -0.648 OA
BRANCH  19  21
HETATM   21  O   UNL     1     -18.432 -11.205  -7.150  1.00  0.00    -0.775 OA
HETATM   22  H   UNL     1     -17.933 -10.839  -7.924  1.00  0.00     0.167 HD
ENDBRANCH  19  21
ENDBRANCH  16  19
ENDBRANCH   1  12
TORSDOF 12
ENDMDL
MODEL 6
REMARK VINA RESULT:      -6.1      4.691      9.392
REMARK  12 active torsions:
REMARK  status: ('A' for Active; 'I' for Inactive)
REMARK    1  A    between atoms: C_2  and  C_3 
REMARK    2  A    between atoms: C_3  and  C_4 
REMARK    3  A    between atoms: C_4  and  C_5 
REMARK    4  A    between atoms: C_5  and  C_6 
REMARK    5  A    between atoms: C_6  and  C_7 
REMARK    6  A    between atoms: C_7  and  C_8 
REMARK    7  A    between atoms: C_8  and  C_9 
REMARK    8  A    between atoms: C_9  and  C_10 
REMARK    9  A    between atoms: C_10  and  C_11 
REMARK   10  A    between atoms: C_11  and  C_12 
REMARK       I    between atoms: C_12  and  N_14 
REMARK   11  A    between atoms: C_18  and  C_19 
REMARK   12  A    between atoms: C_19  and  O_21 
ROOT
HETATM    1  C   UNL     1     -19.753  -8.888  -3.260  1.00  0.00     0.103 C 
ENDROOT
BRANCH   1   2
HETATM    2  C   UNL     1     -20.447  -9.457  -4.495  1.00  0.00     0.009 C 
BRANCH   2   3
HETATM    3  C   UNL     1     -21.115  -8.350  -5.312  1.00  0.00     0.000 C 
BRANCH   3   4
HETATM    4  C   UNL     1     -20.441  -7.002  -5.059  1.00  0.00     0.000 C 
BRANCH   4   5
HETATM    5  C   UNL     1     -21.108  -5.884  -5.860  1.00  0.00     0.000 C 
BRANCH   5   6
HETATM    6  C   UNL     1     -20.220  -4.641  -5.906  1.00  0.00     0.000 C 
BRANCH   6   7
HETATM    7  C   UNL     1     -19.426  -4.577  -7.207  1.00  0.00     0.000 C 
BRANCH   7   8
HETATM    8  C   UNL     1     -20.190  -5.238  -8.354  1.00  0.00     0.000 C 
BRANCH   8   9
HETATM    9  C   UNL     1     -20.919  -4.195  -9.199  1.00  0.00    -0.000 C 
BRANCH   9  10
HETATM   10  C   UNL     1     -20.517  -4.291 -10.670  1.00  0.00    -0.005 C 
HETATM   11  C   UNL     1     -21.329  -3.332 -11.525  1.00  0.00     0.005 C 
ENDBRANCH   9  10
ENDBRANCH   8   9
ENDBRANCH   7   8
ENDBRANCH   6   7
ENDBRANCH   5   6
ENDBRANCH   4   5
ENDBRANCH   3   4
ENDBRANCH   2   3
ENDBRANCH   1   2
BRANCH   1  12
HETATM   12  C   UNL     1     -20.278  -9.492  -1.970  1.00  0.00     0.220 C 
HETATM   13  O   UNL     1     -19.795 -10.511  -1.464  1.00  0.00    -0.273 OA
HETATM   14  N   UNL     1     -21.317  -8.849  -1.345  1.00  0.00    -0.338 N 
HETATM   15  C   UNL     1     -22.023  -7.667  -1.805  1.00  0.00     0.127 C 
HETATM   16  C   UNL     1     -21.802  -9.255  -0.018  1.00  0.00     0.185 C 
HETATM   17  C   UNL     1     -22.359  -6.938  -0.520  1.00  0.00     0.022 C 
HETATM   18  C   UNL     1     -22.639  -8.061   0.473  1.00  0.00     0.038 C 
BRANCH  16  19
HETATM   19  C   UNL     1     -22.626 -10.558  -0.066  1.00  0.00     0.163 C 
HETATM   20  O   UNL     1     -23.804 -10.630  -0.390  1.00  0.00    -0.648 OA
BRANCH  19  21
HETATM   21  O   UNL     1     -21.943 -11.649   0.354  1.00  0.00    -0.775 OA
HETATM   22  H   UNL     1     -21.242 -11.930  -0.288  1.00  0.00     0.167 HD
ENDBRANCH  19  21
ENDBRANCH  16  19
ENDBRANCH   1  12
TORSDOF 12
ENDMDL
MODEL 7
REMARK VINA RESULT:      -5.8      3.942      9.032
REMARK  12 active torsions:
REMARK  status: ('A' for Active; 'I' for Inactive)
REMARK    1  A    between atoms: C_2  and  C_3 
REMARK    2  A    between atoms: C_3  and  C_4 
REMARK    3  A    between atoms: C_4  and  C_5 
REMARK    4  A    between atoms: C_5  and  C_6 
REMARK    5  A    between atoms: C_6  and  C_7 
REMARK    6  A    between atoms: C_7  and  C_8 
REMARK    7  A    between atoms: C_8  and  C_9 
REMARK    8  A    between atoms: C_9  and  C_10 
REMARK    9  A    between atoms: C_10  and  C_11 
REMARK   10  A    between atoms: C_11  and  C_12 
REMARK       I    between atoms: C_12  and  N_14 
REMARK   11  A    between atoms: C_18  and  C_19 
REMARK   12  A    between atoms: C_19  and  O_21 
ROOT
HETATM    1  C   UNL     1     -20.256  -7.856  -5.493  1.00  0.00     0.103 C 
ENDROOT
BRANCH   1   2
HETATM    2  C   UNL     1     -20.182  -6.340  -5.655  1.00  0.00     0.009 C 
BRANCH   2   3
HETATM    3  C   UNL     1     -20.073  -5.948  -7.130  1.00  0.00     0.000 C 
BRANCH   3   4
HETATM    4  C   UNL     1     -19.822  -4.448  -7.279  1.00  0.00     0.000 C 
BRANCH   4   5
HETATM    5  C   UNL     1     -20.666  -3.849  -8.403  1.00  0.00     0.000 C 
BRANCH   5   6
HETATM    6  C   UNL     1     -21.807  -4.790  -8.790  1.00  0.00     0.000 C 
BRANCH   6   7
HETATM    7  C   UNL     1     -23.163  -4.109  -8.630  1.00  0.00     0.000 C 
BRANCH   7   8
HETATM    8  C   UNL     1     -24.135  -4.553  -9.723  1.00  0.00     0.000 C 
BRANCH   8   9
HETATM    9  C   UNL     1     -23.457  -4.552 -11.092  1.00  0.00    -0.000 C 
BRANCH   9  10
HETATM   10  C   UNL     1     -23.854  -3.322 -11.908  1.00  0.00    -0.005 C 
HETATM   11  C   UNL     1     -22.735  -2.904 -12.848  1.00  0.00     0.005 C 
ENDBRANCH   9  10
ENDBRANCH   8   9
ENDBRANCH   7   8
ENDBRANCH   6   7
ENDBRANCH   5   6
ENDBRANCH   4   5
ENDBRANCH   3   4
ENDBRANCH   2   3
ENDBRANCH   1   2
BRANCH   1  12
HETATM   12  C   UNL     1     -20.064  -8.294  -4.051  1.00  0.00     0.220 C 
HETATM   13  O   UNL     1     -19.126  -9.014  -3.691  1.00  0.00    -0.273 OA
HETATM   14  N   UNL     1     -20.968  -7.842  -3.124  1.00  0.00    -0.338 N 
HETATM   15  C   UNL     1     -22.140  -7.019  -3.368  1.00  0.00     0.127 C 
HETATM   16  C   UNL     1     -20.794  -8.076  -1.683  1.00  0.00     0.185 C 
HETATM   17  C   UNL     1     -22.226  -6.156  -2.126  1.00  0.00     0.022 C 
HETATM   18  C   UNL     1     -21.751  -7.077  -1.008  1.00  0.00     0.038 C 
BRANCH  16  19
HETATM   19  C   UNL     1     -21.101  -9.533  -1.283  1.00  0.00     0.163 C 
HETATM   20  O   UNL     1     -22.221  -9.980  -1.073  1.00  0.00    -0.648 OA
BRANCH  19  21
HETATM   21  O   UNL     1     -19.995 -10.294  -1.110  1.00  0.00    -0.775 OA
HETATM   22  H   UNL     1     -19.157  -9.796  -1.292  1.00  0.00     0.167 HD
ENDBRANCH  19  21
ENDBRANCH  16  19
ENDBRANCH   1  12
TORSDOF 12
ENDMDL
MODEL 8
REMARK VINA RESULT:      -5.7      5.093      9.078
REMARK  12 active torsions:
REMARK  status: ('A' for Active; 'I' for Inactive)
REMARK    1  A    between atoms: C_2  and  C_3 
REMARK    2  A    between atoms: C_3  and  C_4 
REMARK    3  A    between atoms: C_4  and  C_5 
REMARK    4  A    between atoms: C_5  and  C_6 
REMARK    5  A    between atoms: C_6  and  C_7 
REMARK    6  A    between atoms: C_7  and  C_8 
REMARK    7  A    between atoms: C_8  and  C_9 
REMARK    8  A    between atoms: C_9  and  C_10 
REMARK    9  A    between atoms: C_10  and  C_11 
REMARK   10  A    between atoms: C_11  and  C_12 
REMARK       I    between atoms: C_12  and  N_14 
REMARK   11  A    between atoms: C_18  and  C_19 
REMARK   12  A    between atoms: C_19  and  O_21 
ROOT
HETATM    1  C   UNL     1     -19.719  -8.719  -4.607  1.00  0.00     0.103 C 
ENDROOT
BRANCH   1   2
HETATM    2  C   UNL     1     -20.184  -7.577  -5.506  1.00  0.00     0.009 C 
BRANCH   2   3
HETATM    3  C   UNL     1     -21.565  -7.070  -5.083  1.00  0.00     0.000 C 
BRANCH   3   4
HETATM    4  C   UNL     1     -21.904  -5.758  -5.789  1.00  0.00     0.000 C 
BRANCH   4   5
HETATM    5  C   UNL     1     -20.644  -4.966  -6.135  1.00  0.00     0.000 C 
BRANCH   5   6
HETATM    6  C   UNL     1     -20.933  -3.923  -7.213  1.00  0.00     0.000 C 
BRANCH   6   7
HETATM    7  C   UNL     1     -19.898  -3.982  -8.333  1.00  0.00     0.000 C 
BRANCH   7   8
HETATM    8  C   UNL     1     -20.570  -4.027  -9.705  1.00  0.00     0.000 C 
BRANCH   8   9
HETATM    9  C   UNL     1     -21.997  -4.565  -9.598  1.00  0.00    -0.000 C 
BRANCH   9  10
HETATM   10  C   UNL     1     -22.981  -3.687 -10.370  1.00  0.00    -0.005 C 
HETATM   11  C   UNL     1     -24.217  -3.386  -9.537  1.00  0.00     0.005 C 
ENDBRANCH   9  10
ENDBRANCH   8   9
ENDBRANCH   7   8
ENDBRANCH   6   7
ENDBRANCH   5   6
ENDBRANCH   4   5
ENDBRANCH   3   4
ENDBRANCH   2   3
ENDBRANCH   1   2
BRANCH   1  12
HETATM   12  C   UNL     1     -18.596  -9.528  -5.232  1.00  0.00     0.220 C 
HETATM   13  O   UNL     1     -18.534  -9.760  -6.444  1.00  0.00    -0.273 OA
HETATM   14  N   UNL     1     -17.608  -9.991  -4.400  1.00  0.00    -0.338 N 
HETATM   15  C   UNL     1     -17.532  -9.842  -2.958  1.00  0.00     0.127 C 
HETATM   16  C   UNL     1     -16.398 -10.650  -4.913  1.00  0.00     0.185 C 
HETATM   17  C   UNL     1     -16.046  -9.703  -2.698  1.00  0.00     0.022 C 
HETATM   18  C   UNL     1     -15.407 -10.618  -3.736  1.00  0.00     0.038 C 
BRANCH  16  19
HETATM   19  C   UNL     1     -16.673 -12.087  -5.400  1.00  0.00     0.163 C 
HETATM   20  O   UNL     1     -16.737 -13.072  -4.675  1.00  0.00    -0.648 OA
BRANCH  19  21
HETATM   21  O   UNL     1     -16.779 -12.196  -6.745  1.00  0.00    -0.775 OA
HETATM   22  H   UNL     1     -16.811 -13.138  -7.050  1.00  0.00     0.167 HD
ENDBRANCH  19  21
ENDBRANCH  16  19
ENDBRANCH   1  12
TORSDOF 12
ENDMDL
MODEL 9
REMARK VINA RESULT:      -5.6     18.560     20.295
REMARK  12 active torsions:
REMARK  status: ('A' for Active; 'I' for Inactive)
REMARK    1  A    between atoms: C_2  and  C_3 
REMARK    2  A    between atoms: C_3  and  C_4 
REMARK    3  A    between atoms: C_4  and  C_5 
REMARK    4  A    between atoms: C_5  and  C_6 
REMARK    5  A    between atoms: C_6  and  C_7 
REMARK    6  A    between atoms: C_7  and  C_8 
REMARK    7  A    between atoms: C_8  and  C_9 
REMARK    8  A    between atoms: C_9  and  C_10 
REMARK    9  A    between atoms: C_10  and  C_11 
REMARK   10  A    between atoms: C_11  and  C_12 
REMARK       I    between atoms: C_12  and  N_14 
REMARK   11  A    between atoms: C_18  and  C_19 
REMARK   12  A    between atoms: C_19  and  O_21 
ROOT
HETATM    1  C   UNL     1     -16.799  10.890   6.316  1.00  0.00     0.103 C 
ENDROOT
BRANCH   1   2
HETATM    2  C   UNL     1     -15.990   9.662   6.728  1.00  0.00     0.009 C 
BRANCH   2   3
HETATM    3  C   UNL     1     -14.499   9.991   6.823  1.00  0.00     0.000 C 
BRANCH   3   4
HETATM    4  C   UNL     1     -13.657   8.919   6.133  1.00  0.00     0.000 C 
BRANCH   4   5
HETATM    5  C   UNL     1     -14.405   8.293   4.956  1.00  0.00     0.000 C 
BRANCH   5   6
HETATM    6  C   UNL     1     -13.933   8.891   3.630  1.00  0.00     0.000 C 
BRANCH   6   7
HETATM    7  C   UNL     1     -14.615   8.214   2.445  1.00  0.00     0.000 C 
BRANCH   7   8
HETATM    8  C   UNL     1     -13.966   8.629   1.124  1.00  0.00     0.000 C 
BRANCH   8   9
HETATM    9  C   UNL     1     -13.288   9.992   1.252  1.00  0.00    -0.000 C 
BRANCH   9  10
HETATM   10  C   UNL     1     -14.070  11.073   0.508  1.00  0.00    -0.005 C 
HETATM   11  C   UNL     1     -14.680  12.074   1.476  1.00  0.00     0.005 C 
ENDBRANCH   9  10
ENDBRANCH   8   9
ENDBRANCH   7   8
ENDBRANCH   6   7
ENDBRANCH   5   6
ENDBRANCH   4   5
ENDBRANCH   3   4
ENDBRANCH   2   3
ENDBRANCH   1   2
BRANCH   1  12
HETATM   12  C   UNL     1     -18.203  10.533   5.861  1.00  0.00     0.220 C 
HETATM   13  O   UNL     1     -19.166  10.493   6.635  1.00  0.00    -0.273 OA
HETATM   14  N   UNL     1     -18.390  10.269   4.528  1.00  0.00    -0.338 N 
HETATM   15  C   UNL     1     -17.379  10.240   3.487  1.00  0.00     0.127 C 
HETATM   16  C   UNL     1     -19.728  10.063   3.952  1.00  0.00     0.185 C 
HETATM   17  C   UNL     1     -18.112  10.768   2.271  1.00  0.00     0.022 C 
HETATM   18  C   UNL     1     -19.527  10.224   2.435  1.00  0.00     0.038 C 
BRANCH  16  19
HETATM   19  C   UNL     1     -20.319   8.687   4.316  1.00  0.00     0.163 C 
HETATM   20  O   UNL     1     -20.097   7.647   3.709  1.00  0.00    -0.648 OA
BRANCH  19  21
HETATM   21  O   UNL     1     -21.186   8.724   5.355  1.00  0.00    -0.775 OA
HETATM   22  H   UNL     1     -20.734   8.624   6.232  1.00  0.00     0.167 HD
ENDBRANCH  19  21
ENDBRANCH  16  19
ENDBRANCH   1  12
TORSDOF 12
ENDMDL
