MODEL 1
REMARK VINA RESULT:      -7.2      0.000      0.000
REMARK  22 active torsions:
REMARK  status: ('A' for Active; 'I' for Inactive)
REMARK    1  A    between atoms: C_2  and  C_4 
REMARK    2  A    between atoms: C_4  and  C_5 
REMARK    3  A    between atoms: C_5  and  C_6 
REMARK    4  A    between atoms: C_6  and  C_7 
REMARK    5  A    between atoms: C_7  and  C_8 
REMARK    6  A    between atoms: C_8  and  C_9 
REMARK    7  A    between atoms: C_9  and  C_10 
REMARK    8  A    between atoms: C_10  and  C_11 
REMARK    9  A    between atoms: C_11  and  C_12 
REMARK   10  A    between atoms: C_12  and  C_13 
REMARK   11  A    between atoms: C_13  and  C_14 
REMARK   12  A    between atoms: C_14  and  C_15 
REMARK   13  A    between atoms: C_15  and  C_16 
REMARK   14  A    between atoms: C_16  and  C_17 
REMARK   15  A    between atoms: C_17  and  C_18 
REMARK   16  A    between atoms: C_18  and  O_20 
REMARK   17  A    between atoms: O_20  and  C_21 
REMARK   18  A    between atoms: C_21  and  C_22 
REMARK   19  A    between atoms: C_21  and  C_24 
REMARK   20  A    between atoms: C_22  and  O_23 
REMARK   21  A    between atoms: C_25  and  O_30 
REMARK   22  A    between atoms: C_26  and  O_29 
ROOT
HETATM    1  C   UNL     1     -21.695  -4.689  -7.279  1.00  0.00     0.111 C 
ENDROOT
BRANCH   1   2
HETATM    2  C   UNL     1     -20.691  -5.667  -6.672  1.00  0.00     0.010 C 
BRANCH   2   3
HETATM    3  C   UNL     1     -20.867  -5.792  -5.160  1.00  0.00     0.000 C 
BRANCH   3   4
HETATM    4  C   UNL     1     -21.344  -7.195  -4.793  1.00  0.00     0.000 C 
BRANCH   4   5
HETATM    5  C   UNL     1     -21.269  -7.434  -3.289  1.00  0.00     0.000 C 
BRANCH   5   6
HETATM    6  C   UNL     1     -21.832  -6.236  -2.531  1.00  0.00     0.000 C 
BRANCH   6   7
HETATM    7  C   UNL     1     -22.384  -6.667  -1.177  1.00  0.00     0.000 C 
BRANCH   7   8
HETATM    8  C   UNL     1     -21.487  -7.727  -0.549  1.00  0.00     0.000 C 
BRANCH   8   9
HETATM    9  C   UNL     1     -22.146  -8.316   0.690  1.00  0.00     0.000 C 
BRANCH   9  10
HETATM   10  C   UNL     1     -23.319  -9.205   0.297  1.00  0.00     0.000 C 
BRANCH  10  11
HETATM   11  C   UNL     1     -22.815 -10.510  -0.302  1.00  0.00     0.000 C 
BRANCH  11  12
HETATM   12  C   UNL     1     -23.913 -11.201  -1.103  1.00  0.00     0.000 C 
BRANCH  12  13
HETATM   13  C   UNL     1     -23.321 -11.818  -2.364  1.00  0.00     0.000 C 
BRANCH  13  14
HETATM   14  C   UNL     1     -22.559 -10.783  -3.187  1.00  0.00     0.004 C 
BRANCH  14  15
HETATM   15  C   UNL     1     -21.262 -11.345  -3.799  1.00  0.00    -0.023 C 
HETATM   16  C   UNL     1     -21.142 -10.890  -5.253  1.00  0.00     0.009 C 
HETATM   17  C   UNL     1     -20.019 -10.923  -3.018  1.00  0.00     0.009 C 
ENDBRANCH  14  15
ENDBRANCH  13  14
ENDBRANCH  12  13
ENDBRANCH  11  12
ENDBRANCH  10  11
ENDBRANCH   9  10
ENDBRANCH   8   9
ENDBRANCH   7   8
ENDBRANCH   6   7
ENDBRANCH   5   6
ENDBRANCH   4   5
ENDBRANCH   3   4
ENDBRANCH   2   3
ENDBRANCH   1   2
BRANCH   1  18
HETATM   18  C   UNL     1     -21.370  -4.380  -8.723  1.00  0.00     0.259 C 
HETATM   19  O   UNL     1     -20.416  -4.840  -9.333  1.00  0.00    -0.265 OA
BRANCH  18  20
HETATM   20  O   UNL     1     -22.224  -3.421  -9.191  1.00  0.00    -0.311 OA
BRANCH  20  21
HETATM   21  C   UNL     1     -23.483  -3.903  -9.720  1.00  0.00     0.187 C 
BRANCH  21  22
HETATM   22  C   UNL     1     -24.696  -2.995  -9.385  1.00  0.00     0.199 C 
BRANCH  22  23
HETATM   23  O   UNL     1     -25.975  -3.579  -9.656  1.00  0.00    -0.398 OA
HETATM   24  H   UNL     1     -26.061  -3.602 -10.629  1.00  0.00     0.209 HD
ENDBRANCH  22  23
ENDBRANCH  21  22
BRANCH  21  25
HETATM   25  C   UNL     1     -23.331  -4.171 -11.238  1.00  0.00     0.184 C 
HETATM   26  C   UNL     1     -22.280  -3.316 -11.963  1.00  0.00     0.180 C 
HETATM   27  C   UNL     1     -22.961  -2.849 -13.243  1.00  0.00     0.173 C 
HETATM   28  C   UNL     1     -24.226  -3.675 -13.302  1.00  0.00     0.202 C 
HETATM   29  O   UNL     1     -24.566  -3.982 -11.954  1.00  0.00    -0.378 OA
BRANCH  26  30
HETATM   30  O   UNL     1     -21.165  -4.127 -12.394  1.00  0.00    -0.390 OA
HETATM   31  H   UNL     1     -20.558  -3.527 -12.878  1.00  0.00     0.210 HD
ENDBRANCH  26  30
BRANCH  27  32
HETATM   32  O   UNL     1     -22.134  -3.103 -14.375  1.00  0.00    -0.391 OA
HETATM   33  H   UNL     1     -21.257  -3.350 -14.007  1.00  0.00     0.210 HD
ENDBRANCH  27  32
ENDBRANCH  21  25
ENDBRANCH  20  21
ENDBRANCH  18  20
ENDBRANCH   1  18
TORSDOF 22
ENDMDL
MODEL 2
REMARK VINA RESULT:      -7.2      1.507      2.517
REMARK  22 active torsions:
REMARK  status: ('A' for Active; 'I' for Inactive)
REMARK    1  A    between atoms: C_2  and  C_4 
REMARK    2  A    between atoms: C_4  and  C_5 
REMARK    3  A    between atoms: C_5  and  C_6 
REMARK    4  A    between atoms: C_6  and  C_7 
REMARK    5  A    between atoms: C_7  and  C_8 
REMARK    6  A    between atoms: C_8  and  C_9 
REMARK    7  A    between atoms: C_9  and  C_10 
REMARK    8  A    between atoms: C_10  and  C_11 
REMARK    9  A    between atoms: C_11  and  C_12 
REMARK   10  A    between atoms: C_12  and  C_13 
REMARK   11  A    between atoms: C_13  and  C_14 
REMARK   12  A    between atoms: C_14  and  C_15 
REMARK   13  A    between atoms: C_15  and  C_16 
REMARK   14  A    between atoms: C_16  and  C_17 
REMARK   15  A    between atoms: C_17  and  C_18 
REMARK   16  A    between atoms: C_18  and  O_20 
REMARK   17  A    between atoms: O_20  and  C_21 
REMARK   18  A    between atoms: C_21  and  C_22 
REMARK   19  A    between atoms: C_21  and  C_24 
REMARK   20  A    between atoms: C_22  and  O_23 
REMARK   21  A    between atoms: C_25  and  O_30 
REMARK   22  A    between atoms: C_26  and  O_29 
ROOT
HETATM    1  C   UNL     1     -20.078  -4.803  -8.907  1.00  0.00     0.111 C 
ENDROOT
BRANCH   1   2
HETATM    2  C   UNL     1     -20.204  -3.749  -7.808  1.00  0.00     0.010 C 
BRANCH   2   3
HETATM    3  C   UNL     1     -20.902  -4.305  -6.569  1.00  0.00     0.000 C 
BRANCH   3   4
HETATM    4  C   UNL     1     -19.927  -5.125  -5.729  1.00  0.00     0.000 C 
BRANCH   4   5
HETATM    5  C   UNL     1     -20.340  -6.591  -5.667  1.00  0.00     0.000 C 
BRANCH   5   6
HETATM    6  C   UNL     1     -21.808  -6.715  -5.272  1.00  0.00     0.000 C 
BRANCH   6   7
HETATM    7  C   UNL     1     -21.966  -6.648  -3.758  1.00  0.00     0.000 C 
BRANCH   7   8
HETATM    8  C   UNL     1     -21.554  -7.969  -3.120  1.00  0.00     0.000 C 
BRANCH   8   9
HETATM    9  C   UNL     1     -20.484  -7.740  -2.062  1.00  0.00     0.000 C 
BRANCH   9  10
HETATM   10  C   UNL     1     -20.983  -8.186  -0.694  1.00  0.00     0.000 C 
BRANCH  10  11
HETATM   11  C   UNL     1     -22.222  -7.395  -0.300  1.00  0.00     0.000 C 
BRANCH  11  12
HETATM   12  C   UNL     1     -23.228  -8.284   0.422  1.00  0.00     0.000 C 
BRANCH  12  13
HETATM   13  C   UNL     1     -22.797  -9.742   0.319  1.00  0.00     0.000 C 
BRANCH  13  14
HETATM   14  C   UNL     1     -23.868 -10.593  -0.359  1.00  0.00     0.004 C 
BRANCH  14  15
HETATM   15  C   UNL     1     -23.275 -11.741  -1.197  1.00  0.00    -0.023 C 
HETATM   16  C   UNL     1     -21.797 -11.916  -0.853  1.00  0.00     0.009 C 
HETATM   17  C   UNL     1     -24.017 -13.060  -0.987  1.00  0.00     0.009 C 
ENDBRANCH  14  15
ENDBRANCH  13  14
ENDBRANCH  12  13
ENDBRANCH  11  12
ENDBRANCH  10  11
ENDBRANCH   9  10
ENDBRANCH   8   9
ENDBRANCH   7   8
ENDBRANCH   6   7
ENDBRANCH   5   6
ENDBRANCH   4   5
ENDBRANCH   3   4
ENDBRANCH   2   3
ENDBRANCH   1   2
BRANCH   1  18
HETATM   18  C   UNL     1     -20.536  -4.270 -10.246  1.00  0.00     0.259 C 
HETATM   19  O   UNL     1     -19.897  -4.360 -11.284  1.00  0.00    -0.265 OA
BRANCH  18  20
HETATM   20  O   UNL     1     -21.700  -3.570 -10.089  1.00  0.00    -0.311 OA
BRANCH  20  21
HETATM   21  C   UNL     1     -22.919  -4.322 -10.302  1.00  0.00     0.187 C 
BRANCH  21  22
HETATM   22  C   UNL     1     -24.015  -4.061  -9.235  1.00  0.00     0.199 C 
BRANCH  22  23
HETATM   23  O   UNL     1     -24.594  -2.752  -9.278  1.00  0.00    -0.398 OA
HETATM   24  H   UNL     1     -24.414  -2.406 -10.174  1.00  0.00     0.209 HD
ENDBRANCH  22  23
ENDBRANCH  21  22
BRANCH  21  25
HETATM   25  C   UNL     1     -23.419  -4.087 -11.749  1.00  0.00     0.184 C 
HETATM   26  C   UNL     1     -22.665  -3.010 -12.546  1.00  0.00     0.180 C 
HETATM   27  C   UNL     1     -23.751  -2.182 -13.222  1.00  0.00     0.173 C 
HETATM   28  C   UNL     1     -25.011  -2.988 -13.000  1.00  0.00     0.202 C 
HETATM   29  O   UNL     1     -24.810  -3.720 -11.795  1.00  0.00    -0.378 OA
BRANCH  26  30
HETATM   30  O   UNL     1     -21.908  -3.604 -13.624  1.00  0.00    -0.390 OA
HETATM   31  H   UNL     1     -21.056  -3.120 -13.663  1.00  0.00     0.210 HD
ENDBRANCH  26  30
BRANCH  27  32
HETATM   32  O   UNL     1     -23.480  -2.034 -14.612  1.00  0.00    -0.391 OA
HETATM   33  H   UNL     1     -23.249  -1.086 -14.733  1.00  0.00     0.210 HD
ENDBRANCH  27  32
ENDBRANCH  21  25
ENDBRANCH  20  21
ENDBRANCH  18  20
ENDBRANCH   1  18
TORSDOF 22
ENDMDL
MODEL 3
REMARK VINA RESULT:      -7.1      1.503      3.320
REMARK  22 active torsions:
REMARK  status: ('A' for Active; 'I' for Inactive)
REMARK    1  A    between atoms: C_2  and  C_4 
REMARK    2  A    between atoms: C_4  and  C_5 
REMARK    3  A    between atoms: C_5  and  C_6 
REMARK    4  A    between atoms: C_6  and  C_7 
REMARK    5  A    between atoms: C_7  and  C_8 
REMARK    6  A    between atoms: C_8  and  C_9 
REMARK    7  A    between atoms: C_9  and  C_10 
REMARK    8  A    between atoms: C_10  and  C_11 
REMARK    9  A    between atoms: C_11  and  C_12 
REMARK   10  A    between atoms: C_12  and  C_13 
REMARK   11  A    between atoms: C_13  and  C_14 
REMARK   12  A    between atoms: C_14  and  C_15 
REMARK   13  A    between atoms: C_15  and  C_16 
REMARK   14  A    between atoms: C_16  and  C_17 
REMARK   15  A    between atoms: C_17  and  C_18 
REMARK   16  A    between atoms: C_18  and  O_20 
REMARK   17  A    between atoms: O_20  and  C_21 
REMARK   18  A    between atoms: C_21  and  C_22 
REMARK   19  A    between atoms: C_21  and  C_24 
REMARK   20  A    between atoms: C_22  and  O_23 
REMARK   21  A    between atoms: C_25  and  O_30 
REMARK   22  A    between atoms: C_26  and  O_29 
ROOT
HETATM    1  C   UNL     1     -21.225  -3.543  -7.365  1.00  0.00     0.111 C 
ENDROOT
BRANCH   1   2
HETATM    2  C   UNL     1     -20.152  -4.532  -6.912  1.00  0.00     0.010 C 
BRANCH   2   3
HETATM    3  C   UNL     1     -20.442  -5.079  -5.516  1.00  0.00     0.000 C 
BRANCH   3   4
HETATM    4  C   UNL     1     -20.441  -6.606  -5.531  1.00  0.00     0.000 C 
BRANCH   4   5
HETATM    5  C   UNL     1     -21.808  -7.168  -5.158  1.00  0.00     0.000 C 
BRANCH   5   6
HETATM    6  C   UNL     1     -21.671  -8.225  -4.068  1.00  0.00     0.000 C 
BRANCH   6   7
HETATM    7  C   UNL     1     -21.502  -7.570  -2.702  1.00  0.00     0.000 C 
BRANCH   7   8
HETATM    8  C   UNL     1     -20.247  -8.092  -2.012  1.00  0.00     0.000 C 
BRANCH   8   9
HETATM    9  C   UNL     1     -19.572  -9.154  -2.866  1.00  0.00     0.000 C 
BRANCH   9  10
HETATM   10  C   UNL     1     -18.933 -10.220  -1.985  1.00  0.00     0.000 C 
BRANCH  10  11
HETATM   11  C   UNL     1     -19.835 -11.442  -1.897  1.00  0.00     0.000 C 
BRANCH  11  12
HETATM   12  C   UNL     1     -19.920 -11.953  -0.463  1.00  0.00     0.000 C 
BRANCH  12  13
HETATM   13  C   UNL     1     -20.897 -11.095   0.333  1.00  0.00     0.000 C 
BRANCH  13  14
HETATM   14  C   UNL     1     -22.274 -11.750   0.416  1.00  0.00     0.004 C 
BRANCH  14  15
HETATM   15  C   UNL     1     -23.386 -10.883  -0.202  1.00  0.00    -0.023 C 
HETATM   16  C   UNL     1     -23.077  -9.406   0.039  1.00  0.00     0.009 C 
HETATM   17  C   UNL     1     -23.563 -11.140  -1.697  1.00  0.00     0.009 C 
ENDBRANCH  14  15
ENDBRANCH  13  14
ENDBRANCH  12  13
ENDBRANCH  11  12
ENDBRANCH  10  11
ENDBRANCH   9  10
ENDBRANCH   8   9
ENDBRANCH   7   8
ENDBRANCH   6   7
ENDBRANCH   5   6
ENDBRANCH   4   5
ENDBRANCH   3   4
ENDBRANCH   2   3
ENDBRANCH   1   2
BRANCH   1  18
HETATM   18  C   UNL     1     -22.494  -4.251  -7.785  1.00  0.00     0.259 C 
HETATM   19  O   UNL     1     -23.450  -4.454  -7.052  1.00  0.00    -0.265 OA
BRANCH  18  20
HETATM   20  O   UNL     1     -22.353  -4.731  -9.057  1.00  0.00    -0.311 OA
BRANCH  20  21
HETATM   21  C   UNL     1     -21.684  -3.850  -9.992  1.00  0.00     0.187 C 
BRANCH  21  22
HETATM   22  C   UNL     1     -20.653  -4.566 -10.904  1.00  0.00     0.199 C 
BRANCH  22  23
HETATM   23  O   UNL     1     -19.812  -3.689 -11.662  1.00  0.00    -0.398 OA
HETATM   24  H   UNL     1     -19.610  -2.935 -11.076  1.00  0.00     0.209 HD
ENDBRANCH  22  23
ENDBRANCH  21  22
BRANCH  21  25
HETATM   25  C   UNL     1     -22.744  -3.052 -10.791  1.00  0.00     0.184 C 
HETATM   26  C   UNL     1     -24.025  -3.821 -11.150  1.00  0.00     0.180 C 
HETATM   27  C   UNL     1     -24.291  -3.490 -12.613  1.00  0.00     0.173 C 
HETATM   28  C   UNL     1     -23.330  -2.361 -12.909  1.00  0.00     0.202 C 
HETATM   29  O   UNL     1     -22.223  -2.539 -12.031  1.00  0.00    -0.378 OA
BRANCH  26  30
HETATM   30  O   UNL     1     -25.160  -3.298 -10.425  1.00  0.00    -0.390 OA
HETATM   31  H   UNL     1     -25.919  -3.878 -10.646  1.00  0.00     0.210 HD
ENDBRANCH  26  30
BRANCH  27  32
HETATM   32  O   UNL     1     -25.640  -3.072 -12.798  1.00  0.00    -0.391 OA
HETATM   33  H   UNL     1     -25.877  -2.588 -11.976  1.00  0.00     0.210 HD
ENDBRANCH  27  32
ENDBRANCH  21  25
ENDBRANCH  20  21
ENDBRANCH  18  20
ENDBRANCH   1  18
TORSDOF 22
ENDMDL
MODEL 4
REMARK VINA RESULT:      -7.1      1.502      1.980
REMARK  22 active torsions:
REMARK  status: ('A' for Active; 'I' for Inactive)
REMARK    1  A    between atoms: C_2  and  C_4 
REMARK    2  A    between atoms: C_4  and  C_5 
REMARK    3  A    between atoms: C_5  and  C_6 
REMARK    4  A    between atoms: C_6  and  C_7 
REMARK    5  A    between atoms: C_7  and  C_8 
REMARK    6  A    between atoms: C_8  and  C_9 
REMARK    7  A    between atoms: C_9  and  C_10 
REMARK    8  A    between atoms: C_10  and  C_11 
REMARK    9  A    between atoms: C_11  and  C_12 
REMARK   10  A    between atoms: C_12  and  C_13 
REMARK   11  A    between atoms: C_13  and  C_14 
REMARK   12  A    between atoms: C_14  and  C_15 
REMARK   13  A    between atoms: C_15  and  C_16 
REMARK   14  A    between atoms: C_16  and  C_17 
REMARK   15  A    between atoms: C_17  and  C_18 
REMARK   16  A    between atoms: C_18  and  O_20 
REMARK   17  A    between atoms: O_20  and  C_21 
REMARK   18  A    between atoms: C_21  and  C_22 
REMARK   19  A    between atoms: C_21  and  C_24 
REMARK   20  A    between atoms: C_22  and  O_23 
REMARK   21  A    between atoms: C_25  and  O_30 
REMARK   22  A    between atoms: C_26  and  O_29 
ROOT
HETATM    1  C   UNL     1     -20.984  -5.417  -7.684  1.00  0.00     0.111 C 
ENDROOT
BRANCH   1   2
HETATM    2  C   UNL     1     -20.019  -4.816  -6.664  1.00  0.00     0.010 C 
BRANCH   2   3
HETATM    3  C   UNL     1     -20.332  -5.284  -5.245  1.00  0.00     0.000 C 
BRANCH   3   4
HETATM    4  C   UNL     1     -20.702  -6.765  -5.242  1.00  0.00     0.000 C 
BRANCH   4   5
HETATM    5  C   UNL     1     -21.628  -7.105  -4.079  1.00  0.00     0.000 C 
BRANCH   5   6
HETATM    6  C   UNL     1     -21.527  -6.043  -2.989  1.00  0.00     0.000 C 
BRANCH   6   7
HETATM    7  C   UNL     1     -22.187  -6.527  -1.704  1.00  0.00     0.000 C 
BRANCH   7   8
HETATM    8  C   UNL     1     -21.354  -7.628  -1.059  1.00  0.00     0.000 C 
BRANCH   8   9
HETATM    9  C   UNL     1     -22.081  -8.211   0.144  1.00  0.00     0.000 C 
BRANCH   9  10
HETATM   10  C   UNL     1     -22.072  -9.733   0.086  1.00  0.00     0.000 C 
BRANCH  10  11
HETATM   11  C   UNL     1     -20.845 -10.282   0.799  1.00  0.00     0.000 C 
BRANCH  11  12
HETATM   12  C   UNL     1     -20.206 -11.407  -0.006  1.00  0.00     0.000 C 
BRANCH  12  13
HETATM   13  C   UNL     1     -19.812 -10.896  -1.387  1.00  0.00     0.000 C 
BRANCH  13  14
HETATM   14  C   UNL     1     -18.347 -11.192  -1.695  1.00  0.00     0.004 C 
BRANCH  14  15
HETATM   15  C   UNL     1     -17.817 -10.394  -2.900  1.00  0.00    -0.023 C 
HETATM   16  C   UNL     1     -18.798  -9.273  -3.243  1.00  0.00     0.009 C 
HETATM   17  C   UNL     1     -16.429  -9.810  -2.649  1.00  0.00     0.009 C 
ENDBRANCH  14  15
ENDBRANCH  13  14
ENDBRANCH  12  13
ENDBRANCH  11  12
ENDBRANCH  10  11
ENDBRANCH   9  10
ENDBRANCH   8   9
ENDBRANCH   7   8
ENDBRANCH   6   7
ENDBRANCH   5   6
ENDBRANCH   4   5
ENDBRANCH   3   4
ENDBRANCH   2   3
ENDBRANCH   1   2
BRANCH   1  18
HETATM   18  C   UNL     1     -22.245  -4.592  -7.815  1.00  0.00     0.259 C 
HETATM   19  O   UNL     1     -23.116  -4.516  -6.961  1.00  0.00    -0.265 OA
BRANCH  18  20
HETATM   20  O   UNL     1     -22.314  -4.054  -9.070  1.00  0.00    -0.311 OA
BRANCH  20  21
HETATM   21  C   UNL     1     -23.591  -4.184  -9.740  1.00  0.00     0.187 C 
BRANCH  21  22
HETATM   22  C   UNL     1     -24.589  -3.039  -9.422  1.00  0.00     0.199 C 
BRANCH  22  23
HETATM   23  O   UNL     1     -25.953  -3.323  -9.751  1.00  0.00    -0.398 OA
HETATM   24  H   UNL     1     -26.200  -4.108  -9.226  1.00  0.00     0.209 HD
ENDBRANCH  22  23
ENDBRANCH  21  22
BRANCH  21  25
HETATM   25  C   UNL     1     -23.355  -4.373 -11.259  1.00  0.00     0.184 C 
HETATM   26  C   UNL     1     -22.393  -3.368 -11.913  1.00  0.00     0.180 C 
HETATM   27  C   UNL     1     -23.082  -2.940 -13.202  1.00  0.00     0.173 C 
HETATM   28  C   UNL     1     -24.232  -3.911 -13.338  1.00  0.00     0.202 C 
HETATM   29  O   UNL     1     -24.578  -4.308 -12.016  1.00  0.00    -0.378 OA
BRANCH  26  30
HETATM   30  O   UNL     1     -21.172  -4.020 -12.327  1.00  0.00    -0.390 OA
HETATM   31  H   UNL     1     -20.749  -3.424 -12.981  1.00  0.00     0.210 HD
ENDBRANCH  26  30
BRANCH  27  32
HETATM   32  O   UNL     1     -22.191  -3.047 -14.308  1.00  0.00    -0.391 OA
HETATM   33  H   UNL     1     -21.952  -3.999 -14.359  1.00  0.00     0.210 HD
ENDBRANCH  27  32
ENDBRANCH  21  25
ENDBRANCH  20  21
ENDBRANCH  18  20
ENDBRANCH   1  18
TORSDOF 22
ENDMDL
MODEL 5
REMARK VINA RESULT:      -7.0      1.216      2.288
REMARK  22 active torsions:
REMARK  status: ('A' for Active; 'I' for Inactive)
REMARK    1  A    between atoms: C_2  and  C_4 
REMARK    2  A    between atoms: C_4  and  C_5 
REMARK    3  A    between atoms: C_5  and  C_6 
REMARK    4  A    between atoms: C_6  and  C_7 
REMARK    5  A    between atoms: C_7  and  C_8 
REMARK    6  A    between atoms: C_8  and  C_9 
REMARK    7  A    between atoms: C_9  and  C_10 
REMARK    8  A    between atoms: C_10  and  C_11 
REMARK    9  A    between atoms: C_11  and  C_12 
REMARK   10  A    between atoms: C_12  and  C_13 
REMARK   11  A    between atoms: C_13  and  C_14 
REMARK   12  A    between atoms: C_14  and  C_15 
REMARK   13  A    between atoms: C_15  and  C_16 
REMARK   14  A    between atoms: C_16  and  C_17 
REMARK   15  A    between atoms: C_17  and  C_18 
REMARK   16  A    between atoms: C_18  and  O_20 
REMARK   17  A    between atoms: O_20  and  C_21 
REMARK   18  A    between atoms: C_21  and  C_22 
REMARK   19  A    between atoms: C_21  and  C_24 
REMARK   20  A    between atoms: C_22  and  O_23 
REMARK   21  A    between atoms: C_25  and  O_30 
REMARK   22  A    between atoms: C_26  and  O_29 
ROOT
HETATM    1  C   UNL     1     -21.138  -5.440  -7.437  1.00  0.00     0.111 C 
ENDROOT
BRANCH   1   2
HETATM    2  C   UNL     1     -20.498  -4.601  -6.332  1.00  0.00     0.010 C 
BRANCH   2   3
HETATM    3  C   UNL     1     -20.255  -5.422  -5.068  1.00  0.00     0.000 C 
BRANCH   3   4
HETATM    4  C   UNL     1     -21.022  -6.740  -5.132  1.00  0.00     0.000 C 
BRANCH   4   5
HETATM    5  C   UNL     1     -21.385  -7.242  -3.739  1.00  0.00     0.000 C 
BRANCH   5   6
HETATM    6  C   UNL     1     -21.612  -6.068  -2.792  1.00  0.00     0.000 C 
BRANCH   6   7
HETATM    7  C   UNL     1     -22.215  -6.546  -1.477  1.00  0.00     0.000 C 
BRANCH   7   8
HETATM    8  C   UNL     1     -21.565  -7.852  -1.036  1.00  0.00     0.000 C 
BRANCH   8   9
HETATM    9  C   UNL     1     -21.756  -8.064   0.459  1.00  0.00     0.000 C 
BRANCH   9  10
HETATM   10  C   UNL     1     -22.302  -9.459   0.734  1.00  0.00     0.000 C 
BRANCH  10  11
HETATM   11  C   UNL     1     -23.340  -9.835  -0.313  1.00  0.00     0.000 C 
BRANCH  11  12
HETATM   12  C   UNL     1     -23.805 -11.274  -0.126  1.00  0.00     0.000 C 
BRANCH  12  13
HETATM   13  C   UNL     1     -23.630 -12.047  -1.428  1.00  0.00     0.000 C 
BRANCH  13  14
HETATM   14  C   UNL     1     -22.163 -12.379  -1.687  1.00  0.00     0.004 C 
BRANCH  14  15
HETATM   15  C   UNL     1     -21.637 -11.775  -3.002  1.00  0.00    -0.023 C 
HETATM   16  C   UNL     1     -22.751 -10.976  -3.680  1.00  0.00     0.009 C 
HETATM   17  C   UNL     1     -20.416 -10.883  -2.787  1.00  0.00     0.009 C 
ENDBRANCH  14  15
ENDBRANCH  13  14
ENDBRANCH  12  13
ENDBRANCH  11  12
ENDBRANCH  10  11
ENDBRANCH   9  10
ENDBRANCH   8   9
ENDBRANCH   7   8
ENDBRANCH   6   7
ENDBRANCH   5   6
ENDBRANCH   4   5
ENDBRANCH   3   4
ENDBRANCH   2   3
ENDBRANCH   1   2
BRANCH   1  18
HETATM   18  C   UNL     1     -22.418  -4.814  -7.943  1.00  0.00     0.259 C 
HETATM   19  O   UNL     1     -23.296  -4.356  -7.227  1.00  0.00    -0.265 OA
BRANCH  18  20
HETATM   20  O   UNL     1     -22.494  -4.956  -9.301  1.00  0.00    -0.311 OA
BRANCH  20  21
HETATM   21  C   UNL     1     -21.766  -3.975 -10.077  1.00  0.00     0.187 C 
BRANCH  21  22
HETATM   22  C   UNL     1     -20.659  -4.581 -10.980  1.00  0.00     0.199 C 
BRANCH  22  23
HETATM   23  O   UNL     1     -19.919  -3.624 -11.745  1.00  0.00    -0.398 OA
HETATM   24  H   UNL     1     -20.580  -3.025 -12.143  1.00  0.00     0.209 HD
ENDBRANCH  22  23
ENDBRANCH  21  22
BRANCH  21  25
HETATM   25  C   UNL     1     -22.772  -3.097 -10.864  1.00  0.00     0.184 C 
HETATM   26  C   UNL     1     -24.129  -3.751 -11.168  1.00  0.00     0.180 C 
HETATM   27  C   UNL     1     -24.408  -3.427 -12.630  1.00  0.00     0.173 C 
HETATM   28  C   UNL     1     -23.356  -2.400 -12.980  1.00  0.00     0.202 C 
HETATM   29  O   UNL     1     -22.244  -2.662 -12.131  1.00  0.00    -0.378 OA
BRANCH  26  30
HETATM   30  O   UNL     1     -25.187  -3.107 -10.423  1.00  0.00    -0.390 OA
HETATM   31  H   UNL     1     -25.710  -2.594 -11.074  1.00  0.00     0.210 HD
ENDBRANCH  26  30
BRANCH  27  32
HETATM   32  O   UNL     1     -25.717  -2.887 -12.785  1.00  0.00    -0.391 OA
HETATM   33  H   UNL     1     -25.587  -1.923 -12.924  1.00  0.00     0.210 HD
ENDBRANCH  27  32
ENDBRANCH  21  25
ENDBRANCH  20  21
ENDBRANCH  18  20
ENDBRANCH   1  18
TORSDOF 22
ENDMDL
MODEL 6
REMARK VINA RESULT:      -7.0      1.431      2.834
REMARK  22 active torsions:
REMARK  status: ('A' for Active; 'I' for Inactive)
REMARK    1  A    between atoms: C_2  and  C_4 
REMARK    2  A    between atoms: C_4  and  C_5 
REMARK    3  A    between atoms: C_5  and  C_6 
REMARK    4  A    between atoms: C_6  and  C_7 
REMARK    5  A    between atoms: C_7  and  C_8 
REMARK    6  A    between atoms: C_8  and  C_9 
REMARK    7  A    between atoms: C_9  and  C_10 
REMARK    8  A    between atoms: C_10  and  C_11 
REMARK    9  A    between atoms: C_11  and  C_12 
REMARK   10  A    between atoms: C_12  and  C_13 
REMARK   11  A    between atoms: C_13  and  C_14 
REMARK   12  A    between atoms: C_14  and  C_15 
REMARK   13  A    between atoms: C_15  and  C_16 
REMARK   14  A    between atoms: C_16  and  C_17 
REMARK   15  A    between atoms: C_17  and  C_18 
REMARK   16  A    between atoms: C_18  and  O_20 
REMARK   17  A    between atoms: O_20  and  C_21 
REMARK   18  A    between atoms: C_21  and  C_22 
REMARK   19  A    between atoms: C_21  and  C_24 
REMARK   20  A    between atoms: C_22  and  O_23 
REMARK   21  A    between atoms: C_25  and  O_30 
REMARK   22  A    between atoms: C_26  and  O_29 
ROOT
HETATM    1  C   UNL     1     -20.423  -4.890  -5.907  1.00  0.00     0.111 C 
ENDROOT
BRANCH   1   2
HETATM    2  C   UNL     1     -21.659  -5.787  -5.930  1.00  0.00     0.010 C 
BRANCH   2   3
HETATM    3  C   UNL     1     -21.659  -6.780  -4.769  1.00  0.00     0.000 C 
BRANCH   3   4
HETATM    4  C   UNL     1     -21.320  -6.071  -3.461  1.00  0.00     0.000 C 
BRANCH   4   5
HETATM    5  C   UNL     1     -21.275  -7.049  -2.292  1.00  0.00     0.000 C 
BRANCH   5   6
HETATM    6  C   UNL     1     -22.362  -6.715  -1.276  1.00  0.00     0.000 C 
BRANCH   6   7
HETATM    7  C   UNL     1     -22.111  -7.442   0.039  1.00  0.00     0.000 C 
BRANCH   7   8
HETATM    8  C   UNL     1     -21.780  -8.907  -0.215  1.00  0.00     0.000 C 
BRANCH   8   9
HETATM    9  C   UNL     1     -23.015  -9.774  -0.020  1.00  0.00     0.000 C 
BRANCH   9  10
HETATM   10  C   UNL     1     -22.614 -11.209   0.299  1.00  0.00     0.000 C 
BRANCH  10  11
HETATM   11  C   UNL     1     -23.688 -12.175  -0.177  1.00  0.00     0.000 C 
BRANCH  11  12
HETATM   12  C   UNL     1     -23.839 -12.119  -1.693  1.00  0.00     0.000 C 
BRANCH  12  13
HETATM   13  C   UNL     1     -22.465 -12.170  -2.350  1.00  0.00     0.000 C 
BRANCH  13  14
HETATM   14  C   UNL     1     -22.507 -11.617  -3.772  1.00  0.00     0.004 C 
BRANCH  14  15
HETATM   15  C   UNL     1     -21.530 -10.446  -3.986  1.00  0.00    -0.023 C 
HETATM   16  C   UNL     1     -20.315 -10.620  -3.076  1.00  0.00     0.009 C 
HETATM   17  C   UNL     1     -21.077 -10.321  -5.439  1.00  0.00     0.009 C 
ENDBRANCH  14  15
ENDBRANCH  13  14
ENDBRANCH  12  13
ENDBRANCH  11  12
ENDBRANCH  10  11
ENDBRANCH   9  10
ENDBRANCH   8   9
ENDBRANCH   7   8
ENDBRANCH   6   7
ENDBRANCH   5   6
ENDBRANCH   4   5
ENDBRANCH   3   4
ENDBRANCH   2   3
ENDBRANCH   1   2
BRANCH   1  18
HETATM   18  C   UNL     1     -19.779  -4.792  -7.272  1.00  0.00     0.259 C 
HETATM   19  O   UNL     1     -18.632  -4.422  -7.472  1.00  0.00    -0.265 OA
BRANCH  18  20
HETATM   20  O   UNL     1     -20.709  -5.056  -8.239  1.00  0.00    -0.311 OA
BRANCH  20  21
HETATM   21  C   UNL     1     -20.741  -4.128  -9.350  1.00  0.00     0.187 C 
BRANCH  21  22
HETATM   22  C   UNL     1     -20.193  -4.716 -10.678  1.00  0.00     0.199 C 
BRANCH  22  23
HETATM   23  O   UNL     1     -19.987  -3.755 -11.719  1.00  0.00    -0.398 OA
HETATM   24  H   UNL     1     -19.501  -4.222 -12.426  1.00  0.00     0.209 HD
ENDBRANCH  22  23
ENDBRANCH  21  22
BRANCH  21  25
HETATM   25  C   UNL     1     -22.171  -3.549  -9.492  1.00  0.00     0.184 C 
HETATM   26  C   UNL     1     -23.313  -4.485  -9.064  1.00  0.00     0.180 C 
HETATM   27  C   UNL     1     -24.356  -4.371 -10.168  1.00  0.00     0.173 C 
HETATM   28  C   UNL     1     -23.882  -3.196 -10.993  1.00  0.00     0.202 C 
HETATM   29  O   UNL     1     -22.467  -3.147 -10.842  1.00  0.00    -0.378 OA
BRANCH  26  30
HETATM   30  O   UNL     1     -23.960  -3.993  -7.870  1.00  0.00    -0.390 OA
HETATM   31  H   UNL     1     -23.243  -3.712  -7.263  1.00  0.00     0.210 HD
ENDBRANCH  26  30
BRANCH  27  32
HETATM   32  O   UNL     1     -25.646  -4.119  -9.618  1.00  0.00    -0.391 OA
HETATM   33  H   UNL     1     -26.185  -4.909  -9.845  1.00  0.00     0.210 HD
ENDBRANCH  27  32
ENDBRANCH  21  25
ENDBRANCH  20  21
ENDBRANCH  18  20
ENDBRANCH   1  18
TORSDOF 22
ENDMDL
MODEL 7
REMARK VINA RESULT:      -6.9      2.626      4.357
REMARK  22 active torsions:
REMARK  status: ('A' for Active; 'I' for Inactive)
REMARK    1  A    between atoms: C_2  and  C_4 
REMARK    2  A    between atoms: C_4  and  C_5 
REMARK    3  A    between atoms: C_5  and  C_6 
REMARK    4  A    between atoms: C_6  and  C_7 
REMARK    5  A    between atoms: C_7  and  C_8 
REMARK    6  A    between atoms: C_8  and  C_9 
REMARK    7  A    between atoms: C_9  and  C_10 
REMARK    8  A    between atoms: C_10  and  C_11 
REMARK    9  A    between atoms: C_11  and  C_12 
REMARK   10  A    between atoms: C_12  and  C_13 
REMARK   11  A    between atoms: C_13  and  C_14 
REMARK   12  A    between atoms: C_14  and  C_15 
REMARK   13  A    between atoms: C_15  and  C_16 
REMARK   14  A    between atoms: C_16  and  C_17 
REMARK   15  A    between atoms: C_17  and  C_18 
REMARK   16  A    between atoms: C_18  and  O_20 
REMARK   17  A    between atoms: O_20  and  C_21 
REMARK   18  A    between atoms: C_21  and  C_22 
REMARK   19  A    between atoms: C_21  and  C_24 
REMARK   20  A    between atoms: C_22  and  O_23 
REMARK   21  A    between atoms: C_25  and  O_30 
REMARK   22  A    between atoms: C_26  and  O_29 
ROOT
HETATM    1  C   UNL     1     -20.462  -4.889  -5.888  1.00  0.00     0.111 C 
ENDROOT
BRANCH   1   2
HETATM    2  C   UNL     1     -21.611  -5.896  -5.894  1.00  0.00     0.010 C 
BRANCH   2   3
HETATM    3  C   UNL     1     -21.570  -6.808  -4.670  1.00  0.00     0.000 C 
BRANCH   3   4
HETATM    4  C   UNL     1     -21.402  -5.984  -3.396  1.00  0.00     0.000 C 
BRANCH   4   5
HETATM    5  C   UNL     1     -21.162  -6.876  -2.183  1.00  0.00     0.000 C 
BRANCH   5   6
HETATM    6  C   UNL     1     -22.330  -6.775  -1.208  1.00  0.00     0.000 C 
BRANCH   6   7
HETATM    7  C   UNL     1     -22.063  -7.609   0.039  1.00  0.00     0.000 C 
BRANCH   7   8
HETATM    8  C   UNL     1     -21.822  -9.067  -0.336  1.00  0.00     0.000 C 
BRANCH   8   9
HETATM    9  C   UNL     1     -23.135  -9.834  -0.368  1.00  0.00     0.000 C 
BRANCH   9  10
HETATM   10  C   UNL     1     -22.919 -11.280   0.059  1.00  0.00     0.000 C 
BRANCH  10  11
HETATM   11  C   UNL     1     -23.812 -12.209  -0.749  1.00  0.00     0.000 C 
BRANCH  11  12
HETATM   12  C   UNL     1     -23.855 -13.600  -0.128  1.00  0.00     0.000 C 
BRANCH  12  13
HETATM   13  C   UNL     1     -23.376 -13.535   1.318  1.00  0.00     0.000 C 
BRANCH  13  14
HETATM   14  C   UNL     1     -23.388 -14.914   1.972  1.00  0.00     0.004 C 
BRANCH  14  15
HETATM   15  C   UNL     1     -23.856 -14.874   3.439  1.00  0.00    -0.023 C 
HETATM   16  C   UNL     1     -25.067 -15.789   3.614  1.00  0.00     0.009 C 
HETATM   17  C   UNL     1     -22.753 -15.280   4.414  1.00  0.00     0.009 C 
ENDBRANCH  14  15
ENDBRANCH  13  14
ENDBRANCH  12  13
ENDBRANCH  11  12
ENDBRANCH  10  11
ENDBRANCH   9  10
ENDBRANCH   8   9
ENDBRANCH   7   8
ENDBRANCH   6   7
ENDBRANCH   5   6
ENDBRANCH   4   5
ENDBRANCH   3   4
ENDBRANCH   2   3
ENDBRANCH   1   2
BRANCH   1  18
HETATM   18  C   UNL     1     -19.768  -4.824  -7.230  1.00  0.00     0.259 C 
HETATM   19  O   UNL     1     -18.610  -4.472  -7.396  1.00  0.00    -0.265 OA
BRANCH  18  20
HETATM   20  O   UNL     1     -20.666  -5.096  -8.225  1.00  0.00    -0.311 OA
BRANCH  20  21
HETATM   21  C   UNL     1     -20.685  -4.157  -9.327  1.00  0.00     0.187 C 
BRANCH  21  22
HETATM   22  C   UNL     1     -20.137  -4.737 -10.658  1.00  0.00     0.199 C 
BRANCH  22  23
HETATM   23  O   UNL     1     -19.930  -3.769 -11.693  1.00  0.00    -0.398 OA
HETATM   24  H   UNL     1     -19.444  -4.232 -12.403  1.00  0.00     0.209 HD
ENDBRANCH  22  23
ENDBRANCH  21  22
BRANCH  21  25
HETATM   25  C   UNL     1     -22.110  -3.564  -9.469  1.00  0.00     0.184 C 
HETATM   26  C   UNL     1     -23.259  -4.481  -9.020  1.00  0.00     0.180 C 
HETATM   27  C   UNL     1     -24.308  -4.371 -10.119  1.00  0.00     0.173 C 
HETATM   28  C   UNL     1     -23.826  -3.215 -10.965  1.00  0.00     0.202 C 
HETATM   29  O   UNL     1     -22.410  -3.179 -10.823  1.00  0.00    -0.378 OA
BRANCH  26  30
HETATM   30  O   UNL     1     -23.894  -3.963  -7.830  1.00  0.00    -0.390 OA
HETATM   31  H   UNL     1     -24.293  -3.103  -8.082  1.00  0.00     0.210 HD
ENDBRANCH  26  30
BRANCH  27  32
HETATM   32  O   UNL     1     -25.591  -4.096  -9.566  1.00  0.00    -0.391 OA
HETATM   33  H   UNL     1     -26.140  -4.884  -9.777  1.00  0.00     0.210 HD
ENDBRANCH  27  32
ENDBRANCH  21  25
ENDBRANCH  20  21
ENDBRANCH  18  20
ENDBRANCH   1  18
TORSDOF 22
ENDMDL
MODEL 8
REMARK VINA RESULT:      -6.7     11.606     15.009
REMARK  22 active torsions:
REMARK  status: ('A' for Active; 'I' for Inactive)
REMARK    1  A    between atoms: C_2  and  C_4 
REMARK    2  A    between atoms: C_4  and  C_5 
REMARK    3  A    between atoms: C_5  and  C_6 
REMARK    4  A    between atoms: C_6  and  C_7 
REMARK    5  A    between atoms: C_7  and  C_8 
REMARK    6  A    between atoms: C_8  and  C_9 
REMARK    7  A    between atoms: C_9  and  C_10 
REMARK    8  A    between atoms: C_10  and  C_11 
REMARK    9  A    between atoms: C_11  and  C_12 
REMARK   10  A    between atoms: C_12  and  C_13 
REMARK   11  A    between atoms: C_13  and  C_14 
REMARK   12  A    between atoms: C_14  and  C_15 
REMARK   13  A    between atoms: C_15  and  C_16 
REMARK   14  A    between atoms: C_16  and  C_17 
REMARK   15  A    between atoms: C_17  and  C_18 
REMARK   16  A    between atoms: C_18  and  O_20 
REMARK   17  A    between atoms: O_20  and  C_21 
REMARK   18  A    between atoms: C_21  and  C_22 
REMARK   19  A    between atoms: C_21  and  C_24 
REMARK   20  A    between atoms: C_22  and  O_23 
REMARK   21  A    between atoms: C_25  and  O_30 
REMARK   22  A    between atoms: C_26  and  O_29 
ROOT
HETATM    1  C   UNL     1     -32.282  -4.012 -17.398  1.00  0.00     0.111 C 
ENDROOT
BRANCH   1   2
HETATM    2  C   UNL     1     -33.551  -3.745 -16.589  1.00  0.00     0.010 C 
BRANCH   2   3
HETATM    3  C   UNL     1     -34.315  -2.534 -17.120  1.00  0.00     0.000 C 
BRANCH   3   4
HETATM    4  C   UNL     1     -35.180  -1.925 -16.020  1.00  0.00     0.000 C 
BRANCH   4   5
HETATM    5  C   UNL     1     -36.094  -0.835 -16.568  1.00  0.00     0.000 C 
BRANCH   5   6
HETATM    6  C   UNL     1     -36.276   0.275 -15.539  1.00  0.00     0.000 C 
BRANCH   6   7
HETATM    7  C   UNL     1     -34.933   0.689 -14.949  1.00  0.00     0.000 C 
BRANCH   7   8
HETATM    8  C   UNL     1     -35.021   0.774 -13.430  1.00  0.00     0.000 C 
BRANCH   8   9
HETATM    9  C   UNL     1     -36.229   0.001 -12.922  1.00  0.00     0.000 C 
BRANCH   9  10
HETATM   10  C   UNL     1     -35.817  -0.961 -11.815  1.00  0.00     0.000 C 
BRANCH  10  11
HETATM   11  C   UNL     1     -34.639  -1.812 -12.265  1.00  0.00     0.000 C 
BRANCH  11  12
HETATM   12  C   UNL     1     -33.672  -2.056 -11.112  1.00  0.00     0.000 C 
BRANCH  12  13
HETATM   13  C   UNL     1     -33.098  -3.464 -11.209  1.00  0.00     0.000 C 
BRANCH  13  14
HETATM   14  C   UNL     1     -33.933  -4.462 -10.411  1.00  0.00     0.004 C 
BRANCH  14  15
HETATM   15  C   UNL     1     -34.081  -5.820 -11.122  1.00  0.00    -0.023 C 
HETATM   16  C   UNL     1     -34.682  -6.841 -10.157  1.00  0.00     0.009 C 
HETATM   17  C   UNL     1     -34.939  -5.729 -12.382  1.00  0.00     0.009 C 
ENDBRANCH  14  15
ENDBRANCH  13  14
ENDBRANCH  12  13
ENDBRANCH  11  12
ENDBRANCH  10  11
ENDBRANCH   9  10
ENDBRANCH   8   9
ENDBRANCH   7   8
ENDBRANCH   6   7
ENDBRANCH   5   6
ENDBRANCH   4   5
ENDBRANCH   3   4
ENDBRANCH   2   3
ENDBRANCH   1   2
BRANCH   1  18
HETATM   18  C   UNL     1     -31.270  -4.805 -16.602  1.00  0.00     0.259 C 
HETATM   19  O   UNL     1     -31.214  -4.832 -15.382  1.00  0.00    -0.265 OA
BRANCH  18  20
HETATM   20  O   UNL     1     -30.362  -5.375 -17.452  1.00  0.00    -0.311 OA
BRANCH  20  21
HETATM   21  C   UNL     1     -30.196  -6.808 -17.325  1.00  0.00     0.187 C 
BRANCH  21  22
HETATM   22  C   UNL     1     -30.847  -7.621 -18.475  1.00  0.00     0.199 C 
BRANCH  22  23
HETATM   23  O   UNL     1     -29.985  -8.585 -19.090  1.00  0.00    -0.398 OA
HETATM   24  H   UNL     1     -29.719  -9.202 -18.380  1.00  0.00     0.209 HD
ENDBRANCH  22  23
ENDBRANCH  21  22
BRANCH  21  25
HETATM   25  C   UNL     1     -28.694  -7.133 -17.131  1.00  0.00     0.184 C 
HETATM   26  C   UNL     1     -28.111  -6.789 -15.751  1.00  0.00     0.180 C 
HETATM   27  C   UNL     1     -26.783  -6.102 -16.041  1.00  0.00     0.173 C 
HETATM   28  C   UNL     1     -26.565  -6.343 -17.518  1.00  0.00     0.202 C 
HETATM   29  O   UNL     1     -27.860  -6.467 -18.097  1.00  0.00    -0.378 OA
BRANCH  26  30
HETATM   30  O   UNL     1     -27.772  -7.989 -15.022  1.00  0.00    -0.390 OA
HETATM   31  H   UNL     1     -28.571  -8.236 -14.510  1.00  0.00     0.210 HD
ENDBRANCH  26  30
BRANCH  27  32
HETATM   32  O   UNL     1     -25.736  -6.684 -15.271  1.00  0.00    -0.391 OA
HETATM   33  H   UNL     1     -25.665  -7.612 -15.588  1.00  0.00     0.210 HD
ENDBRANCH  27  32
ENDBRANCH  21  25
ENDBRANCH  20  21
ENDBRANCH  18  20
ENDBRANCH   1  18
TORSDOF 22
ENDMDL
MODEL 9
REMARK VINA RESULT:      -6.6      1.996      3.358
REMARK  22 active torsions:
REMARK  status: ('A' for Active; 'I' for Inactive)
REMARK    1  A    between atoms: C_2  and  C_4 
REMARK    2  A    between atoms: C_4  and  C_5 
REMARK    3  A    between atoms: C_5  and  C_6 
REMARK    4  A    between atoms: C_6  and  C_7 
REMARK    5  A    between atoms: C_7  and  C_8 
REMARK    6  A    between atoms: C_8  and  C_9 
REMARK    7  A    between atoms: C_9  and  C_10 
REMARK    8  A    between atoms: C_10  and  C_11 
REMARK    9  A    between atoms: C_11  and  C_12 
REMARK   10  A    between atoms: C_12  and  C_13 
REMARK   11  A    between atoms: C_13  and  C_14 
REMARK   12  A    between atoms: C_14  and  C_15 
REMARK   13  A    between atoms: C_15  and  C_16 
REMARK   14  A    between atoms: C_16  and  C_17 
REMARK   15  A    between atoms: C_17  and  C_18 
REMARK   16  A    between atoms: C_18  and  O_20 
REMARK   17  A    between atoms: O_20  and  C_21 
REMARK   18  A    between atoms: C_21  and  C_22 
REMARK   19  A    between atoms: C_21  and  C_24 
REMARK   20  A    between atoms: C_22  and  O_23 
REMARK   21  A    between atoms: C_25  and  O_30 
REMARK   22  A    between atoms: C_26  and  O_29 
ROOT
HETATM    1  C   UNL     1     -21.651  -5.824  -7.220  1.00  0.00     0.111 C 
ENDROOT
BRANCH   1   2
HETATM    2  C   UNL     1     -20.327  -6.191  -6.552  1.00  0.00     0.010 C 
BRANCH   2   3
HETATM    3  C   UNL     1     -20.531  -6.671  -5.117  1.00  0.00     0.000 C 
BRANCH   3   4
HETATM    4  C   UNL     1     -20.102  -8.129  -4.977  1.00  0.00     0.000 C 
BRANCH   4   5
HETATM    5  C   UNL     1     -20.382  -8.661  -3.576  1.00  0.00     0.000 C 
BRANCH   5   6
HETATM    6  C   UNL     1     -21.147  -7.626  -2.757  1.00  0.00     0.000 C 
BRANCH   6   7
HETATM    7  C   UNL     1     -20.829  -7.771  -1.274  1.00  0.00     0.000 C 
BRANCH   7   8
HETATM    8  C   UNL     1     -22.058  -7.449  -0.431  1.00  0.00     0.000 C 
BRANCH   8   9
HETATM    9  C   UNL     1     -22.362  -8.593   0.525  1.00  0.00     0.000 C 
BRANCH   9  10
HETATM   10  C   UNL     1     -23.506  -9.444  -0.009  1.00  0.00     0.000 C 
BRANCH  10  11
HETATM   11  C   UNL     1     -22.964 -10.706  -0.664  1.00  0.00     0.000 C 
BRANCH  11  12
HETATM   12  C   UNL     1     -23.914 -11.879  -0.455  1.00  0.00     0.000 C 
BRANCH  12  13
HETATM   13  C   UNL     1     -23.122 -13.124  -0.071  1.00  0.00     0.000 C 
BRANCH  13  14
HETATM   14  C   UNL     1     -22.209 -12.858   1.123  1.00  0.00     0.004 C 
BRANCH  14  15
HETATM   15  C   UNL     1     -22.255 -13.984   2.172  1.00  0.00    -0.023 C 
HETATM   16  C   UNL     1     -23.705 -14.247   2.578  1.00  0.00     0.009 C 
HETATM   17  C   UNL     1     -21.614 -15.276   1.670  1.00  0.00     0.009 C 
ENDBRANCH  14  15
ENDBRANCH  13  14
ENDBRANCH  12  13
ENDBRANCH  11  12
ENDBRANCH  10  11
ENDBRANCH   9  10
ENDBRANCH   8   9
ENDBRANCH   7   8
ENDBRANCH   6   7
ENDBRANCH   5   6
ENDBRANCH   4   5
ENDBRANCH   3   4
ENDBRANCH   2   3
ENDBRANCH   1   2
BRANCH   1  18
HETATM   18  C   UNL     1     -21.662  -4.386  -7.687  1.00  0.00     0.259 C 
HETATM   19  O   UNL     1     -21.192  -3.449  -7.058  1.00  0.00    -0.265 OA
BRANCH  18  20
HETATM   20  O   UNL     1     -22.382  -4.283  -8.844  1.00  0.00    -0.311 OA
BRANCH  20  21
HETATM   21  C   UNL     1     -21.703  -3.643  -9.952  1.00  0.00     0.187 C 
BRANCH  21  22
HETATM   22  C   UNL     1     -20.759  -4.586 -10.743  1.00  0.00     0.199 C 
BRANCH  22  23
HETATM   23  O   UNL     1     -19.919  -3.931 -11.699  1.00  0.00    -0.398 OA
HETATM   24  H   UNL     1     -19.022  -3.929 -11.314  1.00  0.00     0.209 HD
ENDBRANCH  22  23
ENDBRANCH  21  22
BRANCH  21  25
HETATM   25  C   UNL     1     -22.749  -2.940 -10.855  1.00  0.00     0.184 C 
HETATM   26  C   UNL     1     -24.013  -3.757 -11.167  1.00  0.00     0.180 C 
HETATM   27  C   UNL     1     -24.242  -3.577 -12.663  1.00  0.00     0.173 C 
HETATM   28  C   UNL     1     -23.283  -2.473 -13.046  1.00  0.00     0.202 C 
HETATM   29  O   UNL     1     -22.199  -2.549 -12.126  1.00  0.00    -0.378 OA
BRANCH  26  30
HETATM   30  O   UNL     1     -25.171  -3.176 -10.528  1.00  0.00    -0.390 OA
HETATM   31  H   UNL     1     -24.902  -2.281 -10.231  1.00  0.00     0.210 HD
ENDBRANCH  26  30
BRANCH  27  32
HETATM   32  O   UNL     1     -25.589  -3.194 -12.924  1.00  0.00    -0.391 OA
HETATM   33  H   UNL     1     -25.760  -3.460 -13.855  1.00  0.00     0.210 HD
ENDBRANCH  27  32
ENDBRANCH  21  25
ENDBRANCH  20  21
ENDBRANCH  18  20
ENDBRANCH   1  18
TORSDOF 22
ENDMDL
