MODEL 1
REMARK VINA RESULT:      -7.5      0.000      0.000
REMARK  18 active torsions:
REMARK  status: ('A' for Active; 'I' for Inactive)
REMARK    1  A    between atoms: C_2  and  C_4 
REMARK    2  A    between atoms: C_4  and  C_5 
REMARK    3  A    between atoms: C_5  and  C_6 
REMARK    4  A    between atoms: C_6  and  C_7 
REMARK    5  A    between atoms: C_7  and  C_8 
REMARK    6  A    between atoms: C_8  and  C_9 
REMARK    7  A    between atoms: C_9  and  C_10 
REMARK    8  A    between atoms: C_10  and  C_11 
REMARK    9  A    between atoms: C_11  and  C_12 
REMARK   10  A    between atoms: C_12  and  C_13 
REMARK   11  A    between atoms: C_13  and  C_14 
REMARK   12  A    between atoms: C_14  and  C_15 
REMARK   13  A    between atoms: C_15  and  C_16 
REMARK   14  A    between atoms: C_16  and  C_17 
REMARK   15  A    between atoms: C_17  and  C_18 
REMARK       I    between atoms: C_18  and  N_20 
REMARK   16  A    between atoms: N_20  and  C_21 
REMARK   17  A    between atoms: C_21  and  C_22 
REMARK   18  A    between atoms: C_22  and  O_24 
ROOT
HETATM    1  C   UNL     1     -19.973  -5.899  -6.850  1.00  0.00     0.000 C 
ENDROOT
BRANCH   1   2
HETATM    2  C   UNL     1     -21.231  -6.186  -6.045  1.00  0.00     0.000 C 
BRANCH   2   3
HETATM    3  C   UNL     1     -20.985  -5.917  -4.568  1.00  0.00     0.000 C 
BRANCH   3   4
HETATM    4  C   UNL     1     -22.091  -6.533  -3.729  1.00  0.00     0.000 C 
BRANCH   4   5
HETATM    5  C   UNL     1     -21.510  -7.167  -2.476  1.00  0.00     0.000 C 
BRANCH   5   6
HETATM    6  C   UNL     1     -22.271  -6.689  -1.252  1.00  0.00     0.000 C 
BRANCH   6   7
HETATM    7  C   UNL     1     -21.966  -7.587  -0.066  1.00  0.00     0.000 C 
BRANCH   7   8
HETATM    8  C   UNL     1     -23.163  -8.472   0.251  1.00  0.00     0.000 C 
BRANCH   8   9
HETATM    9  C   UNL     1     -22.935  -9.858  -0.331  1.00  0.00     0.000 C 
BRANCH   9  10
HETATM   10  C   UNL     1     -24.129 -10.771  -0.070  1.00  0.00     0.004 C 
BRANCH  10  11
HETATM   11  C   UNL     1     -23.801 -12.251  -0.321  1.00  0.00    -0.023 C 
HETATM   12  C   UNL     1     -22.803 -12.364  -1.473  1.00  0.00     0.009 C 
HETATM   13  C   UNL     1     -23.239 -12.941   0.924  1.00  0.00     0.009 C 
ENDBRANCH  10  11
ENDBRANCH   9  10
ENDBRANCH   8   9
ENDBRANCH   7   8
ENDBRANCH   6   7
ENDBRANCH   5   6
ENDBRANCH   4   5
ENDBRANCH   3   4
ENDBRANCH   2   3
ENDBRANCH   1   2
BRANCH   1  14
HETATM   14  C   UNL     1     -20.317  -5.120  -8.111  1.00  0.00     0.000 C 
BRANCH  14  15
HETATM   15  C   UNL     1     -21.431  -4.111  -7.846  1.00  0.00     0.000 C 
BRANCH  15  16
HETATM   16  C   UNL     1     -22.306  -3.965  -9.085  1.00  0.00     0.009 C 
BRANCH  16  17
HETATM   17  C   UNL     1     -23.795  -3.987  -8.753  1.00  0.00     0.103 C 
BRANCH  17  18
HETATM   18  C   UNL     1     -24.616  -3.503  -9.934  1.00  0.00     0.217 C 
HETATM   19  O   UNL     1     -25.770  -3.095  -9.836  1.00  0.00    -0.274 OA
HETATM   20  N   UNL     1     -23.942  -3.546 -11.134  1.00  0.00    -0.359 N 
HETATM   21  H   UNL     1     -23.027  -3.976 -11.178  1.00  0.00     0.162 HD
BRANCH  20  22
HETATM   22  C   UNL     1     -24.591  -3.137 -12.367  1.00  0.00     0.153 C 
BRANCH  22  23
HETATM   23  C   UNL     1     -23.602  -2.867 -13.516  1.00  0.00     0.132 C 
HETATM   24  C   UNL     1     -22.176  -3.154 -13.069  1.00  0.00     0.041 C 
BRANCH  23  25
HETATM   25  O   UNL     1     -23.864  -3.732 -14.627  1.00  0.00    -0.394 OA
HETATM   26  H   UNL     1     -23.001  -3.887 -15.046  1.00  0.00     0.210 HD
ENDBRANCH  23  25
ENDBRANCH  22  23
ENDBRANCH  20  22
ENDBRANCH  17  18
ENDBRANCH  16  17
ENDBRANCH  15  16
ENDBRANCH  14  15
ENDBRANCH   1  14
TORSDOF 18
ENDMDL
MODEL 2
REMARK VINA RESULT:      -6.9      1.937      3.240
REMARK  18 active torsions:
REMARK  status: ('A' for Active; 'I' for Inactive)
REMARK    1  A    between atoms: C_2  and  C_4 
REMARK    2  A    between atoms: C_4  and  C_5 
REMARK    3  A    between atoms: C_5  and  C_6 
REMARK    4  A    between atoms: C_6  and  C_7 
REMARK    5  A    between atoms: C_7  and  C_8 
REMARK    6  A    between atoms: C_8  and  C_9 
REMARK    7  A    between atoms: C_9  and  C_10 
REMARK    8  A    between atoms: C_10  and  C_11 
REMARK    9  A    between atoms: C_11  and  C_12 
REMARK   10  A    between atoms: C_12  and  C_13 
REMARK   11  A    between atoms: C_13  and  C_14 
REMARK   12  A    between atoms: C_14  and  C_15 
REMARK   13  A    between atoms: C_15  and  C_16 
REMARK   14  A    between atoms: C_16  and  C_17 
REMARK   15  A    between atoms: C_17  and  C_18 
REMARK       I    between atoms: C_18  and  N_20 
REMARK   16  A    between atoms: N_20  and  C_21 
REMARK   17  A    between atoms: C_21  and  C_22 
REMARK   18  A    between atoms: C_22  and  O_24 
ROOT
HETATM    1  C   UNL     1     -20.960  -6.934  -4.579  1.00  0.00     0.000 C 
ENDROOT
BRANCH   1   2
HETATM    2  C   UNL     1     -22.118  -6.758  -3.606  1.00  0.00     0.000 C 
BRANCH   2   3
HETATM    3  C   UNL     1     -21.595  -6.389  -2.226  1.00  0.00     0.000 C 
BRANCH   3   4
HETATM    4  C   UNL     1     -22.233  -7.273  -1.168  1.00  0.00     0.000 C 
BRANCH   4   5
HETATM    5  C   UNL     1     -21.162  -8.031  -0.401  1.00  0.00     0.000 C 
BRANCH   5   6
HETATM    6  C   UNL     1     -21.789  -9.186   0.361  1.00  0.00     0.000 C 
BRANCH   6   7
HETATM    7  C   UNL     1     -23.266  -9.291   0.026  1.00  0.00     0.000 C 
BRANCH   7   8
HETATM    8  C   UNL     1     -23.627 -10.724  -0.338  1.00  0.00     0.000 C 
BRANCH   8   9
HETATM    9  C   UNL     1     -22.707 -11.213  -1.444  1.00  0.00     0.000 C 
BRANCH   9  10
HETATM   10  C   UNL     1     -23.143 -10.678  -2.804  1.00  0.00     0.004 C 
BRANCH  10  11
HETATM   11  C   UNL     1     -22.009 -10.712  -3.839  1.00  0.00    -0.023 C 
HETATM   12  C   UNL     1     -20.681 -10.398  -3.152  1.00  0.00     0.009 C 
HETATM   13  C   UNL     1     -21.918 -12.060  -4.557  1.00  0.00     0.009 C 
ENDBRANCH  10  11
ENDBRANCH   9  10
ENDBRANCH   8   9
ENDBRANCH   7   8
ENDBRANCH   6   7
ENDBRANCH   5   6
ENDBRANCH   4   5
ENDBRANCH   3   4
ENDBRANCH   2   3
ENDBRANCH   1   2
BRANCH   1  14
HETATM   14  C   UNL     1     -21.247  -6.204  -5.882  1.00  0.00     0.000 C 
BRANCH  14  15
HETATM   15  C   UNL     1     -20.415  -4.929  -5.991  1.00  0.00     0.000 C 
BRANCH  15  16
HETATM   16  C   UNL     1     -20.975  -4.035  -7.090  1.00  0.00     0.009 C 
BRANCH  16  17
HETATM   17  C   UNL     1     -20.069  -3.981  -8.317  1.00  0.00     0.103 C 
BRANCH  17  18
HETATM   18  C   UNL     1     -20.850  -4.309  -9.576  1.00  0.00     0.217 C 
HETATM   19  O   UNL     1     -20.328  -4.706 -10.614  1.00  0.00    -0.274 OA
HETATM   20  N   UNL     1     -22.210  -4.135  -9.448  1.00  0.00    -0.359 N 
HETATM   21  H   UNL     1     -22.583  -3.718  -8.605  1.00  0.00     0.162 HD
BRANCH  20  22
HETATM   22  C   UNL     1     -23.101  -4.384 -10.567  1.00  0.00     0.153 C 
BRANCH  22  23
HETATM   23  C   UNL     1     -24.008  -3.186 -10.902  1.00  0.00     0.132 C 
HETATM   24  C   UNL     1     -24.322  -3.156 -12.390  1.00  0.00     0.041 C 
BRANCH  23  25
HETATM   25  O   UNL     1     -25.263  -3.292 -10.221  1.00  0.00    -0.394 OA
HETATM   26  H   UNL     1     -25.936  -3.032 -10.873  1.00  0.00     0.210 HD
ENDBRANCH  23  25
ENDBRANCH  22  23
ENDBRANCH  20  22
ENDBRANCH  17  18
ENDBRANCH  16  17
ENDBRANCH  15  16
ENDBRANCH  14  15
ENDBRANCH   1  14
TORSDOF 18
ENDMDL
MODEL 3
REMARK VINA RESULT:      -6.9      1.492      2.419
REMARK  18 active torsions:
REMARK  status: ('A' for Active; 'I' for Inactive)
REMARK    1  A    between atoms: C_2  and  C_4 
REMARK    2  A    between atoms: C_4  and  C_5 
REMARK    3  A    between atoms: C_5  and  C_6 
REMARK    4  A    between atoms: C_6  and  C_7 
REMARK    5  A    between atoms: C_7  and  C_8 
REMARK    6  A    between atoms: C_8  and  C_9 
REMARK    7  A    between atoms: C_9  and  C_10 
REMARK    8  A    between atoms: C_10  and  C_11 
REMARK    9  A    between atoms: C_11  and  C_12 
REMARK   10  A    between atoms: C_12  and  C_13 
REMARK   11  A    between atoms: C_13  and  C_14 
REMARK   12  A    between atoms: C_14  and  C_15 
REMARK   13  A    between atoms: C_15  and  C_16 
REMARK   14  A    between atoms: C_16  and  C_17 
REMARK   15  A    between atoms: C_17  and  C_18 
REMARK       I    between atoms: C_18  and  N_20 
REMARK   16  A    between atoms: N_20  and  C_21 
REMARK   17  A    between atoms: C_21  and  C_22 
REMARK   18  A    between atoms: C_22  and  O_24 
ROOT
HETATM    1  C   UNL     1     -21.471  -7.119  -5.590  1.00  0.00     0.000 C 
ENDROOT
BRANCH   1   2
HETATM    2  C   UNL     1     -20.988  -7.683  -4.261  1.00  0.00     0.000 C 
BRANCH   2   3
HETATM    3  C   UNL     1     -21.445  -6.796  -3.114  1.00  0.00     0.000 C 
BRANCH   3   4
HETATM    4  C   UNL     1     -21.217  -7.495  -1.785  1.00  0.00     0.000 C 
BRANCH   4   5
HETATM    5  C   UNL     1     -22.199  -6.981  -0.745  1.00  0.00     0.000 C 
BRANCH   5   6
HETATM    6  C   UNL     1     -22.285  -7.958   0.415  1.00  0.00     0.000 C 
BRANCH   6   7
HETATM    7  C   UNL     1     -23.525  -8.823   0.276  1.00  0.00     0.000 C 
BRANCH   7   8
HETATM    8  C   UNL     1     -23.191 -10.114  -0.459  1.00  0.00     0.000 C 
BRANCH   8   9
HETATM    9  C   UNL     1     -24.169 -11.201  -0.044  1.00  0.00     0.000 C 
BRANCH   9  10
HETATM   10  C   UNL     1     -23.522 -12.581  -0.105  1.00  0.00     0.004 C 
BRANCH  10  11
HETATM   11  C   UNL     1     -22.671 -12.884   1.137  1.00  0.00    -0.023 C 
HETATM   12  C   UNL     1     -23.374 -13.938   1.992  1.00  0.00     0.009 C 
HETATM   13  C   UNL     1     -21.264 -13.362   0.775  1.00  0.00     0.009 C 
ENDBRANCH  10  11
ENDBRANCH   9  10
ENDBRANCH   8   9
ENDBRANCH   7   8
ENDBRANCH   6   7
ENDBRANCH   5   6
ENDBRANCH   4   5
ENDBRANCH   3   4
ENDBRANCH   2   3
ENDBRANCH   1   2
BRANCH   1  14
HETATM   14  C   UNL     1     -21.069  -5.658  -5.722  1.00  0.00     0.000 C 
BRANCH  14  15
HETATM   15  C   UNL     1     -19.969  -5.484  -6.766  1.00  0.00     0.000 C 
BRANCH  15  16
HETATM   16  C   UNL     1     -20.287  -4.293  -7.662  1.00  0.00     0.009 C 
BRANCH  16  17
HETATM   17  C   UNL     1     -21.711  -3.781  -7.468  1.00  0.00     0.103 C 
BRANCH  17  18
HETATM   18  C   UNL     1     -22.514  -3.929  -8.748  1.00  0.00     0.217 C 
HETATM   19  O   UNL     1     -23.709  -3.662  -8.832  1.00  0.00    -0.274 OA
HETATM   20  N   UNL     1     -21.774  -4.378  -9.819  1.00  0.00    -0.359 N 
HETATM   21  H   UNL     1     -20.817  -4.672  -9.676  1.00  0.00     0.162 HD
BRANCH  20  22
HETATM   22  C   UNL     1     -22.395  -4.594 -11.113  1.00  0.00     0.153 C 
BRANCH  22  23
HETATM   23  C   UNL     1     -21.998  -3.540 -12.163  1.00  0.00     0.132 C 
HETATM   24  C   UNL     1     -23.155  -2.588 -12.425  1.00  0.00     0.041 C 
BRANCH  23  25
HETATM   25  O   UNL     1     -20.908  -2.739 -11.691  1.00  0.00    -0.394 OA
HETATM   26  H   UNL     1     -20.140  -3.334 -11.665  1.00  0.00     0.210 HD
ENDBRANCH  23  25
ENDBRANCH  22  23
ENDBRANCH  20  22
ENDBRANCH  17  18
ENDBRANCH  16  17
ENDBRANCH  15  16
ENDBRANCH  14  15
ENDBRANCH   1  14
TORSDOF 18
ENDMDL
MODEL 4
REMARK VINA RESULT:      -6.9      1.607      2.196
REMARK  18 active torsions:
REMARK  status: ('A' for Active; 'I' for Inactive)
REMARK    1  A    between atoms: C_2  and  C_4 
REMARK    2  A    between atoms: C_4  and  C_5 
REMARK    3  A    between atoms: C_5  and  C_6 
REMARK    4  A    between atoms: C_6  and  C_7 
REMARK    5  A    between atoms: C_7  and  C_8 
REMARK    6  A    between atoms: C_8  and  C_9 
REMARK    7  A    between atoms: C_9  and  C_10 
REMARK    8  A    between atoms: C_10  and  C_11 
REMARK    9  A    between atoms: C_11  and  C_12 
REMARK   10  A    between atoms: C_12  and  C_13 
REMARK   11  A    between atoms: C_13  and  C_14 
REMARK   12  A    between atoms: C_14  and  C_15 
REMARK   13  A    between atoms: C_15  and  C_16 
REMARK   14  A    between atoms: C_16  and  C_17 
REMARK   15  A    between atoms: C_17  and  C_18 
REMARK       I    between atoms: C_18  and  N_20 
REMARK   16  A    between atoms: N_20  and  C_21 
REMARK   17  A    between atoms: C_21  and  C_22 
REMARK   18  A    between atoms: C_22  and  O_24 
ROOT
HETATM    1  C   UNL     1     -20.787  -5.340  -5.768  1.00  0.00     0.000 C 
ENDROOT
BRANCH   1   2
HETATM    2  C   UNL     1     -20.946  -6.707  -5.119  1.00  0.00     0.000 C 
BRANCH   2   3
HETATM    3  C   UNL     1     -21.325  -6.554  -3.654  1.00  0.00     0.000 C 
BRANCH   3   4
HETATM    4  C   UNL     1     -21.348  -7.911  -2.972  1.00  0.00     0.000 C 
BRANCH   4   5
HETATM    5  C   UNL     1     -21.153  -7.750  -1.473  1.00  0.00     0.000 C 
BRANCH   5   6
HETATM    6  C   UNL     1     -22.353  -7.044  -0.866  1.00  0.00     0.000 C 
BRANCH   6   7
HETATM    7  C   UNL     1     -22.885  -7.842   0.311  1.00  0.00     0.000 C 
BRANCH   7   8
HETATM    8  C   UNL     1     -22.464  -9.300   0.198  1.00  0.00     0.000 C 
BRANCH   8   9
HETATM    9  C   UNL     1     -23.691 -10.164  -0.048  1.00  0.00     0.000 C 
BRANCH   9  10
HETATM   10  C   UNL     1     -23.347 -11.648   0.022  1.00  0.00     0.004 C 
BRANCH  10  11
HETATM   11  C   UNL     1     -23.821 -12.419  -1.219  1.00  0.00    -0.023 C 
HETATM   12  C   UNL     1     -22.689 -12.485  -2.243  1.00  0.00     0.009 C 
HETATM   13  C   UNL     1     -24.298 -13.832  -0.878  1.00  0.00     0.009 C 
ENDBRANCH  10  11
ENDBRANCH   9  10
ENDBRANCH   8   9
ENDBRANCH   7   8
ENDBRANCH   6   7
ENDBRANCH   5   6
ENDBRANCH   4   5
ENDBRANCH   3   4
ENDBRANCH   2   3
ENDBRANCH   1   2
BRANCH   1  14
HETATM   14  C   UNL     1     -19.746  -5.396  -6.876  1.00  0.00     0.000 C 
BRANCH  14  15
HETATM   15  C   UNL     1     -19.933  -4.248  -7.864  1.00  0.00     0.000 C 
BRANCH  15  16
HETATM   16  C   UNL     1     -20.867  -4.677  -8.989  1.00  0.00     0.009 C 
BRANCH  16  17
HETATM   17  C   UNL     1     -20.177  -4.682 -10.349  1.00  0.00     0.103 C 
BRANCH  17  18
HETATM   18  C   UNL     1     -20.810  -3.660 -11.276  1.00  0.00     0.217 C 
HETATM   19  O   UNL     1     -20.417  -2.502 -11.378  1.00  0.00    -0.274 OA
HETATM   20  N   UNL     1     -21.864  -4.156 -12.011  1.00  0.00    -0.359 N 
HETATM   21  H   UNL     1     -22.209  -5.088 -11.824  1.00  0.00     0.162 HD
BRANCH  20  22
HETATM   22  C   UNL     1     -22.594  -3.303 -12.932  1.00  0.00     0.153 C 
BRANCH  22  23
HETATM   23  C   UNL     1     -24.110  -3.274 -12.662  1.00  0.00     0.132 C 
HETATM   24  C   UNL     1     -24.384  -3.210 -11.167  1.00  0.00     0.041 C 
BRANCH  23  25
HETATM   25  O   UNL     1     -24.706  -2.105 -13.238  1.00  0.00    -0.394 OA
HETATM   26  H   UNL     1     -25.661  -2.285 -13.261  1.00  0.00     0.210 HD
ENDBRANCH  23  25
ENDBRANCH  22  23
ENDBRANCH  20  22
ENDBRANCH  17  18
ENDBRANCH  16  17
ENDBRANCH  15  16
ENDBRANCH  14  15
ENDBRANCH   1  14
TORSDOF 18
ENDMDL
MODEL 5
REMARK VINA RESULT:      -6.8      1.770      3.258
REMARK  18 active torsions:
REMARK  status: ('A' for Active; 'I' for Inactive)
REMARK    1  A    between atoms: C_2  and  C_4 
REMARK    2  A    between atoms: C_4  and  C_5 
REMARK    3  A    between atoms: C_5  and  C_6 
REMARK    4  A    between atoms: C_6  and  C_7 
REMARK    5  A    between atoms: C_7  and  C_8 
REMARK    6  A    between atoms: C_8  and  C_9 
REMARK    7  A    between atoms: C_9  and  C_10 
REMARK    8  A    between atoms: C_10  and  C_11 
REMARK    9  A    between atoms: C_11  and  C_12 
REMARK   10  A    between atoms: C_12  and  C_13 
REMARK   11  A    between atoms: C_13  and  C_14 
REMARK   12  A    between atoms: C_14  and  C_15 
REMARK   13  A    between atoms: C_15  and  C_16 
REMARK   14  A    between atoms: C_16  and  C_17 
REMARK   15  A    between atoms: C_17  and  C_18 
REMARK       I    between atoms: C_18  and  N_20 
REMARK   16  A    between atoms: N_20  and  C_21 
REMARK   17  A    between atoms: C_21  and  C_22 
REMARK   18  A    between atoms: C_22  and  O_24 
ROOT
HETATM    1  C   UNL     1     -19.834  -5.710  -6.668  1.00  0.00     0.000 C 
ENDROOT
BRANCH   1   2
HETATM    2  C   UNL     1     -20.596  -4.977  -5.573  1.00  0.00     0.000 C 
BRANCH   2   3
HETATM    3  C   UNL     1     -21.060  -5.957  -4.507  1.00  0.00     0.000 C 
BRANCH   3   4
HETATM    4  C   UNL     1     -21.316  -7.322  -5.123  1.00  0.00     0.000 C 
BRANCH   4   5
HETATM    5  C   UNL     1     -21.796  -8.297  -4.060  1.00  0.00     0.000 C 
BRANCH   5   6
HETATM    6  C   UNL     1     -21.418  -9.716  -4.449  1.00  0.00     0.000 C 
BRANCH   6   7
HETATM    7  C   UNL     1     -22.208 -10.711  -3.618  1.00  0.00     0.000 C 
BRANCH   7   8
HETATM    8  C   UNL     1     -21.920 -10.512  -2.137  1.00  0.00     0.000 C 
BRANCH   8   9
HETATM    9  C   UNL     1     -23.218 -10.606  -1.351  1.00  0.00     0.000 C 
BRANCH   9  10
HETATM   10  C   UNL     1     -23.157  -9.769  -0.078  1.00  0.00     0.004 C 
BRANCH  10  11
HETATM   11  C   UNL     1     -22.024  -8.732  -0.111  1.00  0.00    -0.023 C 
HETATM   12  C   UNL     1     -22.611  -7.343  -0.360  1.00  0.00     0.009 C 
HETATM   13  C   UNL     1     -21.203  -8.727   1.179  1.00  0.00     0.009 C 
ENDBRANCH  10  11
ENDBRANCH   9  10
ENDBRANCH   8   9
ENDBRANCH   7   8
ENDBRANCH   6   7
ENDBRANCH   5   6
ENDBRANCH   4   5
ENDBRANCH   3   4
ENDBRANCH   2   3
ENDBRANCH   1   2
BRANCH   1  14
HETATM   14  C   UNL     1     -19.188  -4.715  -7.621  1.00  0.00     0.000 C 
BRANCH  14  15
HETATM   15  C   UNL     1     -20.225  -4.098  -8.555  1.00  0.00     0.000 C 
BRANCH  15  16
HETATM   16  C   UNL     1     -19.965  -4.545  -9.988  1.00  0.00     0.009 C 
BRANCH  16  17
HETATM   17  C   UNL     1     -20.373  -3.490 -11.011  1.00  0.00     0.103 C 
BRANCH  17  18
HETATM   18  C   UNL     1     -21.871  -3.524 -11.251  1.00  0.00     0.217 C 
HETATM   19  O   UNL     1     -22.499  -2.596 -11.753  1.00  0.00    -0.274 OA
HETATM   20  N   UNL     1     -22.467  -4.705 -10.868  1.00  0.00    -0.359 N 
HETATM   21  H   UNL     1     -21.925  -5.402 -10.376  1.00  0.00     0.162 HD
BRANCH  20  22
HETATM   22  C   UNL     1     -23.900  -4.895 -11.010  1.00  0.00     0.153 C 
BRANCH  22  23
HETATM   23  C   UNL     1     -24.706  -4.377  -9.805  1.00  0.00     0.132 C 
HETATM   24  C   UNL     1     -23.792  -4.156  -8.609  1.00  0.00     0.041 C 
BRANCH  23  25
HETATM   25  O   UNL     1     -25.305  -3.110 -10.100  1.00  0.00    -0.394 OA
HETATM   26  H   UNL     1     -25.945  -3.285 -10.811  1.00  0.00     0.210 HD
ENDBRANCH  23  25
ENDBRANCH  22  23
ENDBRANCH  20  22
ENDBRANCH  17  18
ENDBRANCH  16  17
ENDBRANCH  15  16
ENDBRANCH  14  15
ENDBRANCH   1  14
TORSDOF 18
ENDMDL
MODEL 6
REMARK VINA RESULT:      -6.8      2.156      3.120
REMARK  18 active torsions:
REMARK  status: ('A' for Active; 'I' for Inactive)
REMARK    1  A    between atoms: C_2  and  C_4 
REMARK    2  A    between atoms: C_4  and  C_5 
REMARK    3  A    between atoms: C_5  and  C_6 
REMARK    4  A    between atoms: C_6  and  C_7 
REMARK    5  A    between atoms: C_7  and  C_8 
REMARK    6  A    between atoms: C_8  and  C_9 
REMARK    7  A    between atoms: C_9  and  C_10 
REMARK    8  A    between atoms: C_10  and  C_11 
REMARK    9  A    between atoms: C_11  and  C_12 
REMARK   10  A    between atoms: C_12  and  C_13 
REMARK   11  A    between atoms: C_13  and  C_14 
REMARK   12  A    between atoms: C_14  and  C_15 
REMARK   13  A    between atoms: C_15  and  C_16 
REMARK   14  A    between atoms: C_16  and  C_17 
REMARK   15  A    between atoms: C_17  and  C_18 
REMARK       I    between atoms: C_18  and  N_20 
REMARK   16  A    between atoms: N_20  and  C_21 
REMARK   17  A    between atoms: C_21  and  C_22 
REMARK   18  A    between atoms: C_22  and  O_24 
ROOT
HETATM    1  C   UNL     1     -21.380  -8.131  -5.558  1.00  0.00     0.000 C 
ENDROOT
BRANCH   1   2
HETATM    2  C   UNL     1     -20.897  -9.518  -5.161  1.00  0.00     0.000 C 
BRANCH   2   3
HETATM    3  C   UNL     1     -19.713  -9.412  -4.211  1.00  0.00     0.000 C 
BRANCH   3   4
HETATM    4  C   UNL     1     -20.127  -9.817  -2.807  1.00  0.00     0.000 C 
BRANCH   4   5
HETATM    5  C   UNL     1     -19.688  -8.763  -1.804  1.00  0.00     0.000 C 
BRANCH   5   6
HETATM    6  C   UNL     1     -20.511  -7.499  -1.986  1.00  0.00     0.000 C 
BRANCH   6   7
HETATM    7  C   UNL     1     -21.971  -7.780  -1.680  1.00  0.00     0.000 C 
BRANCH   7   8
HETATM    8  C   UNL     1     -22.282  -7.447  -0.228  1.00  0.00     0.000 C 
BRANCH   8   9
HETATM    9  C   UNL     1     -22.414  -8.735   0.570  1.00  0.00     0.000 C 
BRANCH   9  10
HETATM   10  C   UNL     1     -23.509  -9.630   0.001  1.00  0.00     0.004 C 
BRANCH  10  11
HETATM   11  C   UNL     1     -22.968 -10.982  -0.486  1.00  0.00    -0.023 C 
HETATM   12  C   UNL     1     -23.542 -12.103   0.381  1.00  0.00     0.009 C 
HETATM   13  C   UNL     1     -23.293 -11.244  -1.957  1.00  0.00     0.009 C 
ENDBRANCH  10  11
ENDBRANCH   9  10
ENDBRANCH   8   9
ENDBRANCH   7   8
ENDBRANCH   6   7
ENDBRANCH   5   6
ENDBRANCH   4   5
ENDBRANCH   3   4
ENDBRANCH   2   3
ENDBRANCH   1   2
BRANCH   1  14
HETATM   14  C   UNL     1     -20.225  -7.141  -5.539  1.00  0.00     0.000 C 
BRANCH  14  15
HETATM   15  C   UNL     1     -20.716  -5.730  -5.229  1.00  0.00     0.000 C 
BRANCH  15  16
HETATM   16  C   UNL     1     -19.909  -4.712  -6.024  1.00  0.00     0.009 C 
BRANCH  16  17
HETATM   17  C   UNL     1     -19.768  -5.098  -7.493  1.00  0.00     0.103 C 
BRANCH  17  18
HETATM   18  C   UNL     1     -20.738  -4.307  -8.352  1.00  0.00     0.217 C 
HETATM   19  O   UNL     1     -21.783  -3.824  -7.925  1.00  0.00    -0.274 OA
HETATM   20  N   UNL     1     -20.331  -4.163  -9.660  1.00  0.00    -0.359 N 
HETATM   21  H   UNL     1     -19.510  -4.656  -9.985  1.00  0.00     0.162 HD
BRANCH  20  22
HETATM   22  C   UNL     1     -21.154  -3.450 -10.620  1.00  0.00     0.153 C 
BRANCH  22  23
HETATM   23  C   UNL     1     -21.825  -4.375 -11.653  1.00  0.00     0.132 C 
HETATM   24  C   UNL     1     -23.280  -4.618 -11.284  1.00  0.00     0.041 C 
BRANCH  23  25
HETATM   25  O   UNL     1     -21.827  -3.771 -12.951  1.00  0.00    -0.394 OA
HETATM   26  H   UNL     1     -21.723  -2.817 -12.794  1.00  0.00     0.210 HD
ENDBRANCH  23  25
ENDBRANCH  22  23
ENDBRANCH  20  22
ENDBRANCH  17  18
ENDBRANCH  16  17
ENDBRANCH  15  16
ENDBRANCH  14  15
ENDBRANCH   1  14
TORSDOF 18
ENDMDL
MODEL 7
REMARK VINA RESULT:      -6.8      2.156      3.189
REMARK  18 active torsions:
REMARK  status: ('A' for Active; 'I' for Inactive)
REMARK    1  A    between atoms: C_2  and  C_4 
REMARK    2  A    between atoms: C_4  and  C_5 
REMARK    3  A    between atoms: C_5  and  C_6 
REMARK    4  A    between atoms: C_6  and  C_7 
REMARK    5  A    between atoms: C_7  and  C_8 
REMARK    6  A    between atoms: C_8  and  C_9 
REMARK    7  A    between atoms: C_9  and  C_10 
REMARK    8  A    between atoms: C_10  and  C_11 
REMARK    9  A    between atoms: C_11  and  C_12 
REMARK   10  A    between atoms: C_12  and  C_13 
REMARK   11  A    between atoms: C_13  and  C_14 
REMARK   12  A    between atoms: C_14  and  C_15 
REMARK   13  A    between atoms: C_15  and  C_16 
REMARK   14  A    between atoms: C_16  and  C_17 
REMARK   15  A    between atoms: C_17  and  C_18 
REMARK       I    between atoms: C_18  and  N_20 
REMARK   16  A    between atoms: N_20  and  C_21 
REMARK   17  A    between atoms: C_21  and  C_22 
REMARK   18  A    between atoms: C_22  and  O_24 
ROOT
HETATM    1  C   UNL     1     -20.494  -6.912  -5.712  1.00  0.00     0.000 C 
ENDROOT
BRANCH   1   2
HETATM    2  C   UNL     1     -21.759  -6.305  -5.120  1.00  0.00     0.000 C 
BRANCH   2   3
HETATM    3  C   UNL     1     -22.163  -7.056  -3.860  1.00  0.00     0.000 C 
BRANCH   3   4
HETATM    4  C   UNL     1     -21.455  -6.471  -2.649  1.00  0.00     0.000 C 
BRANCH   4   5
HETATM    5  C   UNL     1     -22.354  -6.549  -1.426  1.00  0.00     0.000 C 
BRANCH   5   6
HETATM    6  C   UNL     1     -21.773  -7.523  -0.416  1.00  0.00     0.000 C 
BRANCH   6   7
HETATM    7  C   UNL     1     -22.726  -8.686  -0.207  1.00  0.00     0.000 C 
BRANCH   7   8
HETATM    8  C   UNL     1     -21.958 -10.000  -0.165  1.00  0.00     0.000 C 
BRANCH   8   9
HETATM    9  C   UNL     1     -21.445 -10.331  -1.557  1.00  0.00     0.000 C 
BRANCH   9  10
HETATM   10  C   UNL     1     -19.926 -10.217  -1.628  1.00  0.00     0.004 C 
BRANCH  10  11
HETATM   11  C   UNL     1     -19.451  -9.483  -2.892  1.00  0.00    -0.023 C 
HETATM   12  C   UNL     1     -17.924  -9.464  -2.928  1.00  0.00     0.009 C 
HETATM   13  C   UNL     1     -19.994 -10.120  -4.172  1.00  0.00     0.009 C 
ENDBRANCH  10  11
ENDBRANCH   9  10
ENDBRANCH   8   9
ENDBRANCH   7   8
ENDBRANCH   6   7
ENDBRANCH   5   6
ENDBRANCH   4   5
ENDBRANCH   3   4
ENDBRANCH   2   3
ENDBRANCH   1   2
BRANCH   1  14
HETATM   14  C   UNL     1     -19.896  -5.978  -6.753  1.00  0.00     0.000 C 
BRANCH  14  15
HETATM   15  C   UNL     1     -20.144  -4.517  -6.387  1.00  0.00     0.000 C 
BRANCH  15  16
HETATM   16  C   UNL     1     -20.833  -3.801  -7.543  1.00  0.00     0.009 C 
BRANCH  16  17
HETATM   17  C   UNL     1     -21.387  -4.771  -8.582  1.00  0.00     0.103 C 
BRANCH  17  18
HETATM   18  C   UNL     1     -21.089  -4.282  -9.987  1.00  0.00     0.217 C 
HETATM   19  O   UNL     1     -20.129  -4.664 -10.649  1.00  0.00    -0.274 OA
HETATM   20  N   UNL     1     -22.008  -3.374 -10.465  1.00  0.00    -0.359 N 
HETATM   21  H   UNL     1     -22.729  -3.021  -9.849  1.00  0.00     0.162 HD
BRANCH  20  22
HETATM   22  C   UNL     1     -21.859  -2.791 -11.786  1.00  0.00     0.153 C 
BRANCH  22  23
HETATM   23  C   UNL     1     -23.032  -3.114 -12.731  1.00  0.00     0.132 C 
HETATM   24  C   UNL     1     -24.112  -3.888 -11.992  1.00  0.00     0.041 C 
BRANCH  23  25
HETATM   25  O   UNL     1     -23.645  -1.912 -13.210  1.00  0.00    -0.394 OA
HETATM   26  H   UNL     1     -23.624  -1.293 -12.461  1.00  0.00     0.210 HD
ENDBRANCH  23  25
ENDBRANCH  22  23
ENDBRANCH  20  22
ENDBRANCH  17  18
ENDBRANCH  16  17
ENDBRANCH  15  16
ENDBRANCH  14  15
ENDBRANCH   1  14
TORSDOF 18
ENDMDL
MODEL 8
REMARK VINA RESULT:      -6.7      1.696      3.470
REMARK  18 active torsions:
REMARK  status: ('A' for Active; 'I' for Inactive)
REMARK    1  A    between atoms: C_2  and  C_4 
REMARK    2  A    between atoms: C_4  and  C_5 
REMARK    3  A    between atoms: C_5  and  C_6 
REMARK    4  A    between atoms: C_6  and  C_7 
REMARK    5  A    between atoms: C_7  and  C_8 
REMARK    6  A    between atoms: C_8  and  C_9 
REMARK    7  A    between atoms: C_9  and  C_10 
REMARK    8  A    between atoms: C_10  and  C_11 
REMARK    9  A    between atoms: C_11  and  C_12 
REMARK   10  A    between atoms: C_12  and  C_13 
REMARK   11  A    between atoms: C_13  and  C_14 
REMARK   12  A    between atoms: C_14  and  C_15 
REMARK   13  A    between atoms: C_15  and  C_16 
REMARK   14  A    between atoms: C_16  and  C_17 
REMARK   15  A    between atoms: C_17  and  C_18 
REMARK       I    between atoms: C_18  and  N_20 
REMARK   16  A    between atoms: N_20  and  C_21 
REMARK   17  A    between atoms: C_21  and  C_22 
REMARK   18  A    between atoms: C_22  and  O_24 
ROOT
HETATM    1  C   UNL     1     -21.562  -6.473  -3.534  1.00  0.00     0.000 C 
ENDROOT
BRANCH   1   2
HETATM    2  C   UNL     1     -21.591  -7.348  -2.289  1.00  0.00     0.000 C 
BRANCH   2   3
HETATM    3  C   UNL     1     -22.210  -6.587  -1.125  1.00  0.00     0.000 C 
BRANCH   3   4
HETATM    4  C   UNL     1     -22.808  -7.557  -0.121  1.00  0.00     0.000 C 
BRANCH   4   5
HETATM    5  C   UNL     1     -21.714  -8.402   0.510  1.00  0.00     0.000 C 
BRANCH   5   6
HETATM    6  C   UNL     1     -21.983  -9.875   0.254  1.00  0.00     0.000 C 
BRANCH   6   7
HETATM    7  C   UNL     1     -23.387 -10.061  -0.293  1.00  0.00     0.000 C 
BRANCH   7   8
HETATM    8  C   UNL     1     -23.399 -11.138  -1.369  1.00  0.00     0.000 C 
BRANCH   8   9
HETATM    9  C   UNL     1     -24.114 -12.372  -0.842  1.00  0.00     0.000 C 
BRANCH   9  10
HETATM   10  C   UNL     1     -23.241 -13.615  -0.970  1.00  0.00     0.004 C 
BRANCH  10  11
HETATM   11  C   UNL     1     -23.191 -14.434   0.329  1.00  0.00    -0.023 C 
HETATM   12  C   UNL     1     -23.375 -13.502   1.526  1.00  0.00     0.009 C 
HETATM   13  C   UNL     1     -24.250 -15.537   0.361  1.00  0.00     0.009 C 
ENDBRANCH  10  11
ENDBRANCH   9  10
ENDBRANCH   8   9
ENDBRANCH   7   8
ENDBRANCH   6   7
ENDBRANCH   5   6
ENDBRANCH   4   5
ENDBRANCH   3   4
ENDBRANCH   2   3
ENDBRANCH   1   2
BRANCH   1  14
HETATM   14  C   UNL     1     -20.636  -7.074  -4.581  1.00  0.00     0.000 C 
BRANCH  14  15
HETATM   15  C   UNL     1     -21.189  -6.863  -5.988  1.00  0.00     0.000 C 
BRANCH  15  16
HETATM   16  C   UNL     1     -20.325  -5.859  -6.741  1.00  0.00     0.009 C 
BRANCH  16  17
HETATM   17  C   UNL     1     -20.961  -4.474  -6.805  1.00  0.00     0.103 C 
BRANCH  17  18
HETATM   18  C   UNL     1     -22.260  -4.514  -7.589  1.00  0.00     0.217 C 
HETATM   19  O   UNL     1     -23.370  -4.473  -7.066  1.00  0.00    -0.274 OA
HETATM   20  N   UNL     1     -22.083  -4.587  -8.953  1.00  0.00    -0.359 N 
HETATM   21  H   UNL     1     -21.152  -4.712  -9.330  1.00  0.00     0.162 HD
BRANCH  20  22
HETATM   22  C   UNL     1     -23.224  -4.654  -9.848  1.00  0.00     0.153 C 
BRANCH  22  23
HETATM   23  C   UNL     1     -23.830  -3.275 -10.167  1.00  0.00     0.132 C 
HETATM   24  C   UNL     1     -24.373  -3.248 -11.588  1.00  0.00     0.041 C 
BRANCH  23  25
HETATM   25  O   UNL     1     -24.935  -2.993  -9.301  1.00  0.00    -0.394 OA
HETATM   26  H   UNL     1     -24.675  -3.333  -8.428  1.00  0.00     0.210 HD
ENDBRANCH  23  25
ENDBRANCH  22  23
ENDBRANCH  20  22
ENDBRANCH  17  18
ENDBRANCH  16  17
ENDBRANCH  15  16
ENDBRANCH  14  15
ENDBRANCH   1  14
TORSDOF 18
ENDMDL
MODEL 9
REMARK VINA RESULT:      -6.7      4.851     10.837
REMARK  18 active torsions:
REMARK  status: ('A' for Active; 'I' for Inactive)
REMARK    1  A    between atoms: C_2  and  C_4 
REMARK    2  A    between atoms: C_4  and  C_5 
REMARK    3  A    between atoms: C_5  and  C_6 
REMARK    4  A    between atoms: C_6  and  C_7 
REMARK    5  A    between atoms: C_7  and  C_8 
REMARK    6  A    between atoms: C_8  and  C_9 
REMARK    7  A    between atoms: C_9  and  C_10 
REMARK    8  A    between atoms: C_10  and  C_11 
REMARK    9  A    between atoms: C_11  and  C_12 
REMARK   10  A    between atoms: C_12  and  C_13 
REMARK   11  A    between atoms: C_13  and  C_14 
REMARK   12  A    between atoms: C_14  and  C_15 
REMARK   13  A    between atoms: C_15  and  C_16 
REMARK   14  A    between atoms: C_16  and  C_17 
REMARK   15  A    between atoms: C_17  and  C_18 
REMARK       I    between atoms: C_18  and  N_20 
REMARK   16  A    between atoms: N_20  and  C_21 
REMARK   17  A    between atoms: C_21  and  C_22 
REMARK   18  A    between atoms: C_22  and  O_24 
ROOT
HETATM    1  C   UNL     1     -21.150  -7.039  -5.816  1.00  0.00     0.000 C 
ENDROOT
BRANCH   1   2
HETATM    2  C   UNL     1     -21.100  -5.787  -4.952  1.00  0.00     0.000 C 
BRANCH   2   3
HETATM    3  C   UNL     1     -20.139  -4.772  -5.550  1.00  0.00     0.000 C 
BRANCH   3   4
HETATM    4  C   UNL     1     -19.837  -5.122  -6.997  1.00  0.00     0.000 C 
BRANCH   4   5
HETATM    5  C   UNL     1     -20.248  -3.981  -7.912  1.00  0.00     0.000 C 
BRANCH   5   6
HETATM    6  C   UNL     1     -21.434  -4.400  -8.764  1.00  0.00     0.000 C 
BRANCH   6   7
HETATM    7  C   UNL     1     -22.723  -4.236  -7.979  1.00  0.00     0.000 C 
BRANCH   7   8
HETATM    8  C   UNL     1     -23.891  -3.988  -8.923  1.00  0.00     0.000 C 
BRANCH   8   9
HETATM    9  C   UNL     1     -23.474  -4.327 -10.345  1.00  0.00     0.000 C 
BRANCH   9  10
HETATM   10  C   UNL     1     -24.034  -3.318 -11.342  1.00  0.00     0.004 C 
BRANCH  10  11
HETATM   11  C   UNL     1     -22.937  -2.678 -12.206  1.00  0.00    -0.023 C 
HETATM   12  C   UNL     1     -21.633  -3.455 -12.035  1.00  0.00     0.009 C 
HETATM   13  C   UNL     1     -23.321  -2.624 -13.686  1.00  0.00     0.009 C 
ENDBRANCH  10  11
ENDBRANCH   9  10
ENDBRANCH   8   9
ENDBRANCH   7   8
ENDBRANCH   6   7
ENDBRANCH   5   6
ENDBRANCH   4   5
ENDBRANCH   3   4
ENDBRANCH   2   3
ENDBRANCH   1   2
BRANCH   1  14
HETATM   14  C   UNL     1     -21.083  -8.286  -4.947  1.00  0.00     0.000 C 
BRANCH  14  15
HETATM   15  C   UNL     1     -19.649  -8.574  -4.510  1.00  0.00     0.000 C 
BRANCH  15  16
HETATM   16  C   UNL     1     -19.529 -10.019  -4.042  1.00  0.00     0.009 C 
BRANCH  16  17
HETATM   17  C   UNL     1     -19.276 -10.127  -2.541  1.00  0.00     0.103 C 
BRANCH  17  18
HETATM   18  C   UNL     1     -20.586 -10.179  -1.777  1.00  0.00     0.217 C 
HETATM   19  O   UNL     1     -21.479 -10.986  -2.018  1.00  0.00    -0.274 OA
HETATM   20  N   UNL     1     -20.680  -9.244  -0.771  1.00  0.00    -0.359 N 
HETATM   21  H   UNL     1     -19.958  -8.542  -0.672  1.00  0.00     0.162 HD
BRANCH  20  22
HETATM   22  C   UNL     1     -21.878  -9.145   0.043  1.00  0.00     0.153 C 
BRANCH  22  23
HETATM   23  C   UNL     1     -22.410  -7.706   0.172  1.00  0.00     0.132 C 
HETATM   24  C   UNL     1     -22.215  -6.947  -1.132  1.00  0.00     0.041 C 
BRANCH  23  25
HETATM   25  O   UNL     1     -23.818  -7.706   0.438  1.00  0.00    -0.394 OA
HETATM   26  H   UNL     1     -24.203  -7.084  -0.201  1.00  0.00     0.210 HD
ENDBRANCH  23  25
ENDBRANCH  22  23
ENDBRANCH  20  22
ENDBRANCH  17  18
ENDBRANCH  16  17
ENDBRANCH  15  16
ENDBRANCH  14  15
ENDBRANCH   1  14
TORSDOF 18
ENDMDL
