MODEL 1
REMARK VINA RESULT:      -8.2      0.000      0.000
REMARK  3 active torsions:
REMARK  status: ('A' for Active; 'I' for Inactive)
REMARK    1  A    between atoms: C_11  and  O_12 
REMARK    2  A    between atoms: C_24  and  C_28 
REMARK    3  A    between atoms: C_28  and  O_30 
ROOT
HETATM    1  C   UNL     1     -24.200 -10.808  -0.399  1.00  0.00     0.018 C 
HETATM    2  C   UNL     1     -22.729 -10.385  -0.609  1.00  0.00    -0.017 C 
HETATM    3  C   UNL     1     -22.280 -10.691  -2.060  1.00  0.00     0.005 C 
HETATM    4  C   UNL     1     -22.700 -12.102  -2.577  1.00  0.00     0.007 C 
HETATM    5  C   UNL     1     -22.615 -12.371  -4.130  1.00  0.00     0.011 C 
HETATM    6  C   UNL     1     -21.114 -12.599  -4.317  1.00  0.00    -0.025 C 
HETATM    7  C   UNL     1     -20.633 -10.704  -3.862  1.00  0.00     0.072 C 
HETATM    8  C   UNL     1     -20.836 -10.157  -2.389  1.00  0.00    -0.029 C 
HETATM    9  C   UNL     1     -20.972  -8.582  -2.290  1.00  0.00     0.013 C 
HETATM   10  C   UNL     1     -21.390  -8.163  -0.853  1.00  0.00     0.033 C 
HETATM   11  C   UNL     1     -22.700  -8.830  -0.458  1.00  0.00     0.126 C 
HETATM   12  C   UNL     1     -19.527 -10.292  -1.493  1.00  0.00     0.016 C 
HETATM   13  C   UNL     1     -19.069 -10.028  -4.648  1.00  0.00     0.133 C 
HETATM   14  O   UNL     1     -18.735  -8.852  -4.517  1.00  0.00    -0.298 OA
HETATM   15  C   UNL     1     -17.951 -11.083  -5.589  1.00  0.00     0.084 C 
HETATM   16  C   UNL     1     -18.217 -12.488  -5.835  1.00  0.00     0.006 C 
HETATM   17  C   UNL     1     -19.927 -13.155  -5.683  1.00  0.00    -0.032 C 
HETATM   18  C   UNL     1     -20.004 -11.817  -5.501  1.00  0.00     0.011 C 
HETATM   19  C   UNL     1     -19.068 -12.277  -3.755  1.00  0.00     0.010 C 
HETATM   20  C   UNL     1     -17.654 -12.868  -3.560  1.00  0.00    -0.040 C 
HETATM   21  C   UNL     1     -17.363 -13.415  -4.933  1.00  0.00     0.000 C 
HETATM   22  C   UNL     1     -15.859 -13.493  -5.169  1.00  0.00     0.025 C 
HETATM   23  C   UNL     1     -15.068 -12.185  -4.909  1.00  0.00     0.042 C 
HETATM   24  C   UNL     1     -15.309 -11.695  -3.473  1.00  0.00     0.021 C 
HETATM   25  C   UNL     1     -16.743 -11.710  -3.020  1.00  0.00     0.011 C 
HETATM   26  C   UNL     1     -13.569 -12.495  -4.993  1.00  0.00     0.026 C 
HETATM   27  C   UNL     1     -17.670 -13.933  -2.420  1.00  0.00     0.015 C 
HETATM   28  C   UNL     1     -20.454 -13.608  -7.032  1.00  0.00     0.016 C 
HETATM   29  C   UNL     1     -21.115 -14.165  -3.834  1.00  0.00     0.016 C 
HETATM   30  C   UNL     1     -21.897 -11.197   0.405  1.00  0.00     0.018 C 
ENDROOT
BRANCH  23  31
HETATM   31  C   UNL     1     -15.262 -11.205  -6.080  1.00  0.00     0.148 C 
HETATM   32  O   UNL     1     -15.200 -11.558  -7.254  1.00  0.00    -0.649 OA
BRANCH  31  33
HETATM   33  O   UNL     1     -15.475  -9.908  -5.780  1.00  0.00    -0.776 OA
HETATM   34  H   UNL     1     -14.723  -9.386  -5.449  1.00  0.00     0.167 HD
ENDBRANCH  31  33
ENDBRANCH  23  31
BRANCH  11  35
HETATM   35  O   UNL     1     -23.090  -8.411   0.843  1.00  0.00    -0.395 OA
HETATM   36  H   UNL     1     -22.288  -8.260   1.366  1.00  0.00     0.210 HD
ENDBRANCH  11  35
TORSDOF 3
ENDMDL
MODEL 2
REMARK VINA RESULT:      -8.1      1.408      1.916
REMARK  3 active torsions:
REMARK  status: ('A' for Active; 'I' for Inactive)
REMARK    1  A    between atoms: C_11  and  O_12 
REMARK    2  A    between atoms: C_24  and  C_28 
REMARK    3  A    between atoms: C_28  and  O_30 
ROOT
HETATM    1  C   UNL     1     -23.325  -8.560   0.187  1.00  0.00     0.018 C 
HETATM    2  C   UNL     1     -22.049  -8.358  -0.661  1.00  0.00    -0.017 C 
HETATM    3  C   UNL     1     -21.840  -9.559  -1.618  1.00  0.00     0.005 C 
HETATM    4  C   UNL     1     -22.041 -10.954  -0.948  1.00  0.00     0.007 C 
HETATM    5  C   UNL     1     -22.207 -12.206  -1.895  1.00  0.00     0.011 C 
HETATM    6  C   UNL     1     -20.760 -12.464  -2.315  1.00  0.00    -0.025 C 
HETATM    7  C   UNL     1     -20.616 -10.755  -3.358  1.00  0.00     0.072 C 
HETATM    8  C   UNL     1     -20.638  -9.357  -2.614  1.00  0.00    -0.029 C 
HETATM    9  C   UNL     1     -21.086  -8.140  -3.522  1.00  0.00     0.013 C 
HETATM   10  C   UNL     1     -21.292  -6.865  -2.658  1.00  0.00     0.033 C 
HETATM   11  C   UNL     1     -22.325  -7.116  -1.568  1.00  0.00     0.126 C 
HETATM   12  C   UNL     1     -19.180  -8.815  -2.274  1.00  0.00     0.016 C 
HETATM   13  C   UNL     1     -19.420 -10.757  -4.803  1.00  0.00     0.133 C 
HETATM   14  O   UNL     1     -19.326  -9.799  -5.569  1.00  0.00    -0.298 OA
HETATM   15  C   UNL     1     -18.309 -12.144  -5.109  1.00  0.00     0.084 C 
HETATM   16  C   UNL     1     -18.311 -13.347  -4.298  1.00  0.00     0.006 C 
HETATM   17  C   UNL     1     -19.774 -13.773  -3.264  1.00  0.00    -0.032 C 
HETATM   18  C   UNL     1     -20.098 -12.671  -3.978  1.00  0.00     0.011 C 
HETATM   19  C   UNL     1     -18.760 -11.797  -2.720  1.00  0.00     0.010 C 
HETATM   20  C   UNL     1     -17.243 -12.063  -2.611  1.00  0.00    -0.040 C 
HETATM   21  C   UNL     1     -17.117 -13.391  -3.310  1.00  0.00     0.000 C 
HETATM   22  C   UNL     1     -15.708 -13.572  -3.862  1.00  0.00     0.025 C 
HETATM   23  C   UNL     1     -15.180 -12.419  -4.754  1.00  0.00     0.042 C 
HETATM   24  C   UNL     1     -15.233 -11.088  -3.988  1.00  0.00     0.021 C 
HETATM   25  C   UNL     1     -16.513 -10.825  -3.242  1.00  0.00     0.011 C 
HETATM   26  C   UNL     1     -13.697 -12.667  -5.048  1.00  0.00     0.026 C 
HETATM   27  C   UNL     1     -16.806 -12.067  -1.113  1.00  0.00     0.015 C 
HETATM   28  C   UNL     1     -20.446 -15.035  -3.770  1.00  0.00     0.016 C 
HETATM   29  C   UNL     1     -20.330 -13.282  -0.961  1.00  0.00     0.016 C 
HETATM   30  C   UNL     1     -20.879  -8.242   0.338  1.00  0.00     0.018 C 
ENDROOT
BRANCH  23  31
HETATM   31  C   UNL     1     -15.807 -12.503  -6.158  1.00  0.00     0.148 C 
HETATM   32  O   UNL     1     -15.999 -13.570  -6.732  1.00  0.00    -0.649 OA
BRANCH  31  33
HETATM   33  O   UNL     1     -16.118 -11.344  -6.773  1.00  0.00    -0.776 OA
HETATM   34  H   UNL     1     -16.805 -10.784  -6.373  1.00  0.00     0.167 HD
ENDBRANCH  31  33
ENDBRANCH  23  31
BRANCH  11  35
HETATM   35  O   UNL     1     -22.532  -5.933  -0.808  1.00  0.00    -0.395 OA
HETATM   36  H   UNL     1     -22.485  -6.165   0.132  1.00  0.00     0.210 HD
ENDBRANCH  11  35
TORSDOF 3
ENDMDL
MODEL 3
REMARK VINA RESULT:      -8.1      1.923      2.771
REMARK  3 active torsions:
REMARK  status: ('A' for Active; 'I' for Inactive)
REMARK    1  A    between atoms: C_11  and  O_12 
REMARK    2  A    between atoms: C_24  and  C_28 
REMARK    3  A    between atoms: C_28  and  O_30 
ROOT
HETATM    1  C   UNL     1     -23.212  -7.904   0.441  1.00  0.00     0.018 C 
HETATM    2  C   UNL     1     -22.155  -7.984  -0.683  1.00  0.00    -0.017 C 
HETATM    3  C   UNL     1     -22.465  -9.168  -1.633  1.00  0.00     0.005 C 
HETATM    4  C   UNL     1     -22.835 -10.496  -0.902  1.00  0.00     0.007 C 
HETATM    5  C   UNL     1     -23.508 -11.641  -1.754  1.00  0.00     0.011 C 
HETATM    6  C   UNL     1     -22.301 -12.223  -2.490  1.00  0.00    -0.025 C 
HETATM    7  C   UNL     1     -21.995 -10.565  -3.579  1.00  0.00     0.072 C 
HETATM    8  C   UNL     1     -21.510  -9.227  -2.884  1.00  0.00    -0.029 C 
HETATM    9  C   UNL     1     -21.849  -7.909  -3.693  1.00  0.00     0.013 C 
HETATM   10  C   UNL     1     -21.541  -6.651  -2.835  1.00  0.00     0.033 C 
HETATM   11  C   UNL     1     -22.325  -6.683  -1.531  1.00  0.00     0.126 C 
HETATM   12  C   UNL     1     -19.927  -9.060  -2.902  1.00  0.00     0.016 C 
HETATM   13  C   UNL     1     -21.199 -10.805  -5.261  1.00  0.00     0.133 C 
HETATM   14  O   UNL     1     -21.056  -9.873  -6.050  1.00  0.00    -0.298 OA
HETATM   15  C   UNL     1     -20.553 -12.406  -5.781  1.00  0.00     0.084 C 
HETATM   16  C   UNL     1     -20.657 -13.600  -4.962  1.00  0.00     0.006 C 
HETATM   17  C   UNL     1     -21.902 -13.698  -3.609  1.00  0.00    -0.032 C 
HETATM   18  C   UNL     1     -22.108 -12.528  -4.256  1.00  0.00     0.011 C 
HETATM   19  C   UNL     1     -20.348 -12.039  -3.361  1.00  0.00     0.010 C 
HETATM   20  C   UNL     1     -18.955 -12.664  -3.598  1.00  0.00    -0.040 C 
HETATM   21  C   UNL     1     -19.315 -13.960  -4.275  1.00  0.00     0.000 C 
HETATM   22  C   UNL     1     -18.156 -14.454  -5.133  1.00  0.00     0.025 C 
HETATM   23  C   UNL     1     -17.586 -13.431  -6.149  1.00  0.00     0.042 C 
HETATM   24  C   UNL     1     -17.142 -12.152  -5.424  1.00  0.00     0.021 C 
HETATM   25  C   UNL     1     -18.115 -11.616  -4.410  1.00  0.00     0.011 C 
HETATM   26  C   UNL     1     -16.313 -14.017  -6.771  1.00  0.00     0.026 C 
HETATM   27  C   UNL     1     -18.200 -12.821  -2.241  1.00  0.00     0.015 C 
HETATM   28  C   UNL     1     -22.955 -14.746  -3.917  1.00  0.00     0.016 C 
HETATM   29  C   UNL     1     -21.781 -13.163  -1.253  1.00  0.00     0.016 C 
HETATM   30  C   UNL     1     -20.794  -8.184   0.017  1.00  0.00     0.018 C 
ENDROOT
BRANCH  23  31
HETATM   31  C   UNL     1     -18.519 -13.318  -7.368  1.00  0.00     0.148 C 
HETATM   32  O   UNL     1     -19.078 -14.291  -7.865  1.00  0.00    -0.649 OA
BRANCH  31  33
HETATM   33  O   UNL     1     -18.687 -12.096  -7.915  1.00  0.00    -0.776 OA
HETATM   34  H   UNL     1     -18.348 -11.326  -7.426  1.00  0.00     0.167 HD
ENDBRANCH  31  33
ENDBRANCH  23  31
BRANCH  11  35
HETATM   35  O   UNL     1     -22.062  -5.511  -0.772  1.00  0.00    -0.395 OA
HETATM   36  H   UNL     1     -22.896  -5.210  -0.380  1.00  0.00     0.210 HD
ENDBRANCH  11  35
TORSDOF 3
ENDMDL
MODEL 4
REMARK VINA RESULT:      -7.7     18.829     22.806
REMARK  3 active torsions:
REMARK  status: ('A' for Active; 'I' for Inactive)
REMARK    1  A    between atoms: C_11  and  O_12 
REMARK    2  A    between atoms: C_24  and  C_28 
REMARK    3  A    between atoms: C_28  and  O_30 
ROOT
HETATM    1  C   UNL     1     -26.196   9.800  -8.477  1.00  0.00     0.018 C 
HETATM    2  C   UNL     1     -26.155  10.606  -7.160  1.00  0.00    -0.017 C 
HETATM    3  C   UNL     1     -25.400   9.813  -6.064  1.00  0.00     0.005 C 
HETATM    4  C   UNL     1     -25.802   8.308  -5.971  1.00  0.00     0.007 C 
HETATM    5  C   UNL     1     -24.856   7.344  -5.154  1.00  0.00     0.011 C 
HETATM    6  C   UNL     1     -25.249   7.679  -3.715  1.00  0.00    -0.025 C 
HETATM    7  C   UNL     1     -24.514   9.545  -3.805  1.00  0.00     0.072 C 
HETATM    8  C   UNL     1     -25.196  10.631  -4.734  1.00  0.00    -0.029 C 
HETATM    9  C   UNL     1     -24.243  11.823  -5.155  1.00  0.00     0.013 C 
HETATM   10  C   UNL     1     -24.924  12.708  -6.236  1.00  0.00     0.033 C 
HETATM   11  C   UNL     1     -25.295  11.876  -7.456  1.00  0.00     0.126 C 
HETATM   12  C   UNL     1     -26.276  11.513  -3.965  1.00  0.00     0.016 C 
HETATM   13  C   UNL     1     -23.916  10.285  -2.189  1.00  0.00     0.133 C 
HETATM   14  O   UNL     1     -23.358  11.380  -2.145  1.00  0.00    -0.298 OA
HETATM   15  C   UNL     1     -24.180   9.453  -0.612  1.00  0.00     0.084 C 
HETATM   16  C   UNL     1     -24.815   8.152  -0.506  1.00  0.00     0.006 C 
HETATM   17  C   UNL     1     -24.905   7.036  -1.967  1.00  0.00    -0.032 C 
HETATM   18  C   UNL     1     -24.176   8.114  -2.334  1.00  0.00     0.011 C 
HETATM   19  C   UNL     1     -25.987   9.034  -2.222  1.00  0.00     0.010 C 
HETATM   20  C   UNL     1     -26.866   9.253  -0.971  1.00  0.00    -0.040 C 
HETATM   21  C   UNL     1     -26.280   8.253  -0.010  1.00  0.00     0.000 C 
HETATM   22  C   UNL     1     -26.545   8.678   1.430  1.00  0.00     0.025 C 
HETATM   23  C   UNL     1     -26.116  10.123   1.795  1.00  0.00     0.042 C 
HETATM   24  C   UNL     1     -26.797  11.132   0.858  1.00  0.00     0.021 C 
HETATM   25  C   UNL     1     -26.768  10.775  -0.603  1.00  0.00     0.011 C 
HETATM   26  C   UNL     1     -26.636  10.447   3.200  1.00  0.00     0.026 C 
HETATM   27  C   UNL     1     -28.368   9.020  -1.325  1.00  0.00     0.015 C 
HETATM   28  C   UNL     1     -24.065   5.791  -1.750  1.00  0.00     0.016 C 
HETATM   29  C   UNL     1     -26.589   6.736  -3.678  1.00  0.00     0.016 C 
HETATM   30  C   UNL     1     -27.625  10.842  -6.753  1.00  0.00     0.018 C 
ENDROOT
BRANCH  23  31
HETATM   31  C   UNL     1     -24.590  10.190   1.991  1.00  0.00     0.148 C 
HETATM   32  O   UNL     1     -23.949   9.277   2.500  1.00  0.00    -0.649 OA
BRANCH  31  33
HETATM   33  O   UNL     1     -23.962  11.321   1.611  1.00  0.00    -0.776 OA
HETATM   34  H   UNL     1     -23.781  11.448   0.663  1.00  0.00     0.167 HD
ENDBRANCH  31  33
ENDBRANCH  23  31
BRANCH  11  35
HETATM   35  O   UNL     1     -25.884  12.702  -8.451  1.00  0.00    -0.395 OA
HETATM   36  H   UNL     1     -25.815  13.624  -8.159  1.00  0.00     0.210 HD
ENDBRANCH  11  35
TORSDOF 3
ENDMDL
MODEL 5
REMARK VINA RESULT:      -7.7      1.948      6.920
REMARK  3 active torsions:
REMARK  status: ('A' for Active; 'I' for Inactive)
REMARK    1  A    between atoms: C_11  and  O_12 
REMARK    2  A    between atoms: C_24  and  C_28 
REMARK    3  A    between atoms: C_28  and  O_30 
ROOT
HETATM    1  C   UNL     1     -14.639 -14.153  -6.056  1.00  0.00     0.018 C 
HETATM    2  C   UNL     1     -15.054 -13.209  -4.906  1.00  0.00    -0.017 C 
HETATM    3  C   UNL     1     -16.559 -13.383  -4.580  1.00  0.00     0.005 C 
HETATM    4  C   UNL     1     -17.485 -13.433  -5.834  1.00  0.00     0.007 C 
HETATM    5  C   UNL     1     -18.959 -13.962  -5.638  1.00  0.00     0.011 C 
HETATM    6  C   UNL     1     -19.640 -12.742  -5.017  1.00  0.00    -0.025 C 
HETATM    7  C   UNL     1     -18.578 -12.848  -3.316  1.00  0.00     0.072 C 
HETATM    8  C   UNL     1     -17.022 -12.554  -3.324  1.00  0.00    -0.029 C 
HETATM    9  C   UNL     1     -16.228 -13.202  -2.117  1.00  0.00     0.013 C 
HETATM   10  C   UNL     1     -14.696 -13.051  -2.331  1.00  0.00     0.033 C 
HETATM   11  C   UNL     1     -14.271 -13.692  -3.645  1.00  0.00     0.126 C 
HETATM   12  C   UNL     1     -16.677 -11.037  -2.985  1.00  0.00     0.016 C 
HETATM   13  C   UNL     1     -19.407 -12.180  -1.771  1.00  0.00     0.133 C 
HETATM   14  O   UNL     1     -18.888 -12.285  -0.661  1.00  0.00    -0.298 OA
HETATM   15  C   UNL     1     -20.980 -11.303  -1.846  1.00  0.00     0.084 C 
HETATM   16  C   UNL     1     -21.715 -11.110  -3.082  1.00  0.00     0.006 C 
HETATM   17  C   UNL     1     -21.386 -12.185  -4.541  1.00  0.00    -0.032 C 
HETATM   18  C   UNL     1     -20.639 -12.661  -3.519  1.00  0.00     0.011 C 
HETATM   19  C   UNL     1     -19.596 -10.945  -3.844  1.00  0.00     0.010 C 
HETATM   20  C   UNL     1     -20.079  -9.489  -3.658  1.00  0.00    -0.040 C 
HETATM   21  C   UNL     1     -21.574  -9.667  -3.630  1.00  0.00     0.000 C 
HETATM   22  C   UNL     1     -22.233  -8.522  -2.871  1.00  0.00     0.025 C 
HETATM   23  C   UNL     1     -21.676  -8.246  -1.451  1.00  0.00     0.042 C 
HETATM   24  C   UNL     1     -20.165  -7.978  -1.515  1.00  0.00     0.021 C 
HETATM   25  C   UNL     1     -19.378  -8.935  -2.369  1.00  0.00     0.011 C 
HETATM   26  C   UNL     1     -22.303  -6.950  -0.923  1.00  0.00     0.026 C 
HETATM   27  C   UNL     1     -19.546  -8.596  -4.822  1.00  0.00     0.015 C 
HETATM   28  C   UNL     1     -22.590 -13.052  -4.857  1.00  0.00     0.016 C 
HETATM   29  C   UNL     1     -19.890 -11.946  -6.427  1.00  0.00     0.016 C 
HETATM   30  C   UNL     1     -14.762 -11.775  -5.398  1.00  0.00     0.018 C 
ENDROOT
BRANCH  23  31
HETATM   31  C   UNL     1     -22.212  -9.293  -0.458  1.00  0.00     0.148 C 
HETATM   32  O   UNL     1     -23.358  -9.729  -0.512  1.00  0.00    -0.649 OA
BRANCH  31  33
HETATM   33  O   UNL     1     -21.382  -9.707   0.521  1.00  0.00    -0.776 OA
HETATM   34  H   UNL     1     -21.633 -10.497   1.030  1.00  0.00     0.167 HD
ENDBRANCH  31  33
ENDBRANCH  23  31
BRANCH  11  35
HETATM   35  O   UNL     1     -12.864 -13.580  -3.812  1.00  0.00    -0.395 OA
HETATM   36  H   UNL     1     -12.492 -13.197  -3.002  1.00  0.00     0.210 HD
ENDBRANCH  11  35
TORSDOF 3
ENDMDL
MODEL 6
REMARK VINA RESULT:      -7.5      2.055      7.052
REMARK  3 active torsions:
REMARK  status: ('A' for Active; 'I' for Inactive)
REMARK    1  A    between atoms: C_11  and  O_12 
REMARK    2  A    between atoms: C_24  and  C_28 
REMARK    3  A    between atoms: C_28  and  O_30 
ROOT
HETATM    1  C   UNL     1     -16.412 -15.957  -7.918  1.00  0.00     0.018 C 
HETATM    2  C   UNL     1     -17.649 -15.087  -7.601  1.00  0.00    -0.017 C 
HETATM    3  C   UNL     1     -17.252 -13.893  -6.696  1.00  0.00     0.005 C 
HETATM    4  C   UNL     1     -16.322 -14.275  -5.503  1.00  0.00     0.007 C 
HETATM    5  C   UNL     1     -15.578 -13.105  -4.748  1.00  0.00     0.011 C 
HETATM    6  C   UNL     1     -16.700 -12.548  -3.871  1.00  0.00    -0.025 C 
HETATM    7  C   UNL     1     -17.765 -11.869  -5.432  1.00  0.00     0.072 C 
HETATM    8  C   UNL     1     -18.434 -12.883  -6.447  1.00  0.00    -0.029 C 
HETATM    9  C   UNL     1     -18.732 -12.274  -7.879  1.00  0.00     0.013 C 
HETATM   10  C   UNL     1     -19.174 -13.393  -8.863  1.00  0.00     0.033 C 
HETATM   11  C   UNL     1     -18.106 -14.473  -8.963  1.00  0.00     0.126 C 
HETATM   12  C   UNL     1     -19.942 -13.231  -6.071  1.00  0.00     0.016 C 
HETATM   13  C   UNL     1     -18.859 -10.379  -5.111  1.00  0.00     0.133 C 
HETATM   14  O   UNL     1     -19.476  -9.821  -6.017  1.00  0.00    -0.298 OA
HETATM   15  C   UNL     1     -19.101  -9.724  -3.449  1.00  0.00     0.084 C 
HETATM   16  C   UNL     1     -18.432 -10.270  -2.283  1.00  0.00     0.006 C 
HETATM   17  C   UNL     1     -16.910 -11.289  -2.472  1.00  0.00    -0.032 C 
HETATM   18  C   UNL     1     -17.243 -10.838  -3.703  1.00  0.00     0.011 C 
HETATM   19  C   UNL     1     -18.772 -12.158  -3.473  1.00  0.00     0.010 C 
HETATM   20  C   UNL     1     -19.923 -12.111  -2.443  1.00  0.00    -0.040 C 
HETATM   21  C   UNL     1     -19.376 -11.148  -1.422  1.00  0.00     0.000 C 
HETATM   22  C   UNL     1     -20.512 -10.480  -0.657  1.00  0.00     0.025 C 
HETATM   23  C   UNL     1     -21.608  -9.810  -1.526  1.00  0.00     0.042 C 
HETATM   24  C   UNL     1     -22.214 -10.834  -2.497  1.00  0.00     0.021 C 
HETATM   25  C   UNL     1     -21.221 -11.700  -3.223  1.00  0.00     0.011 C 
HETATM   26  C   UNL     1     -22.759  -9.376  -0.612  1.00  0.00     0.026 C 
HETATM   27  C   UNL     1     -20.216 -13.544  -1.901  1.00  0.00     0.015 C 
HETATM   28  C   UNL     1     -15.706 -10.580  -1.880  1.00  0.00     0.016 C 
HETATM   29  C   UNL     1     -16.571 -13.674  -2.688  1.00  0.00     0.016 C 
HETATM   30  C   UNL     1     -18.654 -16.010  -6.882  1.00  0.00     0.018 C 
ENDROOT
BRANCH  23  31
HETATM   31  C   UNL     1     -21.102  -8.463  -2.073  1.00  0.00     0.148 C 
HETATM   32  O   UNL     1     -20.403  -7.702  -1.411  1.00  0.00    -0.649 OA
BRANCH  31  33
HETATM   33  O   UNL     1     -21.484  -8.112  -3.318  1.00  0.00    -0.776 OA
HETATM   34  H   UNL     1     -20.926  -8.393  -4.064  1.00  0.00     0.167 HD
ENDBRANCH  31  33
ENDBRANCH  23  31
BRANCH  11  35
HETATM   35  O   UNL     1     -18.505 -15.471  -9.893  1.00  0.00    -0.395 OA
HETATM   36  H   UNL     1     -18.449 -16.334  -9.455  1.00  0.00     0.210 HD
ENDBRANCH  11  35
TORSDOF 3
ENDMDL
MODEL 7
REMARK VINA RESULT:      -7.3      2.239      7.365
REMARK  3 active torsions:
REMARK  status: ('A' for Active; 'I' for Inactive)
REMARK    1  A    between atoms: C_11  and  O_12 
REMARK    2  A    between atoms: C_24  and  C_28 
REMARK    3  A    between atoms: C_28  and  O_30 
ROOT
HETATM    1  C   UNL     1     -13.523 -12.308  -5.945  1.00  0.00     0.018 C 
HETATM    2  C   UNL     1     -14.655 -13.116  -5.273  1.00  0.00    -0.017 C 
HETATM    3  C   UNL     1     -15.953 -12.272  -5.202  1.00  0.00     0.005 C 
HETATM    4  C   UNL     1     -15.736 -10.804  -4.719  1.00  0.00     0.007 C 
HETATM    5  C   UNL     1     -16.909  -9.773  -4.953  1.00  0.00     0.011 C 
HETATM    6  C   UNL     1     -17.872 -10.147  -3.826  1.00  0.00    -0.025 C 
HETATM    7  C   UNL     1     -18.297 -11.948  -4.604  1.00  0.00     0.072 C 
HETATM    8  C   UNL     1     -17.190 -13.079  -4.658  1.00  0.00    -0.029 C 
HETATM    9  C   UNL     1     -17.443 -14.190  -5.758  1.00  0.00     0.013 C 
HETATM   10  C   UNL     1     -16.204 -15.119  -5.887  1.00  0.00     0.033 C 
HETATM   11  C   UNL     1     -14.960 -14.312  -6.231  1.00  0.00     0.126 C 
HETATM   12  C   UNL     1     -17.234 -14.048  -3.395  1.00  0.00     0.016 C 
HETATM   13  C   UNL     1     -19.992 -12.649  -4.209  1.00  0.00     0.133 C 
HETATM   14  O   UNL     1     -20.393 -13.697  -4.713  1.00  0.00    -0.298 OA
HETATM   15  C   UNL     1     -21.095 -11.849  -3.029  1.00  0.00     0.084 C 
HETATM   16  C   UNL     1     -20.763 -10.604  -2.362  1.00  0.00     0.006 C 
HETATM   17  C   UNL     1     -19.472  -9.489  -3.055  1.00  0.00    -0.032 C 
HETATM   18  C   UNL     1     -19.635 -10.504  -3.934  1.00  0.00     0.011 C 
HETATM   19  C   UNL     1     -18.723 -11.565  -2.457  1.00  0.00     0.010 C 
HETATM   20  C   UNL     1     -19.248 -11.861  -1.035  1.00  0.00    -0.040 C 
HETATM   21  C   UNL     1     -20.330 -10.823  -0.890  1.00  0.00     0.000 C 
HETATM   22  C   UNL     1     -21.372 -11.277   0.126  1.00  0.00     0.025 C 
HETATM   23  C   UNL     1     -21.976 -12.685  -0.111  1.00  0.00     0.042 C 
HETATM   24  C   UNL     1     -20.860 -13.739  -0.165  1.00  0.00     0.021 C 
HETATM   25  C   UNL     1     -19.668 -13.372  -1.006  1.00  0.00     0.011 C 
HETATM   26  C   UNL     1     -22.837 -13.058   1.101  1.00  0.00     0.026 C 
HETATM   27  C   UNL     1     -18.086 -11.745   0.000  1.00  0.00     0.015 C 
HETATM   28  C   UNL     1     -20.081  -8.183  -3.529  1.00  0.00     0.016 C 
HETATM   29  C   UNL     1     -17.093  -9.313  -2.649  1.00  0.00     0.016 C 
HETATM   30  C   UNL     1     -14.153 -13.470  -3.858  1.00  0.00     0.018 C 
ENDROOT
BRANCH  23  31
HETATM   31  C   UNL     1     -23.016 -12.633  -1.244  1.00  0.00     0.148 C 
HETATM   32  O   UNL     1     -23.793 -11.694  -1.385  1.00  0.00    -0.649 OA
BRANCH  31  33
HETATM   33  O   UNL     1     -23.079 -13.687  -2.083  1.00  0.00    -0.776 OA
HETATM   34  H   UNL     1     -23.641 -14.440  -1.829  1.00  0.00     0.167 HD
ENDBRANCH  31  33
ENDBRANCH  23  31
BRANCH  11  35
HETATM   35  O   UNL     1     -13.842 -15.176  -6.381  1.00  0.00    -0.395 OA
HETATM   36  H   UNL     1     -14.170 -16.083  -6.476  1.00  0.00     0.210 HD
ENDBRANCH  11  35
TORSDOF 3
ENDMDL
MODEL 8
REMARK VINA RESULT:      -7.2      2.812      4.569
REMARK  3 active torsions:
REMARK  status: ('A' for Active; 'I' for Inactive)
REMARK    1  A    between atoms: C_11  and  O_12 
REMARK    2  A    between atoms: C_24  and  C_28 
REMARK    3  A    between atoms: C_28  and  O_30 
ROOT
HETATM    1  C   UNL     1     -24.988 -14.828  -0.565  1.00  0.00     0.018 C 
HETATM    2  C   UNL     1     -23.494 -14.934  -0.944  1.00  0.00    -0.017 C 
HETATM    3  C   UNL     1     -22.800 -13.556  -0.799  1.00  0.00     0.005 C 
HETATM    4  C   UNL     1     -23.608 -12.365  -1.401  1.00  0.00     0.007 C 
HETATM    5  C   UNL     1     -23.175 -10.903  -0.994  1.00  0.00     0.011 C 
HETATM    6  C   UNL     1     -21.945 -10.692  -1.878  1.00  0.00    -0.025 C 
HETATM    7  C   UNL     1     -20.856 -12.085  -0.926  1.00  0.00     0.072 C 
HETATM    8  C   UNL     1     -21.244 -13.617  -1.033  1.00  0.00    -0.029 C 
HETATM    9  C   UNL     1     -20.707 -14.512   0.159  1.00  0.00     0.013 C 
HETATM   10  C   UNL     1     -21.322 -15.937   0.087  1.00  0.00     0.033 C 
HETATM   11  C   UNL     1     -22.842 -15.870   0.123  1.00  0.00     0.126 C 
HETATM   12  C   UNL     1     -20.469 -14.371  -2.201  1.00  0.00     0.016 C 
HETATM   13  C   UNL     1     -18.997 -11.835  -0.927  1.00  0.00     0.133 C 
HETATM   14  O   UNL     1     -18.243 -12.571  -0.291  1.00  0.00    -0.298 OA
HETATM   15  C   UNL     1     -18.217 -10.535  -1.903  1.00  0.00     0.084 C 
HETATM   16  C   UNL     1     -18.976  -9.584  -2.695  1.00  0.00     0.006 C 
HETATM   17  C   UNL     1     -20.760  -9.291  -2.344  1.00  0.00    -0.032 C 
HETATM   18  C   UNL     1     -20.301 -10.136  -1.393  1.00  0.00     0.011 C 
HETATM   19  C   UNL     1     -20.245 -11.432  -2.960  1.00  0.00     0.010 C 
HETATM   20  C   UNL     1     -19.363 -11.356  -4.226  1.00  0.00    -0.040 C 
HETATM   21  C   UNL     1     -18.931  -9.913  -4.209  1.00  0.00     0.000 C 
HETATM   22  C   UNL     1     -17.619  -9.740  -4.964  1.00  0.00     0.025 C 
HETATM   23  C   UNL     1     -16.462 -10.675  -4.527  1.00  0.00     0.042 C 
HETATM   24  C   UNL     1     -16.895 -12.144  -4.640  1.00  0.00     0.021 C 
HETATM   25  C   UNL     1     -18.256 -12.459  -4.081  1.00  0.00     0.011 C 
HETATM   26  C   UNL     1     -15.301 -10.510  -5.514  1.00  0.00     0.026 C 
HETATM   27  C   UNL     1     -20.190 -11.777  -5.481  1.00  0.00     0.015 C 
HETATM   28  C   UNL     1     -20.987  -7.881  -1.833  1.00  0.00     0.016 C 
HETATM   29  C   UNL     1     -22.773 -10.294  -3.235  1.00  0.00     0.016 C 
HETATM   30  C   UNL     1     -23.453 -15.417  -2.409  1.00  0.00     0.018 C 
ENDROOT
BRANCH  23  31
HETATM   31  C   UNL     1     -15.841 -10.173  -3.211  1.00  0.00     0.148 C 
HETATM   32  O   UNL     1     -15.725  -8.980  -2.948  1.00  0.00    -0.649 OA
BRANCH  31  33
HETATM   33  O   UNL     1     -15.385 -11.099  -2.343  1.00  0.00    -0.776 OA
HETATM   34  H   UNL     1     -14.655 -11.675  -2.630  1.00  0.00     0.167 HD
ENDBRANCH  31  33
ENDBRANCH  23  31
BRANCH  11  35
HETATM   35  O   UNL     1     -23.391 -17.180   0.093  1.00  0.00    -0.395 OA
HETATM   36  H   UNL     1     -23.529 -17.430  -0.833  1.00  0.00     0.210 HD
ENDBRANCH  11  35
TORSDOF 3
ENDMDL
MODEL 9
REMARK VINA RESULT:      -7.2      2.774      4.808
REMARK  3 active torsions:
REMARK  status: ('A' for Active; 'I' for Inactive)
REMARK    1  A    between atoms: C_11  and  O_12 
REMARK    2  A    between atoms: C_24  and  C_28 
REMARK    3  A    between atoms: C_28  and  O_30 
ROOT
HETATM    1  C   UNL     1     -23.328 -14.323   2.669  1.00  0.00     0.018 C 
HETATM    2  C   UNL     1     -22.346 -14.648   1.521  1.00  0.00    -0.017 C 
HETATM    3  C   UNL     1     -21.843 -13.344   0.854  1.00  0.00     0.005 C 
HETATM    4  C   UNL     1     -22.966 -12.300   0.561  1.00  0.00     0.007 C 
HETATM    5  C   UNL     1     -22.525 -10.822   0.225  1.00  0.00     0.011 C 
HETATM    6  C   UNL     1     -22.085 -10.960  -1.233  1.00  0.00    -0.025 C 
HETATM    7  C   UNL     1     -20.511 -12.124  -0.788  1.00  0.00     0.072 C 
HETATM    8  C   UNL     1     -20.730 -13.590  -0.232  1.00  0.00    -0.029 C 
HETATM    9  C   UNL     1     -19.506 -14.167   0.591  1.00  0.00     0.013 C 
HETATM   10  C   UNL     1     -19.897 -15.504   1.280  1.00  0.00     0.033 C 
HETATM   11  C   UNL     1     -21.099 -15.308   2.193  1.00  0.00     0.126 C 
HETATM   12  C   UNL     1     -20.725 -14.694  -1.379  1.00  0.00     0.016 C 
HETATM   13  C   UNL     1     -19.048 -12.033  -1.959  1.00  0.00     0.133 C 
HETATM   14  O   UNL     1     -17.996 -12.627  -1.729  1.00  0.00    -0.298 OA
HETATM   15  C   UNL     1     -19.132 -11.115  -3.508  1.00  0.00     0.084 C 
HETATM   16  C   UNL     1     -20.303 -10.358  -3.911  1.00  0.00     0.006 C 
HETATM   17  C   UNL     1     -21.553  -9.838  -2.663  1.00  0.00    -0.032 C 
HETATM   18  C   UNL     1     -20.539 -10.427  -1.989  1.00  0.00     0.011 C 
HETATM   19  C   UNL     1     -21.290 -12.100  -2.868  1.00  0.00     0.010 C 
HETATM   20  C   UNL     1     -21.340 -12.443  -4.374  1.00  0.00    -0.040 C 
HETATM   21  C   UNL     1     -21.129 -11.089  -5.000  1.00  0.00     0.000 C 
HETATM   22  C   UNL     1     -20.542 -11.233  -6.399  1.00  0.00     0.025 C 
HETATM   23  C   UNL     1     -19.264 -12.104  -6.507  1.00  0.00     0.042 C 
HETATM   24  C   UNL     1     -19.530 -13.509  -5.945  1.00  0.00     0.021 C 
HETATM   25  C   UNL     1     -20.257 -13.549  -4.629  1.00  0.00     0.011 C 
HETATM   26  C   UNL     1     -18.935 -12.308  -7.990  1.00  0.00     0.026 C 
HETATM   27  C   UNL     1     -22.700 -13.122  -4.724  1.00  0.00     0.015 C 
HETATM   28  C   UNL     1     -21.575  -8.329  -2.514  1.00  0.00     0.016 C 
HETATM   29  C   UNL     1     -23.590 -10.881  -1.877  1.00  0.00     0.016 C 
HETATM   30  C   UNL     1     -23.131 -15.514   0.513  1.00  0.00     0.018 C 
ENDROOT
BRANCH  23  31
HETATM   31  C   UNL     1     -18.040 -11.315  -6.009  1.00  0.00     0.148 C 
HETATM   32  O   UNL     1     -17.162 -11.823  -5.319  1.00  0.00    -0.649 OA
BRANCH  31  33
HETATM   33  O   UNL     1     -17.970 -10.006  -6.328  1.00  0.00    -0.776 OA
HETATM   34  H   UNL     1     -18.388  -9.714  -7.156  1.00  0.00     0.167 HD
ENDBRANCH  31  33
ENDBRANCH  23  31
BRANCH  11  35
HETATM   35  O   UNL     1     -21.424 -16.529   2.844  1.00  0.00    -0.395 OA
HETATM   36  H   UNL     1     -22.196 -16.374   3.410  1.00  0.00     0.210 HD
ENDBRANCH  11  35
TORSDOF 3
ENDMDL
