MODEL 1
REMARK VINA RESULT:      -8.5      0.000      0.000
REMARK  2 active torsions:
REMARK  status: ('A' for Active; 'I' for Inactive)
REMARK    1  A    between atoms: C_14  and  O_17 
REMARK    2  A    between atoms: C_24  and  O_27 
ROOT
HETATM    1  C   UNL     1     -15.626  -9.707  -4.385  1.00  0.00     0.001 A 
HETATM    2  C   UNL     1     -15.975  -9.543  -3.034  1.00  0.00     0.001 A 
HETATM    3  C   UNL     1     -17.288  -9.752  -2.606  1.00  0.00     0.012 A 
HETATM    4  C   UNL     1     -18.234 -10.120  -3.554  1.00  0.00     0.003 A 
HETATM    5  C   UNL     1     -17.880 -10.270  -4.880  1.00  0.00     0.049 A 
HETATM    6  C   UNL     1     -16.589 -10.071  -5.327  1.00  0.00     0.018 A 
HETATM    7  C   UNL     1     -19.057 -10.663  -5.643  1.00  0.00     0.295 A 
HETATM    8  O   UNL     1     -19.104 -10.865  -6.837  1.00  0.00    -0.259 OA
HETATM    9  O   UNL     1     -20.087 -10.763  -4.758  1.00  0.00    -0.291 OA
HETATM   10  C   UNL     1     -19.688 -10.435  -3.402  1.00  0.00     0.159 A 
HETATM   11  C   UNL     1     -20.488  -9.230  -2.960  1.00  0.00     0.022 A 
HETATM   12  C   UNL     1     -21.222  -9.276  -1.768  1.00  0.00     0.106 A 
HETATM   13  C   UNL     1     -21.932  -8.139  -1.342  1.00  0.00     0.078 A 
HETATM   14  C   UNL     1     -21.897  -6.964  -2.100  1.00  0.00     0.085 A 
HETATM   15  C   UNL     1     -21.172  -6.908  -3.281  1.00  0.00     0.039 A 
HETATM   16  C   UNL     1     -20.478  -8.035  -3.712  1.00  0.00     0.017 A 
HETATM   17 BR   UNL     1     -22.943  -8.165   0.270  1.00  0.00    -0.045 Br
HETATM   18  O   UNL     1     -21.270 -10.392  -0.968  1.00  0.00    -0.306 OA
HETATM   19  C   UNL     1     -20.656 -11.559  -1.359  1.00  0.00     0.106 A 
HETATM   20  C   UNL     1     -19.908 -11.658  -2.537  1.00  0.00     0.022 A 
HETATM   21  C   UNL     1     -19.316 -12.896  -2.869  1.00  0.00     0.017 A 
HETATM   22  C   UNL     1     -19.442 -14.004  -2.033  1.00  0.00     0.039 A 
HETATM   23  C   UNL     1     -20.172 -13.891  -0.856  1.00  0.00     0.085 A 
HETATM   24  C   UNL     1     -20.786 -12.678  -0.515  1.00  0.00     0.078 A 
HETATM   25 BR   UNL     1     -21.780 -12.548   1.106  1.00  0.00    -0.045 Br
ENDROOT
BRANCH  14  26
HETATM   26  O   UNL     1     -22.554  -5.822  -1.733  1.00  0.00    -0.359 OA
HETATM   27  H   UNL     1     -23.390  -5.792  -2.233  1.00  0.00     0.217 HD
ENDBRANCH  14  26
BRANCH  23  28
HETATM   28  O   UNL     1     -20.281 -14.978  -0.033  1.00  0.00    -0.359 OA
HETATM   29  H   UNL     1     -19.544 -14.980   0.601  1.00  0.00     0.217 HD
ENDBRANCH  23  28
TORSDOF 2
ENDMDL
MODEL 2
REMARK VINA RESULT:      -8.3      3.052      5.313
REMARK  2 active torsions:
REMARK  status: ('A' for Active; 'I' for Inactive)
REMARK    1  A    between atoms: C_14  and  O_17 
REMARK    2  A    between atoms: C_24  and  O_27 
ROOT
HETATM    1  C   UNL     1     -24.442 -11.183  -0.571  1.00  0.00     0.001 A 
HETATM    2  C   UNL     1     -23.780 -11.808  -1.640  1.00  0.00     0.001 A 
HETATM    3  C   UNL     1     -22.487 -11.420  -2.003  1.00  0.00     0.012 A 
HETATM    4  C   UNL     1     -21.884 -10.400  -1.280  1.00  0.00     0.003 A 
HETATM    5  C   UNL     1     -22.548  -9.788  -0.237  1.00  0.00     0.049 A 
HETATM    6  C   UNL     1     -23.825 -10.155   0.142  1.00  0.00     0.018 A 
HETATM    7  C   UNL     1     -21.686  -8.767   0.341  1.00  0.00     0.295 A 
HETATM    8  O   UNL     1     -21.961  -8.032   1.265  1.00  0.00    -0.259 OA
HETATM    9  O   UNL     1     -20.513  -8.801  -0.351  1.00  0.00    -0.291 OA
HETATM   10  C   UNL     1     -20.523  -9.793  -1.410  1.00  0.00     0.159 A 
HETATM   11  C   UNL     1     -20.345  -9.070  -2.726  1.00  0.00     0.022 A 
HETATM   12  C   UNL     1     -19.327  -9.459  -3.607  1.00  0.00     0.106 A 
HETATM   13  C   UNL     1     -19.191  -8.809  -4.846  1.00  0.00     0.078 A 
HETATM   14  C   UNL     1     -20.075  -7.786  -5.203  1.00  0.00     0.085 A 
HETATM   15  C   UNL     1     -21.088  -7.394  -4.339  1.00  0.00     0.039 A 
HETATM   16  C   UNL     1     -21.217  -8.027  -3.106  1.00  0.00     0.017 A 
HETATM   17 BR   UNL     1     -17.819  -9.308  -6.067  1.00  0.00    -0.045 Br
HETATM   18  O   UNL     1     -18.448 -10.476  -3.322  1.00  0.00    -0.306 OA
HETATM   19  C   UNL     1     -18.481 -11.107  -2.100  1.00  0.00     0.106 A 
HETATM   20  C   UNL     1     -19.431 -10.802  -1.121  1.00  0.00     0.022 A 
HETATM   21  C   UNL     1     -19.390 -11.492   0.110  1.00  0.00     0.017 A 
HETATM   22  C   UNL     1     -18.442 -12.484   0.351  1.00  0.00     0.039 A 
HETATM   23  C   UNL     1     -17.512 -12.792  -0.635  1.00  0.00     0.085 A 
HETATM   24  C   UNL     1     -17.520 -12.107  -1.858  1.00  0.00     0.078 A 
HETATM   25 BR   UNL     1     -16.237 -12.551  -3.195  1.00  0.00    -0.045 Br
ENDROOT
BRANCH  14  26
HETATM   26  O   UNL     1     -20.005  -7.126  -6.399  1.00  0.00    -0.359 OA
HETATM   27  H   UNL     1     -19.173  -7.393  -6.832  1.00  0.00     0.217 HD
ENDBRANCH  14  26
BRANCH  23  28
HETATM   28  O   UNL     1     -16.591 -13.776  -0.398  1.00  0.00    -0.359 OA
HETATM   29  H   UNL     1     -16.850 -14.280   0.392  1.00  0.00     0.217 HD
ENDBRANCH  23  28
TORSDOF 2
ENDMDL
MODEL 3
REMARK VINA RESULT:      -8.0      3.258      5.424
REMARK  2 active torsions:
REMARK  status: ('A' for Active; 'I' for Inactive)
REMARK    1  A    between atoms: C_14  and  O_17 
REMARK    2  A    between atoms: C_24  and  O_27 
ROOT
HETATM    1  C   UNL     1     -23.831 -11.409  -0.853  1.00  0.00     0.001 A 
HETATM    2  C   UNL     1     -23.445 -11.561  -2.195  1.00  0.00     0.001 A 
HETATM    3  C   UNL     1     -22.405 -10.796  -2.729  1.00  0.00     0.012 A 
HETATM    4  C   UNL     1     -21.772  -9.882  -1.898  1.00  0.00     0.003 A 
HETATM    5  C   UNL     1     -22.166  -9.736  -0.583  1.00  0.00     0.049 A 
HETATM    6  C   UNL     1     -23.189 -10.482  -0.032  1.00  0.00     0.018 A 
HETATM    7  C   UNL     1     -21.335  -8.722   0.051  1.00  0.00     0.295 A 
HETATM    8  O   UNL     1     -21.420  -8.337   1.198  1.00  0.00    -0.259 OA
HETATM    9  O   UNL     1     -20.444  -8.296  -0.887  1.00  0.00    -0.291 OA
HETATM   10  C   UNL     1     -20.629  -8.955  -2.167  1.00  0.00     0.159 A 
HETATM   11  C   UNL     1     -20.982  -7.897  -3.188  1.00  0.00     0.022 A 
HETATM   12  C   UNL     1     -20.241  -7.791  -4.372  1.00  0.00     0.106 A 
HETATM   13  C   UNL     1     -20.598  -6.832  -5.336  1.00  0.00     0.078 A 
HETATM   14  C   UNL     1     -21.696  -5.994  -5.118  1.00  0.00     0.085 A 
HETATM   15  C   UNL     1     -22.438  -6.091  -3.950  1.00  0.00     0.039 A 
HETATM   16  C   UNL     1     -22.079  -7.031  -2.988  1.00  0.00     0.017 A 
HETATM   17 BR   UNL     1     -19.613  -6.657  -6.954  1.00  0.00    -0.045 Br
HETATM   18  O   UNL     1     -19.171  -8.606  -4.653  1.00  0.00    -0.306 OA
HETATM   19  C   UNL     1     -18.725  -9.519  -3.725  1.00  0.00     0.106 A 
HETATM   20  C   UNL     1     -19.360  -9.712  -2.494  1.00  0.00     0.022 A 
HETATM   21  C   UNL     1     -18.833 -10.665  -1.595  1.00  0.00     0.017 A 
HETATM   22  C   UNL     1     -17.715 -11.428  -1.925  1.00  0.00     0.039 A 
HETATM   23  C   UNL     1     -17.101 -11.242  -3.158  1.00  0.00     0.085 A 
HETATM   24  C   UNL     1     -17.594 -10.288  -4.059  1.00  0.00     0.078 A 
HETATM   25 BR   UNL     1     -16.737 -10.053  -5.745  1.00  0.00    -0.045 Br
ENDROOT
BRANCH  14  26
HETATM   26  O   UNL     1     -22.104  -5.051  -6.022  1.00  0.00    -0.359 OA
HETATM   27  H   UNL     1     -22.166  -4.201  -5.549  1.00  0.00     0.217 HD
ENDBRANCH  14  26
BRANCH  23  28
HETATM   28  O   UNL     1     -16.012 -12.004  -3.483  1.00  0.00    -0.359 OA
HETATM   29  H   UNL     1     -15.930 -12.058  -4.450  1.00  0.00     0.217 HD
ENDBRANCH  23  28
TORSDOF 2
ENDMDL
MODEL 4
REMARK VINA RESULT:      -7.6      3.024      6.469
REMARK  2 active torsions:
REMARK  status: ('A' for Active; 'I' for Inactive)
REMARK    1  A    between atoms: C_14  and  O_17 
REMARK    2  A    between atoms: C_24  and  O_27 
ROOT
HETATM    1  C   UNL     1     -23.045  -8.183   1.040  1.00  0.00     0.001 A 
HETATM    2  C   UNL     1     -21.686  -7.906   0.821  1.00  0.00     0.001 A 
HETATM    3  C   UNL     1     -20.945  -8.653  -0.098  1.00  0.00     0.012 A 
HETATM    4  C   UNL     1     -21.590  -9.675  -0.781  1.00  0.00     0.003 A 
HETATM    5  C   UNL     1     -22.924  -9.944  -0.551  1.00  0.00     0.049 A 
HETATM    6  C   UNL     1     -23.678  -9.218   0.351  1.00  0.00     0.018 A 
HETATM    7  C   UNL     1     -23.338 -11.053  -1.398  1.00  0.00     0.295 A 
HETATM    8  O   UNL     1     -24.442 -11.553  -1.439  1.00  0.00    -0.259 OA
HETATM    9  O   UNL     1     -22.252 -11.414  -2.137  1.00  0.00    -0.291 OA
HETATM   10  C   UNL     1     -21.081 -10.616  -1.827  1.00  0.00     0.159 A 
HETATM   11  C   UNL     1     -20.015 -11.544  -1.288  1.00  0.00     0.022 A 
HETATM   12  C   UNL     1     -18.739 -11.554  -1.865  1.00  0.00     0.106 A 
HETATM   13  C   UNL     1     -17.740 -12.390  -1.335  1.00  0.00     0.078 A 
HETATM   14  C   UNL     1     -18.017 -13.200  -0.229  1.00  0.00     0.085 A 
HETATM   15  C   UNL     1     -19.277 -13.197   0.351  1.00  0.00     0.039 A 
HETATM   16  C   UNL     1     -20.272 -12.379  -0.179  1.00  0.00     0.017 A 
HETATM   17 BR   UNL     1     -15.996 -12.434  -2.094  1.00  0.00    -0.045 Br
HETATM   18  O   UNL     1     -18.400 -10.759  -2.934  1.00  0.00    -0.306 OA
HETATM   19  C   UNL     1     -19.347  -9.969  -3.544  1.00  0.00     0.106 A 
HETATM   20  C   UNL     1     -20.665  -9.882  -3.084  1.00  0.00     0.022 A 
HETATM   21  C   UNL     1     -21.576  -9.052  -3.773  1.00  0.00     0.017 A 
HETATM   22  C   UNL     1     -21.178  -8.305  -4.880  1.00  0.00     0.039 A 
HETATM   23  C   UNL     1     -19.862  -8.386  -5.320  1.00  0.00     0.085 A 
HETATM   24  C   UNL     1     -18.944  -9.218  -4.664  1.00  0.00     0.078 A 
HETATM   25 BR   UNL     1     -17.144  -9.308  -5.284  1.00  0.00    -0.045 Br
ENDROOT
BRANCH  14  26
HETATM   26  O   UNL     1     -17.086 -14.024   0.342  1.00  0.00    -0.359 OA
HETATM   27  H   UNL     1     -16.568 -13.488   0.971  1.00  0.00     0.217 HD
ENDBRANCH  14  26
BRANCH  23  28
HETATM   28  O   UNL     1     -19.474  -7.640  -6.399  1.00  0.00    -0.359 OA
HETATM   29  H   UNL     1     -19.465  -6.698  -6.157  1.00  0.00     0.217 HD
ENDBRANCH  23  28
TORSDOF 2
ENDMDL
MODEL 5
REMARK VINA RESULT:      -7.6      2.348      4.809
REMARK  2 active torsions:
REMARK  status: ('A' for Active; 'I' for Inactive)
REMARK    1  A    between atoms: C_14  and  O_17 
REMARK    2  A    between atoms: C_24  and  O_27 
ROOT
HETATM    1  C   UNL     1     -21.932  -6.098  -2.346  1.00  0.00     0.001 A 
HETATM    2  C   UNL     1     -21.575  -6.828  -1.200  1.00  0.00     0.001 A 
HETATM    3  C   UNL     1     -21.137  -8.150  -1.306  1.00  0.00     0.012 A 
HETATM    4  C   UNL     1     -21.071  -8.719  -2.571  1.00  0.00     0.003 A 
HETATM    5  C   UNL     1     -21.433  -7.994  -3.688  1.00  0.00     0.049 A 
HETATM    6  C   UNL     1     -21.867  -6.684  -3.610  1.00  0.00     0.018 A 
HETATM    7  C   UNL     1     -21.262  -8.827  -4.870  1.00  0.00     0.295 A 
HETATM    8  O   UNL     1     -21.501  -8.507  -6.015  1.00  0.00    -0.259 OA
HETATM    9  O   UNL     1     -20.781 -10.027  -4.442  1.00  0.00    -0.291 OA
HETATM   10  C   UNL     1     -20.625 -10.080  -3.000  1.00  0.00     0.159 A 
HETATM   11  C   UNL     1     -21.533 -11.169  -2.474  1.00  0.00     0.022 A 
HETATM   12  C   UNL     1     -21.011 -12.183  -1.661  1.00  0.00     0.106 A 
HETATM   13  C   UNL     1     -21.867 -13.171  -1.142  1.00  0.00     0.078 A 
HETATM   14  C   UNL     1     -23.235 -13.135  -1.429  1.00  0.00     0.085 A 
HETATM   15  C   UNL     1     -23.762 -12.135  -2.232  1.00  0.00     0.039 A 
HETATM   16  C   UNL     1     -22.916 -11.163  -2.758  1.00  0.00     0.017 A 
HETATM   17 BR   UNL     1     -21.194 -14.566  -0.036  1.00  0.00    -0.045 Br
HETATM   18  O   UNL     1     -19.681 -12.253  -1.322  1.00  0.00    -0.306 OA
HETATM   19  C   UNL     1     -18.778 -11.359  -1.850  1.00  0.00     0.106 A 
HETATM   20  C   UNL     1     -19.161 -10.312  -2.693  1.00  0.00     0.022 A 
HETATM   21  C   UNL     1     -18.168  -9.443  -3.198  1.00  0.00     0.017 A 
HETATM   22  C   UNL     1     -16.828  -9.597  -2.850  1.00  0.00     0.039 A 
HETATM   23  C   UNL     1     -16.459 -10.631  -1.998  1.00  0.00     0.085 A 
HETATM   24  C   UNL     1     -17.424 -11.518  -1.499  1.00  0.00     0.078 A 
HETATM   25 BR   UNL     1     -16.893 -12.926  -0.329  1.00  0.00    -0.045 Br
ENDROOT
BRANCH  14  26
HETATM   26  O   UNL     1     -24.121 -14.058  -0.944  1.00  0.00    -0.359 OA
HETATM   27  H   UNL     1     -24.341 -13.799  -0.030  1.00  0.00     0.217 HD
ENDBRANCH  14  26
BRANCH  23  28
HETATM   28  O   UNL     1     -15.144 -10.770  -1.648  1.00  0.00    -0.359 OA
HETATM   29  H   UNL     1     -14.587 -10.291  -2.284  1.00  0.00     0.217 HD
ENDBRANCH  23  28
TORSDOF 2
ENDMDL
MODEL 6
REMARK VINA RESULT:      -7.5      3.181      5.737
REMARK  2 active torsions:
REMARK  status: ('A' for Active; 'I' for Inactive)
REMARK    1  A    between atoms: C_14  and  O_17 
REMARK    2  A    between atoms: C_24  and  O_27 
ROOT
HETATM    1  C   UNL     1     -21.946  -6.326  -2.287  1.00  0.00     0.001 A 
HETATM    2  C   UNL     1     -21.601  -6.625  -3.615  1.00  0.00     0.001 A 
HETATM    3  C   UNL     1     -21.028  -7.856  -3.943  1.00  0.00     0.012 A 
HETATM    4  C   UNL     1     -20.806  -8.768  -2.920  1.00  0.00     0.003 A 
HETATM    5  C   UNL     1     -21.142  -8.459  -1.617  1.00  0.00     0.049 A 
HETATM    6  C   UNL     1     -21.712  -7.250  -1.268  1.00  0.00     0.018 A 
HETATM    7  C   UNL     1     -20.808  -9.589  -0.761  1.00  0.00     0.295 A 
HETATM    8  O   UNL     1     -20.960  -9.649   0.440  1.00  0.00    -0.259 OA
HETATM    9  O   UNL     1     -20.300 -10.561  -1.568  1.00  0.00    -0.291 OA
HETATM   10  C   UNL     1     -20.243 -10.153  -2.960  1.00  0.00     0.159 A 
HETATM   11  C   UNL     1     -18.792 -10.165  -3.389  1.00  0.00     0.022 A 
HETATM   12  C   UNL     1     -18.404 -10.887  -4.524  1.00  0.00     0.106 A 
HETATM   13  C   UNL     1     -17.062 -10.863  -4.941  1.00  0.00     0.078 A 
HETATM   14  C   UNL     1     -16.119 -10.113  -4.231  1.00  0.00     0.085 A 
HETATM   15  C   UNL     1     -16.493  -9.393  -3.105  1.00  0.00     0.039 A 
HETATM   16  C   UNL     1     -17.819  -9.425  -2.682  1.00  0.00     0.017 A 
HETATM   17 BR   UNL     1     -16.496 -11.833  -6.478  1.00  0.00    -0.045 Br
HETATM   18  O   UNL     1     -19.291 -11.618  -5.278  1.00  0.00    -0.306 OA
HETATM   19  C   UNL     1     -20.604 -11.740  -4.889  1.00  0.00     0.106 A 
HETATM   20  C   UNL     1     -21.119 -11.090  -3.762  1.00  0.00     0.022 A 
HETATM   21  C   UNL     1     -22.479 -11.275  -3.428  1.00  0.00     0.017 A 
HETATM   22  C   UNL     1     -23.314 -12.068  -4.212  1.00  0.00     0.039 A 
HETATM   23  C   UNL     1     -22.797 -12.697  -5.339  1.00  0.00     0.085 A 
HETATM   24  C   UNL     1     -21.446 -12.544  -5.681  1.00  0.00     0.078 A 
HETATM   25 BR   UNL     1     -20.763 -13.413  -7.233  1.00  0.00    -0.045 Br
ENDROOT
BRANCH  14  26
HETATM   26  O   UNL     1     -14.802 -10.037  -4.592  1.00  0.00    -0.359 OA
HETATM   27  H   UNL     1     -14.321 -10.720  -4.090  1.00  0.00     0.217 HD
ENDBRANCH  14  26
BRANCH  23  28
HETATM   28  O   UNL     1     -23.625 -13.463  -6.113  1.00  0.00    -0.359 OA
HETATM   29  H   UNL     1     -23.385 -14.400  -6.018  1.00  0.00     0.217 HD
ENDBRANCH  23  28
TORSDOF 2
ENDMDL
MODEL 7
REMARK VINA RESULT:      -7.3      3.341      6.182
REMARK  2 active torsions:
REMARK  status: ('A' for Active; 'I' for Inactive)
REMARK    1  A    between atoms: C_14  and  O_17 
REMARK    2  A    between atoms: C_24  and  O_27 
ROOT
HETATM    1  C   UNL     1     -22.694  -7.960   0.069  1.00  0.00     0.001 A 
HETATM    2  C   UNL     1     -21.600  -7.710  -0.777  1.00  0.00     0.001 A 
HETATM    3  C   UNL     1     -20.901  -8.765  -1.369  1.00  0.00     0.012 A 
HETATM    4  C   UNL     1     -21.316 -10.061  -1.093  1.00  0.00     0.003 A 
HETATM    5  C   UNL     1     -22.388 -10.294  -0.254  1.00  0.00     0.049 A 
HETATM    6  C   UNL     1     -23.096  -9.268   0.341  1.00  0.00     0.018 A 
HETATM    7  C   UNL     1     -22.604 -11.730  -0.148  1.00  0.00     0.295 A 
HETATM    8  O   UNL     1     -23.454 -12.281   0.518  1.00  0.00    -0.259 OA
HETATM    9  O   UNL     1     -21.674 -12.330  -0.942  1.00  0.00    -0.291 OA
HETATM   10  C   UNL     1     -20.795 -11.373  -1.588  1.00  0.00     0.159 A 
HETATM   11  C   UNL     1     -19.385 -11.641  -1.112  1.00  0.00     0.022 A 
HETATM   12  C   UNL     1     -18.359 -11.846  -2.043  1.00  0.00     0.106 A 
HETATM   13  C   UNL     1     -17.043 -12.056  -1.596  1.00  0.00     0.078 A 
HETATM   14  C   UNL     1     -16.757 -12.050  -0.227  1.00  0.00     0.085 A 
HETATM   15  C   UNL     1     -17.766 -11.848   0.704  1.00  0.00     0.039 A 
HETATM   16  C   UNL     1     -19.072 -11.652   0.265  1.00  0.00     0.017 A 
HETATM   17 BR   UNL     1     -15.623 -12.340  -2.832  1.00  0.00    -0.045 Br
HETATM   18  O   UNL     1     -18.575 -11.833  -3.401  1.00  0.00    -0.306 OA
HETATM   19  C   UNL     1     -19.849 -11.701  -3.904  1.00  0.00     0.106 A 
HETATM   20  C   UNL     1     -20.966 -11.513  -3.085  1.00  0.00     0.022 A 
HETATM   21  C   UNL     1     -22.240 -11.394  -3.684  1.00  0.00     0.017 A 
HETATM   22  C   UNL     1     -22.394 -11.435  -5.068  1.00  0.00     0.039 A 
HETATM   23  C   UNL     1     -21.276 -11.606  -5.874  1.00  0.00     0.085 A 
HETATM   24  C   UNL     1     -20.003 -11.746  -5.303  1.00  0.00     0.078 A 
HETATM   25 BR   UNL     1     -18.484 -11.975  -6.431  1.00  0.00    -0.045 Br
ENDROOT
BRANCH  14  26
HETATM   26  O   UNL     1     -15.496 -12.234   0.271  1.00  0.00    -0.359 OA
HETATM   27  H   UNL     1     -14.993 -11.416   0.101  1.00  0.00     0.217 HD
ENDBRANCH  14  26
BRANCH  23  28
HETATM   28  O   UNL     1     -21.431 -11.632  -7.233  1.00  0.00    -0.359 OA
HETATM   29  H   UNL     1     -22.367 -11.784  -7.450  1.00  0.00     0.217 HD
ENDBRANCH  23  28
TORSDOF 2
ENDMDL
MODEL 8
REMARK VINA RESULT:      -7.2      1.827      5.190
REMARK  2 active torsions:
REMARK  status: ('A' for Active; 'I' for Inactive)
REMARK    1  A    between atoms: C_14  and  O_17 
REMARK    2  A    between atoms: C_24  and  O_27 
ROOT
HETATM    1  C   UNL     1     -19.469 -12.547  -7.721  1.00  0.00     0.001 A 
HETATM    2  C   UNL     1     -20.517 -12.507  -6.787  1.00  0.00     0.001 A 
HETATM    3  C   UNL     1     -20.374 -11.810  -5.584  1.00  0.00     0.012 A 
HETATM    4  C   UNL     1     -19.169 -11.167  -5.340  1.00  0.00     0.003 A 
HETATM    5  C   UNL     1     -18.143 -11.220  -6.263  1.00  0.00     0.049 A 
HETATM    6  C   UNL     1     -18.261 -11.900  -7.459  1.00  0.00     0.018 A 
HETATM    7  C   UNL     1     -17.009 -10.460  -5.756  1.00  0.00     0.295 A 
HETATM    8  O   UNL     1     -15.940 -10.312  -6.307  1.00  0.00    -0.259 OA
HETATM    9  O   UNL     1     -17.383  -9.947  -4.551  1.00  0.00    -0.291 OA
HETATM   10  C   UNL     1     -18.731 -10.334  -4.177  1.00  0.00     0.159 A 
HETATM   11  C   UNL     1     -18.647 -11.139  -2.900  1.00  0.00     0.022 A 
HETATM   12  C   UNL     1     -19.415 -10.771  -1.789  1.00  0.00     0.106 A 
HETATM   13  C   UNL     1     -19.364 -11.546  -0.617  1.00  0.00     0.078 A 
HETATM   14  C   UNL     1     -18.556 -12.686  -0.564  1.00  0.00     0.085 A 
HETATM   15  C   UNL     1     -17.792 -13.061  -1.660  1.00  0.00     0.039 A 
HETATM   16  C   UNL     1     -17.832 -12.289  -2.818  1.00  0.00     0.017 A 
HETATM   17 BR   UNL     1     -20.391 -11.075   0.915  1.00  0.00    -0.045 Br
HETATM   18  O   UNL     1     -20.249  -9.678  -1.791  1.00  0.00    -0.306 OA
HETATM   19  C   UNL     1     -20.295  -8.838  -2.880  1.00  0.00     0.106 A 
HETATM   20  C   UNL     1     -19.563  -9.076  -4.046  1.00  0.00     0.022 A 
HETATM   21  C   UNL     1     -19.663  -8.159  -5.116  1.00  0.00     0.017 A 
HETATM   22  C   UNL     1     -20.494  -7.043  -5.035  1.00  0.00     0.039 A 
HETATM   23  C   UNL     1     -21.231  -6.824  -3.878  1.00  0.00     0.085 A 
HETATM   24  C   UNL     1     -21.134  -7.710  -2.796  1.00  0.00     0.078 A 
HETATM   25 BR   UNL     1     -22.158  -7.389  -1.221  1.00  0.00    -0.045 Br
ENDROOT
BRANCH  14  26
HETATM   26  O   UNL     1     -18.473 -13.490   0.540  1.00  0.00    -0.359 OA
HETATM   27  H   UNL     1     -19.062 -14.252   0.391  1.00  0.00     0.217 HD
ENDBRANCH  14  26
BRANCH  23  28
HETATM   28  O   UNL     1     -22.056  -5.735  -3.810  1.00  0.00    -0.359 OA
HETATM   29  H   UNL     1     -21.853  -5.127  -4.541  1.00  0.00     0.217 HD
ENDBRANCH  23  28
TORSDOF 2
ENDMDL
MODEL 9
REMARK VINA RESULT:      -6.9     17.980     20.674
REMARK  2 active torsions:
REMARK  status: ('A' for Active; 'I' for Inactive)
REMARK    1  A    between atoms: C_14  and  O_17 
REMARK    2  A    between atoms: C_24  and  O_27 
ROOT
HETATM    1  C   UNL     1     -21.957   8.744  -3.736  1.00  0.00     0.001 A 
HETATM    2  C   UNL     1     -22.539   9.960  -3.340  1.00  0.00     0.001 A 
HETATM    3  C   UNL     1     -23.534   9.988  -2.359  1.00  0.00     0.012 A 
HETATM    4  C   UNL     1     -23.929   8.783  -1.794  1.00  0.00     0.003 A 
HETATM    5  C   UNL     1     -23.355   7.594  -2.198  1.00  0.00     0.049 A 
HETATM    6  C   UNL     1     -22.369   7.541  -3.164  1.00  0.00     0.018 A 
HETATM    7  C   UNL     1     -23.950   6.500  -1.443  1.00  0.00     0.295 A 
HETATM    8  O   UNL     1     -23.686   5.322  -1.556  1.00  0.00    -0.259 OA
HETATM    9  O   UNL     1     -24.852   7.054  -0.586  1.00  0.00    -0.291 OA
HETATM   10  C   UNL     1     -24.932   8.497  -0.722  1.00  0.00     0.159 A 
HETATM   11  C   UNL     1     -26.340   8.846  -1.151  1.00  0.00     0.022 A 
HETATM   12  C   UNL     1     -27.083   9.780  -0.420  1.00  0.00     0.106 A 
HETATM   13  C   UNL     1     -28.377  10.130  -0.846  1.00  0.00     0.078 A 
HETATM   14  C   UNL     1     -28.914   9.556  -2.002  1.00  0.00     0.085 A 
HETATM   15  C   UNL     1     -28.186   8.630  -2.735  1.00  0.00     0.039 A 
HETATM   16  C   UNL     1     -26.910   8.272  -2.308  1.00  0.00     0.017 A 
HETATM   17 BR   UNL     1     -29.419  11.394   0.124  1.00  0.00    -0.045 Br
HETATM   18  O   UNL     1     -26.597  10.399   0.707  1.00  0.00    -0.306 OA
HETATM   19  C   UNL     1     -25.367  10.052   1.218  1.00  0.00     0.106 A 
HETATM   20  C   UNL     1     -24.531   9.118   0.599  1.00  0.00     0.022 A 
HETATM   21  C   UNL     1     -23.287   8.814   1.194  1.00  0.00     0.017 A 
HETATM   22  C   UNL     1     -22.873   9.446   2.365  1.00  0.00     0.039 A 
HETATM   23  C   UNL     1     -23.703  10.386   2.963  1.00  0.00     0.085 A 
HETATM   24  C   UNL     1     -24.951  10.690   2.402  1.00  0.00     0.078 A 
HETATM   25 BR   UNL     1     -26.070  11.986   3.240  1.00  0.00    -0.045 Br
ENDROOT
BRANCH  14  26
HETATM   26  O   UNL     1     -30.160   9.864  -2.477  1.00  0.00    -0.359 OA
HETATM   27  H   UNL     1     -30.225  10.836  -2.516  1.00  0.00     0.217 HD
ENDBRANCH  14  26
BRANCH  23  28
HETATM   28  O   UNL     1     -23.285  11.014   4.105  1.00  0.00    -0.359 OA
HETATM   29  H   UNL     1     -22.381  10.728   4.320  1.00  0.00     0.217 HD
ENDBRANCH  23  28
TORSDOF 2
ENDMDL
