MODEL 1
REMARK VINA RESULT:      -6.7      0.000      0.000
REMARK  6 active torsions:
REMARK  status: ('A' for Active; 'I' for Inactive)
REMARK    1  A    between atoms: C_1  and  C_2 
REMARK    2  A    between atoms: C_1  and  O_12 
REMARK    3  A    between atoms: C_2  and  C_3 
REMARK    4  A    between atoms: C_2  and  O_11 
REMARK    5  A    between atoms: C_4  and  O_10 
REMARK    6  A    between atoms: C_5  and  O_9 
ROOT
HETATM    1  C   UNL     1     -23.488  -2.859 -11.120  1.00  0.00     0.226 A 
HETATM    2  C   UNL     1     -24.290  -3.257  -9.899  1.00  0.00     0.156 A 
HETATM    3  C   UNL     1     -23.449  -3.837  -9.036  1.00  0.00     0.177 A 
HETATM    4  C   UNL     1     -22.084  -3.843  -9.583  1.00  0.00     0.320 A 
HETATM    5  O   UNL     1     -21.076  -4.283  -9.059  1.00  0.00    -0.257 OA
HETATM    6  O   UNL     1     -22.135  -3.268 -10.819  1.00  0.00    -0.301 OA
ENDROOT
BRANCH   1   7
HETATM    7  C   UNL     1     -23.857  -3.475 -12.500  1.00  0.00     0.177 C 
BRANCH   7   8
HETATM    8  C   UNL     1     -22.994  -2.990 -13.669  1.00  0.00     0.198 C 
BRANCH   8   9
HETATM    9  O   UNL     1     -23.461  -3.427 -14.952  1.00  0.00    -0.398 OA
HETATM   10  H   UNL     1     -24.428  -3.550 -14.846  1.00  0.00     0.209 HD
ENDBRANCH   8   9
ENDBRANCH   7   8
BRANCH   7  11
HETATM   11  O   UNL     1     -25.231  -3.282 -12.867  1.00  0.00    -0.390 OA
HETATM   12  H   UNL     1     -25.503  -2.408 -12.530  1.00  0.00     0.210 HD
ENDBRANCH   7  11
ENDBRANCH   1   7
BRANCH   2  13
HETATM   13  O   UNL     1     -25.512  -2.964  -9.839  1.00  0.00    -0.191 OA
HETATM   14 NA   UNL     2     -27.315  -3.940  -9.322  1.00  0.00     0.000 Na
ENDBRANCH   2  13
BRANCH   3  15
HETATM   15  O   UNL     1     -23.819  -4.306  -7.806  1.00  0.00    -0.353 OA
HETATM   16  H   UNL     1     -24.732  -3.964  -7.725  1.00  0.00     0.218 HD
ENDBRANCH   3  15
TORSDOF 6
ENDMDL
MODEL 2
REMARK VINA RESULT:      -6.6      2.364      3.342
REMARK  6 active torsions:
REMARK  status: ('A' for Active; 'I' for Inactive)
REMARK    1  A    between atoms: C_1  and  C_2 
REMARK    2  A    between atoms: C_1  and  O_12 
REMARK    3  A    between atoms: C_2  and  C_3 
REMARK    4  A    between atoms: C_2  and  O_11 
REMARK    5  A    between atoms: C_4  and  O_10 
REMARK    6  A    between atoms: C_5  and  O_9 
ROOT
HETATM    1  C   UNL     1     -23.258  -3.974 -11.404  1.00  0.00     0.226 A 
HETATM    2  C   UNL     1     -22.837  -4.227  -9.972  1.00  0.00     0.156 A 
HETATM    3  C   UNL     1     -23.869  -3.904  -9.186  1.00  0.00     0.177 A 
HETATM    4  C   UNL     1     -25.009  -3.459 -10.001  1.00  0.00     0.320 A 
HETATM    5  O   UNL     1     -26.106  -3.102  -9.611  1.00  0.00    -0.257 OA
HETATM    6  O   UNL     1     -24.620  -3.500 -11.308  1.00  0.00    -0.301 OA
ENDROOT
BRANCH   1   7
HETATM    7  C   UNL     1     -22.470  -2.934 -12.252  1.00  0.00     0.177 C 
BRANCH   7   8
HETATM    8  C   UNL     1     -22.780  -2.962 -13.752  1.00  0.00     0.198 C 
BRANCH   8   9
HETATM    9  O   UNL     1     -23.903  -3.786 -14.093  1.00  0.00    -0.398 OA
HETATM   10  H   UNL     1     -24.422  -3.260 -14.737  1.00  0.00     0.209 HD
ENDBRANCH   8   9
ENDBRANCH   7   8
BRANCH   7  11
HETATM   11  O   UNL     1     -21.046  -3.032 -12.102  1.00  0.00    -0.390 OA
HETATM   12  H   UNL     1     -20.815  -2.634 -11.243  1.00  0.00     0.210 HD
ENDBRANCH   7  11
ENDBRANCH   1   7
BRANCH   2  13
HETATM   13  O   UNL     1     -21.702  -4.716  -9.739  1.00  0.00    -0.191 OA
HETATM   14 NA   UNL     2     -19.779  -4.658 -10.618  1.00  0.00     0.000 Na
ENDBRANCH   2  13
BRANCH   3  15
HETATM   15  O   UNL     1     -23.859  -4.026  -7.823  1.00  0.00    -0.353 OA
HETATM   16  H   UNL     1     -24.558  -4.693  -7.675  1.00  0.00     0.218 HD
ENDBRANCH   3  15
TORSDOF 6
ENDMDL
MODEL 3
REMARK VINA RESULT:      -6.4      1.246      3.844
REMARK  6 active torsions:
REMARK  status: ('A' for Active; 'I' for Inactive)
REMARK    1  A    between atoms: C_1  and  C_2 
REMARK    2  A    between atoms: C_1  and  O_12 
REMARK    3  A    between atoms: C_2  and  C_3 
REMARK    4  A    between atoms: C_2  and  O_11 
REMARK    5  A    between atoms: C_4  and  O_10 
REMARK    6  A    between atoms: C_5  and  O_9 
ROOT
HETATM    1  C   UNL     1     -23.039  -4.049 -11.039  1.00  0.00     0.226 A 
HETATM    2  C   UNL     1     -24.340  -3.336 -11.340  1.00  0.00     0.156 A 
HETATM    3  C   UNL     1     -24.254  -2.848 -12.581  1.00  0.00     0.177 A 
HETATM    4  C   UNL     1     -22.961  -3.207 -13.180  1.00  0.00     0.320 A 
HETATM    5  O   UNL     1     -22.558  -2.934 -14.297  1.00  0.00    -0.257 OA
HETATM    6  O   UNL     1     -22.256  -3.909 -12.246  1.00  0.00    -0.301 OA
ENDROOT
BRANCH   1   7
HETATM    7  C   UNL     1     -22.156  -3.547  -9.860  1.00  0.00     0.177 C 
BRANCH   7   8
HETATM    8  C   UNL     1     -20.959  -4.443  -9.529  1.00  0.00     0.198 C 
BRANCH   8   9
HETATM    9  O   UNL     1     -20.084  -4.672 -10.642  1.00  0.00    -0.398 OA
HETATM   10  H   UNL     1     -20.614  -5.191 -11.283  1.00  0.00     0.209 HD
ENDBRANCH   8   9
ENDBRANCH   7   8
BRANCH   7  11
HETATM   11  O   UNL     1     -22.889  -3.336  -8.643  1.00  0.00    -0.390 OA
HETATM   12  H   UNL     1     -22.257  -3.015  -7.974  1.00  0.00     0.210 HD
ENDBRANCH   7  11
ENDBRANCH   1   7
BRANCH   2  13
HETATM   13  O   UNL     1     -25.263  -3.347 -10.485  1.00  0.00    -0.191 OA
HETATM   14 NA   UNL     2     -26.427  -4.798  -9.481  1.00  0.00     0.000 Na
ENDBRANCH   2  13
BRANCH   3  15
HETATM   15  O   UNL     1     -25.259  -2.159 -13.203  1.00  0.00    -0.353 OA
HETATM   16  H   UNL     1     -25.884  -2.875 -13.432  1.00  0.00     0.218 HD
ENDBRANCH   3  15
TORSDOF 6
ENDMDL
MODEL 4
REMARK VINA RESULT:      -6.2     10.532     11.380
REMARK  6 active torsions:
REMARK  status: ('A' for Active; 'I' for Inactive)
REMARK    1  A    between atoms: C_1  and  C_2 
REMARK    2  A    between atoms: C_1  and  O_12 
REMARK    3  A    between atoms: C_2  and  C_3 
REMARK    4  A    between atoms: C_2  and  O_11 
REMARK    5  A    between atoms: C_4  and  O_10 
REMARK    6  A    between atoms: C_5  and  O_9 
ROOT
HETATM    1  C   UNL     1     -33.824  -4.433 -11.810  1.00  0.00     0.226 A 
HETATM    2  C   UNL     1     -34.228  -3.331 -12.766  1.00  0.00     0.156 A 
HETATM    3  C   UNL     1     -34.321  -2.200 -12.060  1.00  0.00     0.177 A 
HETATM    4  C   UNL     1     -33.978  -2.449 -10.653  1.00  0.00     0.320 A 
HETATM    5  O   UNL     1     -33.950  -1.642  -9.741  1.00  0.00    -0.257 OA
HETATM    6  O   UNL     1     -33.696  -3.779 -10.528  1.00  0.00    -0.301 OA
ENDROOT
BRANCH   1   7
HETATM    7  C   UNL     1     -34.777  -5.648 -11.611  1.00  0.00     0.177 C 
BRANCH   7   8
HETATM    8  C   UNL     1     -34.239  -6.737 -10.677  1.00  0.00     0.198 C 
BRANCH   8   9
HETATM    9  O   UNL     1     -34.837  -8.023 -10.886  1.00  0.00    -0.398 OA
HETATM   10  H   UNL     1     -35.180  -8.293 -10.008  1.00  0.00     0.209 HD
ENDBRANCH   8   9
ENDBRANCH   7   8
BRANCH   7  11
HETATM   11  O   UNL     1     -35.163  -6.282 -12.839  1.00  0.00    -0.390 OA
HETATM   12  H   UNL     1     -34.877  -7.213 -12.789  1.00  0.00     0.210 HD
ENDBRANCH   7  11
ENDBRANCH   1   7
BRANCH   2  13
HETATM   13  O   UNL     1     -34.352  -3.590 -13.991  1.00  0.00    -0.191 OA
HETATM   14 NA   UNL     2     -34.569  -5.314 -15.196  1.00  0.00     0.000 Na
ENDBRANCH   2  13
BRANCH   3  15
HETATM   15  O   UNL     1     -34.646  -0.986 -12.601  1.00  0.00    -0.353 OA
HETATM   16  H   UNL     1     -35.266  -0.627 -11.935  1.00  0.00     0.218 HD
ENDBRANCH   3  15
TORSDOF 6
ENDMDL
MODEL 5
REMARK VINA RESULT:      -6.1      2.602      4.884
REMARK  6 active torsions:
REMARK  status: ('A' for Active; 'I' for Inactive)
REMARK    1  A    between atoms: C_1  and  C_2 
REMARK    2  A    between atoms: C_1  and  O_12 
REMARK    3  A    between atoms: C_2  and  C_3 
REMARK    4  A    between atoms: C_2  and  O_11 
REMARK    5  A    between atoms: C_4  and  O_10 
REMARK    6  A    between atoms: C_5  and  O_9 
ROOT
HETATM    1  C   UNL     1     -22.562  -3.358  -9.916  1.00  0.00     0.226 A 
HETATM    2  C   UNL     1     -22.914  -3.290 -11.386  1.00  0.00     0.156 A 
HETATM    3  C   UNL     1     -24.248  -3.276 -11.480  1.00  0.00     0.177 A 
HETATM    4  C   UNL     1     -24.853  -3.305 -10.141  1.00  0.00     0.320 A 
HETATM    5  O   UNL     1     -26.038  -3.292  -9.860  1.00  0.00    -0.257 OA
HETATM    6  O   UNL     1     -23.836  -3.363  -9.232  1.00  0.00    -0.301 OA
ENDROOT
BRANCH   1   7
HETATM    7  C   UNL     1     -21.754  -4.579  -9.387  1.00  0.00     0.177 C 
BRANCH   7   8
HETATM    8  C   UNL     1     -21.509  -4.578  -7.875  1.00  0.00     0.198 C 
BRANCH   8   9
HETATM    9  O   UNL     1     -21.796  -3.323  -7.244  1.00  0.00    -0.398 OA
HETATM   10  H   UNL     1     -20.922  -2.905  -7.095  1.00  0.00     0.209 HD
ENDBRANCH   8   9
ENDBRANCH   7   8
BRANCH   7  11
HETATM   11  O   UNL     1     -20.483  -4.749 -10.032  1.00  0.00    -0.390 OA
HETATM   12  H   UNL     1     -19.845  -4.173  -9.574  1.00  0.00     0.210 HD
ENDBRANCH   7  11
ENDBRANCH   1   7
BRANCH   2  13
HETATM   13  O   UNL     1     -21.994  -3.205 -12.240  1.00  0.00    -0.191 OA
HETATM   14 NA   UNL     2     -19.934  -3.669 -12.348  1.00  0.00     0.000 Na
ENDBRANCH   2  13
BRANCH   3  15
HETATM   15  O   UNL     1     -24.930  -3.196 -12.664  1.00  0.00    -0.353 OA
HETATM   16  H   UNL     1     -25.457  -2.381 -12.539  1.00  0.00     0.218 HD
ENDBRANCH   3  15
TORSDOF 6
ENDMDL
MODEL 6
REMARK VINA RESULT:      -6.1      1.603      4.218
REMARK  6 active torsions:
REMARK  status: ('A' for Active; 'I' for Inactive)
REMARK    1  A    between atoms: C_1  and  C_2 
REMARK    2  A    between atoms: C_1  and  O_12 
REMARK    3  A    between atoms: C_2  and  C_3 
REMARK    4  A    between atoms: C_2  and  O_11 
REMARK    5  A    between atoms: C_4  and  O_10 
REMARK    6  A    between atoms: C_5  and  O_9 
ROOT
HETATM    1  C   UNL     1     -22.748  -4.591  -9.141  1.00  0.00     0.226 A 
HETATM    2  C   UNL     1     -23.917  -4.040  -9.930  1.00  0.00     0.156 A 
HETATM    3  C   UNL     1     -23.418  -3.281 -10.911  1.00  0.00     0.177 A 
HETATM    4  C   UNL     1     -21.949  -3.292 -10.866  1.00  0.00     0.320 A 
HETATM    5  O   UNL     1     -21.179  -2.718 -11.615  1.00  0.00    -0.257 OA
HETATM    6  O   UNL     1     -21.576  -4.065  -9.806  1.00  0.00    -0.301 OA
ENDROOT
BRANCH   1   7
HETATM    7  C   UNL     1     -22.618  -4.232  -7.632  1.00  0.00     0.177 C 
BRANCH   7   8
HETATM    8  C   UNL     1     -21.505  -4.979  -6.890  1.00  0.00     0.198 C 
BRANCH   8   9
HETATM    9  O   UNL     1     -21.022  -6.136  -7.587  1.00  0.00    -0.398 OA
HETATM   10  H   UNL     1     -21.772  -6.433  -8.143  1.00  0.00     0.209 HD
ENDBRANCH   8   9
ENDBRANCH   7   8
BRANCH   7  11
HETATM   11  O   UNL     1     -23.833  -4.418  -6.891  1.00  0.00    -0.390 OA
HETATM   12  H   UNL     1     -23.938  -5.375  -6.739  1.00  0.00     0.210 HD
ENDBRANCH   7  11
ENDBRANCH   1   7
BRANCH   2  13
HETATM   13  O   UNL     1     -25.087  -4.384  -9.623  1.00  0.00    -0.191 OA
HETATM   14 NA   UNL     2     -26.982  -3.460  -9.464  1.00  0.00     0.000 Na
ENDBRANCH   2  13
BRANCH   3  15
HETATM   15  O   UNL     1     -24.185  -2.636 -11.843  1.00  0.00    -0.353 OA
HETATM   16  H   UNL     1     -23.629  -1.861 -12.060  1.00  0.00     0.218 HD
ENDBRANCH   3  15
TORSDOF 6
ENDMDL
MODEL 7
REMARK VINA RESULT:      -5.8      1.786      3.783
REMARK  6 active torsions:
REMARK  status: ('A' for Active; 'I' for Inactive)
REMARK    1  A    between atoms: C_1  and  C_2 
REMARK    2  A    between atoms: C_1  and  O_12 
REMARK    3  A    between atoms: C_2  and  C_3 
REMARK    4  A    between atoms: C_2  and  O_11 
REMARK    5  A    between atoms: C_4  and  O_10 
REMARK    6  A    between atoms: C_5  and  O_9 
ROOT
HETATM    1  C   UNL     1     -22.688  -4.542 -11.402  1.00  0.00     0.226 A 
HETATM    2  C   UNL     1     -23.498  -4.169 -10.179  1.00  0.00     0.156 A 
HETATM    3  C   UNL     1     -24.560  -3.472 -10.596  1.00  0.00     0.177 A 
HETATM    4  C   UNL     1     -24.548  -3.357 -12.062  1.00  0.00     0.320 A 
HETATM    5  O   UNL     1     -25.367  -2.798 -12.769  1.00  0.00    -0.257 OA
HETATM    6  O   UNL     1     -23.427  -3.990 -12.514  1.00  0.00    -0.301 OA
ENDROOT
BRANCH   1   7
HETATM    7  C   UNL     1     -21.224  -4.028 -11.525  1.00  0.00     0.177 C 
BRANCH   7   8
HETATM    8  C   UNL     1     -20.248  -4.625 -10.505  1.00  0.00     0.198 C 
BRANCH   8   9
HETATM    9  O   UNL     1     -20.202  -3.910  -9.264  1.00  0.00    -0.398 OA
HETATM   10  H   UNL     1     -19.317  -3.489  -9.242  1.00  0.00     0.209 HD
ENDBRANCH   8   9
ENDBRANCH   7   8
BRANCH   7  11
HETATM   11  O   UNL     1     -21.109  -2.600 -11.450  1.00  0.00    -0.390 OA
HETATM   12  H   UNL     1     -21.388  -2.331 -10.556  1.00  0.00     0.210 HD
ENDBRANCH   7  11
ENDBRANCH   1   7
BRANCH   2  13
HETATM   13  O   UNL     1     -23.132  -4.576  -9.046  1.00  0.00    -0.191 OA
HETATM   14 NA   UNL     2     -23.959  -4.708  -7.105  1.00  0.00     0.000 Na
ENDBRANCH   2  13
BRANCH   3  15
HETATM   15  O   UNL     1     -25.530  -2.986  -9.764  1.00  0.00    -0.353 OA
HETATM   16  H   UNL     1     -25.002  -2.504  -9.096  1.00  0.00     0.218 HD
ENDBRANCH   3  15
TORSDOF 6
ENDMDL
MODEL 8
REMARK VINA RESULT:      -5.7      2.841      3.932
REMARK  6 active torsions:
REMARK  status: ('A' for Active; 'I' for Inactive)
REMARK    1  A    between atoms: C_1  and  C_2 
REMARK    2  A    between atoms: C_1  and  O_12 
REMARK    3  A    between atoms: C_2  and  C_3 
REMARK    4  A    between atoms: C_2  and  O_11 
REMARK    5  A    between atoms: C_4  and  O_10 
REMARK    6  A    between atoms: C_5  and  O_9 
ROOT
HETATM    1  C   UNL     1     -22.483  -4.399 -10.084  1.00  0.00     0.226 A 
HETATM    2  C   UNL     1     -21.085  -4.432  -9.503  1.00  0.00     0.156 A 
HETATM    3  C   UNL     1     -21.203  -4.472  -8.172  1.00  0.00     0.177 A 
HETATM    4  C   UNL     1     -22.622  -4.494  -7.788  1.00  0.00     0.320 A 
HETATM    5  O   UNL     1     -23.086  -4.539  -6.662  1.00  0.00    -0.257 OA
HETATM    6  O   UNL     1     -23.359  -4.441  -8.935  1.00  0.00    -0.301 OA
ENDROOT
BRANCH   1   7
HETATM    7  C   UNL     1     -22.915  -3.177 -10.945  1.00  0.00     0.177 C 
BRANCH   7   8
HETATM    8  C   UNL     1     -24.324  -3.278 -11.538  1.00  0.00     0.198 C 
BRANCH   8   9
HETATM    9  O   UNL     1     -25.369  -3.211 -10.558  1.00  0.00    -0.398 OA
HETATM   10  H   UNL     1     -26.153  -2.877 -11.042  1.00  0.00     0.209 HD
ENDBRANCH   8   9
ENDBRANCH   7   8
BRANCH   7  11
HETATM   11  O   UNL     1     -22.012  -2.885 -12.022  1.00  0.00    -0.390 OA
HETATM   12  H   UNL     1     -21.409  -3.646 -12.111  1.00  0.00     0.210 HD
ENDBRANCH   7  11
ENDBRANCH   1   7
BRANCH   2  13
HETATM   13  O   UNL     1     -20.095  -4.474 -10.277  1.00  0.00    -0.191 OA
HETATM   14 NA   UNL     2     -19.522  -3.586 -12.109  1.00  0.00     0.000 Na
ENDBRANCH   2  13
BRANCH   3  15
HETATM   15  O   UNL     1     -20.141  -4.532  -7.312  1.00  0.00    -0.353 OA
HETATM   16  H   UNL     1     -20.452  -3.978  -6.568  1.00  0.00     0.218 HD
ENDBRANCH   3  15
TORSDOF 6
ENDMDL
MODEL 9
REMARK VINA RESULT:      -5.7     10.065     11.719
REMARK  6 active torsions:
REMARK  status: ('A' for Active; 'I' for Inactive)
REMARK    1  A    between atoms: C_1  and  C_2 
REMARK    2  A    between atoms: C_1  and  O_12 
REMARK    3  A    between atoms: C_2  and  C_3 
REMARK    4  A    between atoms: C_2  and  O_11 
REMARK    5  A    between atoms: C_4  and  O_10 
REMARK    6  A    between atoms: C_5  and  O_9 
ROOT
HETATM    1  C   UNL     1     -34.046  -2.511 -11.609  1.00  0.00     0.226 A 
HETATM    2  C   UNL     1     -34.738  -2.352 -12.946  1.00  0.00     0.156 A 
HETATM    3  C   UNL     1     -35.551  -1.295 -12.856  1.00  0.00     0.177 A 
HETATM    4  C   UNL     1     -35.447  -0.685 -11.522  1.00  0.00     0.320 A 
HETATM    5  O   UNL     1     -36.038   0.294 -11.105  1.00  0.00    -0.257 OA
HETATM    6  O   UNL     1     -34.558  -1.427 -10.800  1.00  0.00    -0.301 OA
ENDROOT
BRANCH   1   7
HETATM    7  C   UNL     1     -34.257  -3.824 -10.800  1.00  0.00     0.177 C 
BRANCH   7   8
HETATM    8  C   UNL     1     -33.319  -4.971 -11.188  1.00  0.00     0.198 C 
BRANCH   8   9
HETATM    9  O   UNL     1     -32.417  -4.645 -12.253  1.00  0.00    -0.398 OA
HETATM   10  H   UNL     1     -32.340  -5.464 -12.786  1.00  0.00     0.209 HD
ENDBRANCH   8   9
ENDBRANCH   7   8
BRANCH   7  11
HETATM   11  O   UNL     1     -35.600  -4.325 -10.858  1.00  0.00    -0.390 OA
HETATM   12  H   UNL     1     -35.997  -4.198  -9.976  1.00  0.00     0.210 HD
ENDBRANCH   7  11
ENDBRANCH   1   7
BRANCH   2  13
HETATM   13  O   UNL     1     -34.439  -3.125 -13.892  1.00  0.00    -0.191 OA
HETATM   14 NA   UNL     2     -32.723  -4.163 -14.562  1.00  0.00     0.000 Na
ENDBRANCH   2  13
BRANCH   3  15
HETATM   15  O   UNL     1     -36.325  -0.835 -13.886  1.00  0.00    -0.353 OA
HETATM   16  H   UNL     1     -36.359   0.125 -13.701  1.00  0.00     0.218 HD
ENDBRANCH   3  15
TORSDOF 6
ENDMDL
