MODEL 1
REMARK VINA RESULT:      -6.8      0.000      0.000
REMARK  0 active torsions:
REMARK  status: ('A' for Active; 'I' for Inactive)
ROOT
HETATM    1  C   UNL     1     -20.027  -4.582  -8.407  1.00  0.00     0.157 C 
HETATM    2  N   UNL     1     -21.444  -4.333  -8.495  1.00  0.00    -0.340 N 
HETATM    3  C   UNL     1     -22.343  -4.390  -7.463  1.00  0.00     0.184 A 
HETATM    4  N   UNL     1     -23.563  -4.086  -7.864  1.00  0.00    -0.336 N 
ATOM      5  HN  UNL     1     -24.415  -4.050  -7.304  1.00  0.00     0.168 HD
HETATM    6  C   UNL     1     -23.429  -3.832  -9.196  1.00  0.00     0.145 A 
HETATM    7  C   UNL     1     -22.141  -3.980  -9.614  1.00  0.00     0.149 A 
HETATM    8  C   UNL     1     -21.729  -3.777 -10.959  1.00  0.00     0.282 A 
HETATM    9  O   UNL     1     -20.566  -3.917 -11.323  1.00  0.00    -0.265 OA
HETATM   10  N   UNL     1     -22.782  -3.404 -11.797  1.00  0.00    -0.269 N 
HETATM   11  C   UNL     1     -24.126  -3.240 -11.405  1.00  0.00     0.332 A 
HETATM   12  O   UNL     1     -24.990  -2.912 -12.224  1.00  0.00    -0.246 OA
HETATM   13  N   UNL     1     -24.431  -3.464 -10.061  1.00  0.00    -0.287 N 
HETATM   14  C   UNL     1     -25.791  -3.303  -9.579  1.00  0.00     0.163 C 
HETATM   15  C   UNL     1     -22.487  -3.159 -13.194  1.00  0.00     0.164 C 
ENDROOT
TORSDOF 0
ENDMDL
MODEL 2
REMARK VINA RESULT:      -6.6      1.551      3.107
REMARK  0 active torsions:
REMARK  status: ('A' for Active; 'I' for Inactive)
ROOT
HETATM    1  C   UNL     1     -20.429  -4.511  -8.456  1.00  0.00     0.157 C 
HETATM    2  N   UNL     1     -20.820  -4.142  -9.794  1.00  0.00    -0.340 N 
HETATM    3  C   UNL     1     -19.995  -4.043 -10.882  1.00  0.00     0.184 A 
HETATM    4  N   UNL     1     -20.663  -3.707 -11.970  1.00  0.00    -0.336 N 
ATOM      5  HN  UNL     1     -20.295  -3.568 -12.911  1.00  0.00     0.168 HD
HETATM    6  C   UNL     1     -21.954  -3.586 -11.551  1.00  0.00     0.145 A 
HETATM    7  C   UNL     1     -22.081  -3.841 -10.219  1.00  0.00     0.149 A 
HETATM    8  C   UNL     1     -23.322  -3.782  -9.529  1.00  0.00     0.282 A 
HETATM    9  O   UNL     1     -23.424  -4.011  -8.329  1.00  0.00    -0.265 OA
HETATM   10  N   UNL     1     -24.390  -3.441 -10.363  1.00  0.00    -0.269 N 
HETATM   11  C   UNL     1     -24.299  -3.170 -11.744  1.00  0.00     0.332 A 
HETATM   12  O   UNL     1     -25.303  -2.871 -12.398  1.00  0.00    -0.246 OA
HETATM   13  N   UNL     1     -23.035  -3.254 -12.330  1.00  0.00    -0.287 N 
HETATM   14  C   UNL     1     -22.865  -2.999 -13.750  1.00  0.00     0.163 C 
HETATM   15  C   UNL     1     -25.712  -3.357  -9.778  1.00  0.00     0.164 C 
ENDROOT
TORSDOF 0
ENDMDL
MODEL 3
REMARK VINA RESULT:      -5.7      2.053      3.450
REMARK  0 active torsions:
REMARK  status: ('A' for Active; 'I' for Inactive)
ROOT
HETATM    1  C   UNL     1     -21.407  -5.563  -5.671  1.00  0.00     0.157 C 
HETATM    2  N   UNL     1     -20.944  -5.154  -6.974  1.00  0.00    -0.340 N 
HETATM    3  C   UNL     1     -19.663  -5.252  -7.448  1.00  0.00     0.184 A 
HETATM    4  N   UNL     1     -19.569  -4.812  -8.689  1.00  0.00    -0.336 N 
ATOM      5  HN  UNL     1     -18.736  -4.774  -9.277  1.00  0.00     0.168 HD
HETATM    6  C   UNL     1     -20.835  -4.421  -9.007  1.00  0.00     0.145 A 
HETATM    7  C   UNL     1     -21.701  -4.614  -7.974  1.00  0.00     0.149 A 
HETATM    8  C   UNL     1     -23.082  -4.287  -8.042  1.00  0.00     0.282 A 
HETATM    9  O   UNL     1     -23.851  -4.461  -7.103  1.00  0.00    -0.265 OA
HETATM   10  N   UNL     1     -23.452  -3.756  -9.280  1.00  0.00    -0.269 N 
HETATM   11  C   UNL     1     -22.587  -3.541 -10.373  1.00  0.00     0.332 A 
HETATM   12  O   UNL     1     -23.009  -3.060 -11.429  1.00  0.00    -0.246 OA
HETATM   13  N   UNL     1     -21.247  -3.895 -10.207  1.00  0.00    -0.287 N 
HETATM   14  C   UNL     1     -20.299  -3.714 -11.292  1.00  0.00     0.163 C 
HETATM   15  C   UNL     1     -24.839  -3.390  -9.478  1.00  0.00     0.164 C 
ENDROOT
TORSDOF 0
ENDMDL
MODEL 4
REMARK VINA RESULT:      -5.5      6.692      8.705
REMARK  0 active torsions:
REMARK  status: ('A' for Active; 'I' for Inactive)
ROOT
HETATM    1  C   UNL     1     -21.309  -8.353   0.091  1.00  0.00     0.157 C 
HETATM    2  N   UNL     1     -21.505  -7.621  -1.136  1.00  0.00    -0.340 N 
HETATM    3  C   UNL     1     -22.323  -6.538  -1.312  1.00  0.00     0.184 A 
HETATM    4  N   UNL     1     -22.263  -6.079  -2.549  1.00  0.00    -0.336 N 
ATOM      5  HN  UNL     1     -22.766  -5.286  -2.946  1.00  0.00     0.168 HD
HETATM    6  C   UNL     1     -21.377  -6.905  -3.174  1.00  0.00     0.145 A 
HETATM    7  C   UNL     1     -20.899  -7.865  -2.334  1.00  0.00     0.149 A 
HETATM    8  C   UNL     1     -19.962  -8.856  -2.735  1.00  0.00     0.282 A 
HETATM    9  O   UNL     1     -19.542  -9.718  -1.971  1.00  0.00    -0.265 OA
HETATM   10  N   UNL     1     -19.585  -8.733  -4.075  1.00  0.00    -0.269 N 
HETATM   11  C   UNL     1     -20.056  -7.756  -4.975  1.00  0.00     0.332 A 
HETATM   12  O   UNL     1     -19.666  -7.732  -6.146  1.00  0.00    -0.246 OA
HETATM   13  N   UNL     1     -20.975  -6.826  -4.485  1.00  0.00    -0.287 N 
HETATM   14  C   UNL     1     -21.497  -5.782  -5.349  1.00  0.00     0.163 C 
HETATM   15  C   UNL     1     -18.626  -9.682  -4.602  1.00  0.00     0.164 C 
ENDROOT
TORSDOF 0
ENDMDL
MODEL 5
REMARK VINA RESULT:      -5.3     17.026     18.170
REMARK  0 active torsions:
REMARK  status: ('A' for Active; 'I' for Inactive)
ROOT
HETATM    1  C   UNL     1     -14.139   3.737 -22.519  1.00  0.00     0.157 C 
HETATM    2  N   UNL     1     -13.040   3.870 -21.595  1.00  0.00    -0.340 N 
HETATM    3  C   UNL     1     -12.301   2.850 -21.059  1.00  0.00     0.184 A 
HETATM    4  N   UNL     1     -11.349   3.303 -20.265  1.00  0.00    -0.336 N 
ATOM      5  HN  UNL     1     -10.660   2.761 -19.743  1.00  0.00     0.168 HD
HETATM    6  C   UNL     1     -11.496   4.657 -20.299  1.00  0.00     0.145 A 
HETATM    7  C   UNL     1     -12.529   5.036 -21.102  1.00  0.00     0.149 A 
HETATM    8  C   UNL     1     -12.898   6.393 -21.311  1.00  0.00     0.282 A 
HETATM    9  O   UNL     1     -13.832   6.721 -22.033  1.00  0.00    -0.265 OA
HETATM   10  N   UNL     1     -12.086   7.288 -20.610  1.00  0.00    -0.269 N 
HETATM   11  C   UNL     1     -11.009   6.937 -19.770  1.00  0.00     0.332 A 
HETATM   12  O   UNL     1     -10.351   7.804 -19.188  1.00  0.00    -0.246 OA
HETATM   13  N   UNL     1     -10.726   5.577 -19.630  1.00  0.00    -0.287 N 
HETATM   14  C   UNL     1      -9.625   5.138 -18.791  1.00  0.00     0.163 C 
HETATM   15  C   UNL     1     -12.357   8.704 -20.748  1.00  0.00     0.164 C 
ENDROOT
TORSDOF 0
ENDMDL
MODEL 6
REMARK VINA RESULT:      -5.2      6.839      8.920
REMARK  0 active torsions:
REMARK  status: ('A' for Active; 'I' for Inactive)
ROOT
HETATM    1  C   UNL     1     -22.449  -7.562  -0.160  1.00  0.00     0.157 C 
HETATM    2  N   UNL     1     -21.522  -8.230  -1.039  1.00  0.00    -0.340 N 
HETATM    3  C   UNL     1     -20.796  -9.355  -0.749  1.00  0.00     0.184 A 
HETATM    4  N   UNL     1     -20.055  -9.733  -1.774  1.00  0.00    -0.336 N 
ATOM      5  HN  UNL     1     -19.425 -10.534  -1.828  1.00  0.00     0.168 HD
HETATM    6  C   UNL     1     -20.320  -8.812  -2.742  1.00  0.00     0.145 A 
HETATM    7  C   UNL     1     -21.212  -7.874  -2.320  1.00  0.00     0.149 A 
HETATM    8  C   UNL     1     -21.658  -6.798  -3.135  1.00  0.00     0.282 A 
HETATM    9  O   UNL     1     -22.459  -5.957  -2.741  1.00  0.00    -0.265 OA
HETATM   10  N   UNL     1     -21.088  -6.813  -4.410  1.00  0.00    -0.269 N 
HETATM   11  C   UNL     1     -20.162  -7.765  -4.885  1.00  0.00     0.332 A 
HETATM   12  O   UNL     1     -19.709  -7.691  -6.031  1.00  0.00    -0.246 OA
HETATM   13  N   UNL     1     -19.786  -8.784  -4.008  1.00  0.00    -0.287 N 
HETATM   14  C   UNL     1     -18.846  -9.807  -4.429  1.00  0.00     0.163 C 
HETATM   15  C   UNL     1     -21.470  -5.770  -5.340  1.00  0.00     0.164 C 
ENDROOT
TORSDOF 0
ENDMDL
MODEL 7
REMARK VINA RESULT:      -5.1      1.497      3.039
REMARK  0 active torsions:
REMARK  status: ('A' for Active; 'I' for Inactive)
ROOT
HETATM    1  C   UNL     1     -23.824  -4.675  -7.091  1.00  0.00     0.157 C 
HETATM    2  N   UNL     1     -22.769  -4.405  -8.036  1.00  0.00    -0.340 N 
HETATM    3  C   UNL     1     -21.423  -4.513  -7.803  1.00  0.00     0.184 A 
HETATM    4  N   UNL     1     -20.718  -4.219  -8.879  1.00  0.00    -0.336 N 
ATOM      5  HN  UNL     1     -19.703  -4.221  -8.981  1.00  0.00     0.168 HD
HETATM    6  C   UNL     1     -21.652  -3.912  -9.823  1.00  0.00     0.145 A 
HETATM    7  C   UNL     1     -22.920  -4.012  -9.334  1.00  0.00     0.149 A 
HETATM    8  C   UNL     1     -24.079  -3.743 -10.111  1.00  0.00     0.282 A 
HETATM    9  O   UNL     1     -25.215  -3.833  -9.658  1.00  0.00    -0.265 OA
HETATM   10  N   UNL     1     -23.777  -3.373 -11.424  1.00  0.00    -0.269 N 
HETATM   11  C   UNL     1     -22.481  -3.258 -11.967  1.00  0.00     0.332 A 
HETATM   12  O   UNL     1     -22.315  -2.919 -13.143  1.00  0.00    -0.246 OA
HETATM   13  N   UNL     1     -21.406  -3.544 -11.123  1.00  0.00    -0.287 N 
HETATM   14  C   UNL     1     -20.042  -3.458 -11.614  1.00  0.00     0.163 C 
HETATM   15  C   UNL     1     -24.877  -3.081 -12.320  1.00  0.00     0.164 C 
ENDROOT
TORSDOF 0
ENDMDL
MODEL 8
REMARK VINA RESULT:      -5.0      8.304     10.662
REMARK  0 active torsions:
REMARK  status: ('A' for Active; 'I' for Inactive)
ROOT
HETATM    1  C   UNL     1     -21.490  -6.124  -4.254  1.00  0.00     0.157 C 
HETATM    2  N   UNL     1     -20.928  -7.353  -3.751  1.00  0.00    -0.340 N 
HETATM    3  C   UNL     1     -20.091  -8.199  -4.428  1.00  0.00     0.184 A 
HETATM    4  N   UNL     1     -19.732  -9.227  -3.681  1.00  0.00    -0.336 N 
ATOM      5  HN  UNL     1     -19.117 -10.001  -3.937  1.00  0.00     0.168 HD
HETATM    6  C   UNL     1     -20.368  -9.023  -2.494  1.00  0.00     0.145 A 
HETATM    7  C   UNL     1     -21.114  -7.884  -2.507  1.00  0.00     0.149 A 
HETATM    8  C   UNL     1     -21.879  -7.439  -1.395  1.00  0.00     0.282 A 
HETATM    9  O   UNL     1     -22.550  -6.413  -1.421  1.00  0.00    -0.265 OA
HETATM   10  N   UNL     1     -21.777  -8.292  -0.293  1.00  0.00    -0.269 N 
HETATM   11  C   UNL     1     -21.017  -9.478  -0.239  1.00  0.00     0.332 A 
HETATM   12  O   UNL     1     -20.994 -10.170   0.783  1.00  0.00    -0.246 OA
HETATM   13  N   UNL     1     -20.300  -9.829  -1.384  1.00  0.00    -0.287 N 
HETATM   14  C   UNL     1     -19.485 -11.031  -1.401  1.00  0.00     0.163 C 
HETATM   15  C   UNL     1     -22.507  -7.942   0.909  1.00  0.00     0.164 C 
ENDROOT
TORSDOF 0
ENDMDL
MODEL 9
REMARK VINA RESULT:      -4.9     17.980     19.850
REMARK  0 active torsions:
REMARK  status: ('A' for Active; 'I' for Inactive)
ROOT
HETATM    1  C   UNL     1     -12.244   4.542 -19.866  1.00  0.00     0.157 C 
HETATM    2  N   UNL     1     -11.249   5.562 -20.090  1.00  0.00    -0.340 N 
HETATM    3  C   UNL     1      -9.950   5.537 -19.657  1.00  0.00     0.184 A 
HETATM    4  N   UNL     1      -9.288   6.610 -20.046  1.00  0.00    -0.336 N 
ATOM      5  HN  UNL     1      -8.311   6.842 -19.863  1.00  0.00     0.168 HD
HETATM    6  C   UNL     1     -10.203   7.338 -20.746  1.00  0.00     0.145 A 
HETATM    7  C   UNL     1     -11.417   6.724 -20.786  1.00  0.00     0.149 A 
HETATM    8  C   UNL     1     -12.548   7.273 -21.450  1.00  0.00     0.282 A 
HETATM    9  O   UNL     1     -13.638   6.711 -21.476  1.00  0.00    -0.265 OA
HETATM   10  N   UNL     1     -12.275   8.501 -22.057  1.00  0.00    -0.269 N 
HETATM   11  C   UNL     1     -11.033   9.169 -22.039  1.00  0.00     0.332 A 
HETATM   12  O   UNL     1     -10.891  10.257 -22.604  1.00  0.00    -0.246 OA
HETATM   13  N   UNL     1      -9.984   8.548 -21.360  1.00  0.00    -0.287 N 
HETATM   14  C   UNL     1      -8.672   9.169 -21.307  1.00  0.00     0.163 C 
HETATM   15  C   UNL     1     -13.347   9.159 -22.775  1.00  0.00     0.164 C 
ENDROOT
TORSDOF 0
ENDMDL
