MODEL 1
REMARK VINA RESULT:      -4.6      0.000      0.000
REMARK  5 active torsions:
REMARK  status: ('A' for Active; 'I' for Inactive)
REMARK    1  A    between atoms: C_1  and  C_2 
REMARK    2  A    between atoms: C_1  and  O_9 
REMARK    3  A    between atoms: C_2  and  C_3 
REMARK    4  A    between atoms: C_2  and  N_5 
REMARK    5  A    between atoms: C_3  and  O_4 
ROOT
HETATM    1  C   UNL     1     -23.595  -3.712 -10.994  1.00  0.00     0.195 C 
HETATM    2 BR   UNL     1     -21.670  -3.301 -10.880  1.00  0.00    -0.050 Br
ENDROOT
BRANCH   1   3
HETATM    3  C   UNL     1     -24.277  -3.191  -9.726  1.00  0.00     0.216 C 
BRANCH   3   4
HETATM    4  O   UNL     1     -25.703  -3.289  -9.771  1.00  0.00    -0.397 OA
HETATM    5  H   UNL     1     -25.970  -3.968  -9.118  1.00  0.00     0.209 HD
ENDBRANCH   3   4
ENDBRANCH   1   3
BRANCH   1   6
HETATM    6  C   UNL     1     -23.792  -5.207 -11.243  1.00  0.00     0.216 C 
BRANCH   6   7
HETATM    7  O   UNL     1     -23.852  -5.525 -12.639  1.00  0.00    -0.397 OA
HETATM    8  H   UNL     1     -23.968  -6.489 -12.724  1.00  0.00     0.209 HD
ENDBRANCH   6   7
ENDBRANCH   1   6
BRANCH   1   9
HETATM    9  N   UNL     1     -24.088  -2.955 -12.212  1.00  0.00    -0.129 N 
HETATM   10  O   UNL     1     -25.306  -2.955 -12.449  1.00  0.00    -0.535 OA
HETATM   11  O   UNL     1     -23.242  -2.386 -12.920  1.00  0.00    -0.535 OA
ENDBRANCH   1   9
TORSDOF 5
ENDMDL
MODEL 2
REMARK VINA RESULT:      -4.6      1.185      2.509
REMARK  5 active torsions:
REMARK  status: ('A' for Active; 'I' for Inactive)
REMARK    1  A    between atoms: C_1  and  C_2 
REMARK    2  A    between atoms: C_1  and  O_9 
REMARK    3  A    between atoms: C_2  and  C_3 
REMARK    4  A    between atoms: C_2  and  N_5 
REMARK    5  A    between atoms: C_3  and  O_4 
ROOT
HETATM    1  C   UNL     1     -23.277  -3.826 -10.988  1.00  0.00     0.195 C 
HETATM    2 BR   UNL     1     -22.866  -3.744  -9.062  1.00  0.00    -0.050 Br
ENDROOT
BRANCH   1   3
HETATM    3  C   UNL     1     -23.276  -5.294 -11.421  1.00  0.00     0.216 C 
BRANCH   3   4
HETATM    4  O   UNL     1     -23.903  -5.509 -12.688  1.00  0.00    -0.397 OA
HETATM    5  H   UNL     1     -23.351  -6.148 -13.184  1.00  0.00     0.209 HD
ENDBRANCH   3   4
ENDBRANCH   1   3
BRANCH   1   6
HETATM    6  C   UNL     1     -22.301  -2.942 -11.764  1.00  0.00     0.216 C 
BRANCH   6   7
HETATM    7  O   UNL     1     -22.115  -3.388 -13.113  1.00  0.00    -0.397 OA
HETATM    8  H   UNL     1     -22.353  -2.653 -13.708  1.00  0.00     0.209 HD
ENDBRANCH   6   7
ENDBRANCH   1   6
BRANCH   1   9
HETATM    9  N   UNL     1     -24.667  -3.234 -11.120  1.00  0.00    -0.129 N 
HETATM   10  O   UNL     1     -25.352  -3.112 -10.093  1.00  0.00    -0.535 OA
HETATM   11  O   UNL     1     -25.053  -2.916 -12.256  1.00  0.00    -0.535 OA
ENDBRANCH   1   9
TORSDOF 5
ENDMDL
MODEL 3
REMARK VINA RESULT:      -4.5     17.804     18.560
REMARK  5 active torsions:
REMARK  status: ('A' for Active; 'I' for Inactive)
REMARK    1  A    between atoms: C_1  and  C_2 
REMARK    2  A    between atoms: C_1  and  O_9 
REMARK    3  A    between atoms: C_2  and  C_3 
REMARK    4  A    between atoms: C_2  and  N_5 
REMARK    5  A    between atoms: C_3  and  O_4 
ROOT
HETATM    1  C   UNL     1     -10.754   6.606 -20.101  1.00  0.00     0.195 C 
HETATM    2 BR   UNL     1     -10.903   6.357 -22.050  1.00  0.00    -0.050 Br
ENDROOT
BRANCH   1   3
HETATM    3  C   UNL     1     -10.415   8.073 -19.824  1.00  0.00     0.216 C 
BRANCH   3   4
HETATM    4  O   UNL     1     -10.374   8.390 -18.431  1.00  0.00    -0.397 OA
HETATM    5  H   UNL     1     -10.759   9.284 -18.322  1.00  0.00     0.209 HD
ENDBRANCH   3   4
ENDBRANCH   1   3
BRANCH   1   6
HETATM    6  C   UNL     1      -9.748   5.610 -19.526  1.00  0.00     0.216 C 
BRANCH   6   7
HETATM    7  O   UNL     1      -9.576   5.761 -18.111  1.00  0.00    -0.397 OA
HETATM    8  H   UNL     1      -8.676   6.100 -17.952  1.00  0.00     0.209 HD
ENDBRANCH   6   7
ENDBRANCH   1   6
BRANCH   1   9
HETATM    9  N   UNL     1     -12.128   6.266 -19.554  1.00  0.00    -0.129 N 
HETATM   10  O   UNL     1     -12.329   5.111 -19.149  1.00  0.00    -0.535 OA
HETATM   11  O   UNL     1     -12.987   7.162 -19.556  1.00  0.00    -0.535 OA
ENDBRANCH   1   9
TORSDOF 5
ENDMDL
MODEL 4
REMARK VINA RESULT:      -4.3     10.278     10.842
REMARK  5 active torsions:
REMARK  status: ('A' for Active; 'I' for Inactive)
REMARK    1  A    between atoms: C_1  and  C_2 
REMARK    2  A    between atoms: C_1  and  O_9 
REMARK    3  A    between atoms: C_2  and  C_3 
REMARK    4  A    between atoms: C_2  and  N_5 
REMARK    5  A    between atoms: C_3  and  O_4 
ROOT
HETATM    1  C   UNL     1     -34.188  -3.324 -11.559  1.00  0.00     0.195 C 
HETATM    2 BR   UNL     1     -32.622  -4.408 -12.066  1.00  0.00    -0.050 Br
ENDROOT
BRANCH   1   3
HETATM    3  C   UNL     1     -33.710  -2.163 -10.682  1.00  0.00     0.216 C 
BRANCH   3   4
HETATM    4  O   UNL     1     -34.781  -1.368 -10.165  1.00  0.00    -0.397 OA
HETATM    5  H   UNL     1     -35.480  -1.981  -9.860  1.00  0.00     0.209 HD
ENDBRANCH   3   4
ENDBRANCH   1   3
BRANCH   1   6
HETATM    6  C   UNL     1     -35.243  -4.213 -10.902  1.00  0.00     0.216 C 
BRANCH   6   7
HETATM    7  O   UNL     1     -36.466  -3.510 -10.645  1.00  0.00    -0.397 OA
HETATM    8  H   UNL     1     -36.384  -3.071  -9.778  1.00  0.00     0.209 HD
ENDBRANCH   6   7
ENDBRANCH   1   6
BRANCH   1   9
HETATM    9  N   UNL     1     -34.748  -2.804 -12.869  1.00  0.00    -0.129 N 
HETATM   10  O   UNL     1     -35.616  -1.919 -12.826  1.00  0.00    -0.535 OA
HETATM   11  O   UNL     1     -34.318  -3.306 -13.920  1.00  0.00    -0.535 OA
ENDBRANCH   1   9
TORSDOF 5
ENDMDL
MODEL 5
REMARK VINA RESULT:      -4.3     10.298     11.020
REMARK  5 active torsions:
REMARK  status: ('A' for Active; 'I' for Inactive)
REMARK    1  A    between atoms: C_1  and  C_2 
REMARK    2  A    between atoms: C_1  and  O_9 
REMARK    3  A    between atoms: C_2  and  C_3 
REMARK    4  A    between atoms: C_2  and  N_5 
REMARK    5  A    between atoms: C_3  and  O_4 
ROOT
HETATM    1  C   UNL     1     -34.079  -3.674 -11.685  1.00  0.00     0.195 C 
HETATM    2 BR   UNL     1     -34.202  -5.360 -10.671  1.00  0.00    -0.050 Br
ENDROOT
BRANCH   1   3
HETATM    3  C   UNL     1     -33.742  -4.009 -13.141  1.00  0.00     0.216 C 
BRANCH   3   4
HETATM    4  O   UNL     1     -34.722  -4.839 -13.771  1.00  0.00    -0.397 OA
HETATM    5  H   UNL     1     -34.746  -4.596 -14.719  1.00  0.00     0.209 HD
ENDBRANCH   3   4
ENDBRANCH   1   3
BRANCH   1   6
HETATM    6  C   UNL     1     -33.081  -2.735 -11.010  1.00  0.00     0.216 C 
BRANCH   6   7
HETATM    7  O   UNL     1     -33.727  -1.721 -10.230  1.00  0.00    -0.397 OA
HETATM    8  H   UNL     1     -33.043  -1.257  -9.713  1.00  0.00     0.209 HD
ENDBRANCH   6   7
ENDBRANCH   1   6
BRANCH   1   9
HETATM    9  N   UNL     1     -35.460  -3.055 -11.589  1.00  0.00    -0.129 N 
HETATM   10  O   UNL     1     -36.229  -3.469 -10.708  1.00  0.00    -0.535 OA
HETATM   11  O   UNL     1     -35.756  -2.173 -12.411  1.00  0.00    -0.535 OA
ENDBRANCH   1   9
TORSDOF 5
ENDMDL
MODEL 6
REMARK VINA RESULT:      -4.2     12.961     13.539
REMARK  5 active torsions:
REMARK  status: ('A' for Active; 'I' for Inactive)
REMARK    1  A    between atoms: C_1  and  C_2 
REMARK    2  A    between atoms: C_1  and  O_9 
REMARK    3  A    between atoms: C_2  and  C_3 
REMARK    4  A    between atoms: C_2  and  N_5 
REMARK    5  A    between atoms: C_3  and  O_4 
ROOT
HETATM    1  C   UNL     1     -36.115  -0.008 -14.960  1.00  0.00     0.195 C 
HETATM    2 BR   UNL     1     -38.035  -0.030 -14.518  1.00  0.00    -0.050 Br
ENDROOT
BRANCH   1   3
HETATM    3  C   UNL     1     -35.333  -0.516 -13.744  1.00  0.00     0.216 C 
BRANCH   3   4
HETATM    4  O   UNL     1     -35.988  -1.586 -13.059  1.00  0.00    -0.397 OA
HETATM    5  H   UNL     1     -36.455  -1.200 -12.290  1.00  0.00     0.209 HD
ENDBRANCH   3   4
ENDBRANCH   1   3
BRANCH   1   6
HETATM    6  C   UNL     1     -35.706   1.387 -15.429  1.00  0.00     0.216 C 
BRANCH   6   7
HETATM    7  O   UNL     1     -36.741   2.035 -16.180  1.00  0.00    -0.397 OA
HETATM    8  H   UNL     1     -36.839   1.563 -17.028  1.00  0.00     0.209 HD
ENDBRANCH   6   7
ENDBRANCH   1   6
BRANCH   1   9
HETATM    9  N   UNL     1     -35.967  -0.968 -16.125  1.00  0.00    -0.129 N 
HETATM   10  O   UNL     1     -36.661  -0.776 -17.134  1.00  0.00    -0.535 OA
HETATM   11  O   UNL     1     -35.167  -1.909 -15.999  1.00  0.00    -0.535 OA
ENDBRANCH   1   9
TORSDOF 5
ENDMDL
MODEL 7
REMARK VINA RESULT:      -4.2     12.717     13.268
REMARK  5 active torsions:
REMARK  status: ('A' for Active; 'I' for Inactive)
REMARK    1  A    between atoms: C_1  and  C_2 
REMARK    2  A    between atoms: C_1  and  O_9 
REMARK    3  A    between atoms: C_2  and  C_3 
REMARK    4  A    between atoms: C_2  and  N_5 
REMARK    5  A    between atoms: C_3  and  O_4 
ROOT
HETATM    1  C   UNL     1     -35.927  -0.135 -15.004  1.00  0.00     0.195 C 
HETATM    2 BR   UNL     1     -37.849  -0.109 -14.571  1.00  0.00    -0.050 Br
ENDROOT
BRANCH   1   3
HETATM    3  C   UNL     1     -35.449   1.310 -15.172  1.00  0.00     0.216 C 
BRANCH   3   4
HETATM    4  O   UNL     1     -36.239   2.063 -16.096  1.00  0.00    -0.397 OA
HETATM    5  H   UNL     1     -36.682   1.424 -16.691  1.00  0.00     0.209 HD
ENDBRANCH   3   4
ENDBRANCH   1   3
BRANCH   1   6
HETATM    6  C   UNL     1     -35.682  -1.022 -16.225  1.00  0.00     0.216 C 
BRANCH   6   7
HETATM    7  O   UNL     1     -36.546  -0.694 -17.320  1.00  0.00    -0.397 OA
HETATM    8  H   UNL     1     -36.513  -1.428 -17.961  1.00  0.00     0.209 HD
ENDBRANCH   6   7
ENDBRANCH   1   6
BRANCH   1   9
HETATM    9  N   UNL     1     -35.261  -0.779 -13.804  1.00  0.00    -0.129 N 
HETATM   10  O   UNL     1     -34.994  -1.989 -13.860  1.00  0.00    -0.535 OA
HETATM   11  O   UNL     1     -35.032  -0.061 -12.817  1.00  0.00    -0.535 OA
ENDBRANCH   1   9
TORSDOF 5
ENDMDL
MODEL 8
REMARK VINA RESULT:      -4.1      1.252      2.755
REMARK  5 active torsions:
REMARK  status: ('A' for Active; 'I' for Inactive)
REMARK    1  A    between atoms: C_1  and  C_2 
REMARK    2  A    between atoms: C_1  and  O_9 
REMARK    3  A    between atoms: C_2  and  C_3 
REMARK    4  A    between atoms: C_2  and  N_5 
REMARK    5  A    between atoms: C_3  and  O_4 
ROOT
HETATM    1  C   UNL     1     -23.525  -3.559 -11.153  1.00  0.00     0.195 C 
HETATM    2 BR   UNL     1     -21.560  -3.438 -11.044  1.00  0.00    -0.050 Br
ENDROOT
BRANCH   1   3
HETATM    3  C   UNL     1     -23.989  -2.792 -12.395  1.00  0.00     0.216 C 
BRANCH   3   4
HETATM    4  O   UNL     1     -25.391  -2.917 -12.645  1.00  0.00    -0.397 OA
HETATM    5  H   UNL     1     -25.496  -3.309 -13.536  1.00  0.00     0.209 HD
ENDBRANCH   3   4
ENDBRANCH   1   3
BRANCH   1   6
HETATM    6  C   UNL     1     -24.148  -3.072  -9.846  1.00  0.00     0.216 C 
BRANCH   6   7
HETATM    7  O   UNL     1     -25.564  -3.290  -9.801  1.00  0.00    -0.397 OA
HETATM    8  H   UNL     1     -25.755  -3.876  -9.046  1.00  0.00     0.209 HD
ENDBRANCH   6   7
ENDBRANCH   1   6
BRANCH   1   9
HETATM    9  N   UNL     1     -23.821  -5.039 -11.302  1.00  0.00    -0.129 N 
HETATM   10  O   UNL     1     -23.974  -5.713 -10.272  1.00  0.00    -0.535 OA
HETATM   11  O   UNL     1     -23.878  -5.503 -12.452  1.00  0.00    -0.535 OA
ENDBRANCH   1   9
TORSDOF 5
ENDMDL
MODEL 9
REMARK VINA RESULT:      -4.0     12.700     13.291
REMARK  5 active torsions:
REMARK  status: ('A' for Active; 'I' for Inactive)
REMARK    1  A    between atoms: C_1  and  C_2 
REMARK    2  A    between atoms: C_1  and  O_9 
REMARK    3  A    between atoms: C_2  and  C_3 
REMARK    4  A    between atoms: C_2  and  N_5 
REMARK    5  A    between atoms: C_3  and  O_4 
ROOT
HETATM    1  C   UNL     1     -36.050  -0.007 -14.945  1.00  0.00     0.195 C 
HETATM    2 BR   UNL     1     -35.739  -1.132 -16.533  1.00  0.00    -0.050 Br
ENDROOT
BRANCH   1   3
HETATM    3  C   UNL     1     -37.548  -0.021 -14.628  1.00  0.00     0.216 C 
BRANCH   3   4
HETATM    4  O   UNL     1     -37.866  -0.748 -13.439  1.00  0.00    -0.397 OA
HETATM    5  H   UNL     1     -37.117  -0.640 -12.819  1.00  0.00     0.209 HD
ENDBRANCH   3   4
ENDBRANCH   1   3
BRANCH   1   6
HETATM    6  C   UNL     1     -35.471   1.389 -15.177  1.00  0.00     0.216 C 
BRANCH   6   7
HETATM    7  O   UNL     1     -36.247   2.155 -16.107  1.00  0.00    -0.397 OA
HETATM    8  H   UNL     1     -36.605   2.929 -15.635  1.00  0.00     0.209 HD
ENDBRANCH   6   7
ENDBRANCH   1   6
BRANCH   1   9
HETATM    9  N   UNL     1     -35.265  -0.672 -13.831  1.00  0.00    -0.129 N 
HETATM   10  O   UNL     1     -35.036  -1.887 -13.920  1.00  0.00    -0.535 OA
HETATM   11  O   UNL     1     -34.906   0.036 -12.876  1.00  0.00    -0.535 OA
ENDBRANCH   1   9
TORSDOF 5
ENDMDL
