MODEL 1
REMARK VINA RESULT:      -6.8      0.000      0.000
REMARK  8 active torsions:
REMARK  status: ('A' for Active; 'I' for Inactive)
REMARK    1  A    between atoms: C_2  and  O_4 
REMARK    2  A    between atoms: O_4  and  C_5 
REMARK    3  A    between atoms: C_5  and  C_6 
REMARK    4  A    between atoms: C_7  and  O_18 
REMARK    5  A    between atoms: C_8  and  O_17 
REMARK    6  A    between atoms: C_9  and  O_13 
REMARK    7  A    between atoms: C_10  and  O_12 
REMARK    8  A    between atoms: O_13  and  C_14 
ROOT
HETATM    1  C   UNL     1     -23.528  -4.163 -12.013  1.00  0.00     0.180 C 
HETATM    2  C   UNL     1     -24.192  -4.395 -10.638  1.00  0.00     0.180 C 
HETATM    3  C   UNL     1     -23.554  -3.466  -9.591  1.00  0.00     0.183 C 
HETATM    4  C   UNL     1     -22.030  -3.692  -9.512  1.00  0.00     0.218 C 
HETATM    5  C   UNL     1     -21.473  -3.463 -10.934  1.00  0.00     0.289 C 
HETATM    6  O   UNL     1     -22.099  -4.303 -11.903  1.00  0.00    -0.349 OA
ENDROOT
BRANCH   1   7
HETATM    7  C   UNL     1     -23.942  -2.834 -12.673  1.00  0.00     0.213 C 
BRANCH   7   8
HETATM    8  O   UNL     1     -24.159  -2.996 -14.085  1.00  0.00    -0.319 OA
BRANCH   8   9
HETATM    9  C   UNL     1     -23.315  -2.287 -14.883  1.00  0.00     0.254 C 
HETATM   10  C   UNL     1     -23.812  -0.886 -15.059  1.00  0.00     0.126 C 
HETATM   11  O   UNL     1     -22.309  -2.734 -15.416  1.00  0.00    -0.266 OA
ENDBRANCH   8   9
ENDBRANCH   7   8
ENDBRANCH   1   7
BRANCH   2  12
HETATM   12  O   UNL     1     -24.014  -5.773 -10.253  1.00  0.00    -0.390 OA
HETATM   13  H   UNL     1     -23.072  -5.985 -10.394  1.00  0.00     0.210 HD
ENDBRANCH   2  12
BRANCH   3  14
HETATM   14  O   UNL     1     -24.231  -3.572  -8.342  1.00  0.00    -0.390 OA
HETATM   15  H   UNL     1     -24.422  -2.679  -8.004  1.00  0.00     0.210 HD
ENDBRANCH   3  14
BRANCH   5  16
HETATM   16  O   UNL     1     -20.081  -3.733 -10.974  1.00  0.00    -0.368 OA
HETATM   17  H   UNL     1     -19.753  -3.259 -11.758  1.00  0.00     0.212 HD
ENDBRANCH   5  16
BRANCH   4  18
HETATM   18  O   UNL     1     -21.685  -5.057  -9.133  1.00  0.00    -0.309 OA
BRANCH  18  19
HETATM   19  C   UNL     1     -21.146  -5.225  -7.896  1.00  0.00     0.255 C 
HETATM   20  O   UNL     1     -20.950  -6.306  -7.364  1.00  0.00    -0.266 OA
HETATM   21  C   UNL     1     -20.714  -3.918  -7.308  1.00  0.00     0.126 C 
ENDBRANCH  18  19
ENDBRANCH   4  18
TORSDOF 8
ENDMDL
MODEL 2
REMARK VINA RESULT:      -6.6      1.630      6.112
REMARK  8 active torsions:
REMARK  status: ('A' for Active; 'I' for Inactive)
REMARK    1  A    between atoms: C_2  and  O_4 
REMARK    2  A    between atoms: O_4  and  C_5 
REMARK    3  A    between atoms: C_5  and  C_6 
REMARK    4  A    between atoms: C_7  and  O_18 
REMARK    5  A    between atoms: C_8  and  O_17 
REMARK    6  A    between atoms: C_9  and  O_13 
REMARK    7  A    between atoms: C_10  and  O_12 
REMARK    8  A    between atoms: O_13  and  C_14 
ROOT
HETATM    1  C   UNL     1     -21.427  -4.103  -8.382  1.00  0.00     0.180 C 
HETATM    2  C   UNL     1     -22.940  -4.179  -8.683  1.00  0.00     0.180 C 
HETATM    3  C   UNL     1     -23.174  -5.011  -9.955  1.00  0.00     0.183 C 
HETATM    4  C   UNL     1     -22.405  -4.416 -11.151  1.00  0.00     0.218 C 
HETATM    5  C   UNL     1     -20.917  -4.359 -10.739  1.00  0.00     0.289 C 
HETATM    6  O   UNL     1     -20.716  -3.616  -9.537  1.00  0.00    -0.349 OA
ENDROOT
BRANCH   1   7
HETATM    7  C   UNL     1     -20.845  -5.423  -7.844  1.00  0.00     0.213 C 
BRANCH   7   8
HETATM    8  O   UNL     1     -20.686  -5.382  -6.416  1.00  0.00    -0.319 OA
BRANCH   8   9
HETATM    9  C   UNL     1     -21.547  -6.170  -5.716  1.00  0.00     0.254 C 
HETATM   10  C   UNL     1     -20.929  -7.505  -5.439  1.00  0.00     0.126 C 
HETATM   11  O   UNL     1     -22.681  -5.853  -5.386  1.00  0.00    -0.266 OA
ENDBRANCH   8   9
ENDBRANCH   7   8
ENDBRANCH   1   7
BRANCH   2  12
HETATM   12  O   UNL     1     -23.455  -2.844  -8.861  1.00  0.00    -0.390 OA
HETATM   13  H   UNL     1     -23.181  -2.553  -9.751  1.00  0.00     0.210 HD
ENDBRANCH   2  12
BRANCH   3  14
HETATM   14  O   UNL     1     -24.568  -5.201 -10.186  1.00  0.00    -0.390 OA
HETATM   15  H   UNL     1     -24.911  -4.454 -10.707  1.00  0.00     0.210 HD
ENDBRANCH   3  14
BRANCH   5  16
HETATM   16  O   UNL     1     -20.141  -3.742 -11.753  1.00  0.00    -0.368 OA
HETATM   17  H   UNL     1     -20.688  -3.791 -12.556  1.00  0.00     0.212 HD
ENDBRANCH   5  16
BRANCH   4  18
HETATM   18  O   UNL     1     -22.816  -3.050 -11.458  1.00  0.00    -0.309 OA
BRANCH  18  19
HETATM   19  C   UNL     1     -23.806  -2.907 -12.377  1.00  0.00     0.255 C 
HETATM   20  O   UNL     1     -25.000  -2.948 -12.125  1.00  0.00    -0.266 OA
HETATM   21  C   UNL     1     -23.253  -2.579 -13.729  1.00  0.00     0.126 C 
ENDBRANCH  18  19
ENDBRANCH   4  18
TORSDOF 8
ENDMDL
MODEL 3
REMARK VINA RESULT:      -6.2     12.265     14.275
REMARK  8 active torsions:
REMARK  status: ('A' for Active; 'I' for Inactive)
REMARK    1  A    between atoms: C_2  and  O_4 
REMARK    2  A    between atoms: O_4  and  C_5 
REMARK    3  A    between atoms: C_5  and  C_6 
REMARK    4  A    between atoms: C_7  and  O_18 
REMARK    5  A    between atoms: C_8  and  O_17 
REMARK    6  A    between atoms: C_9  and  O_13 
REMARK    7  A    between atoms: C_10  and  O_12 
REMARK    8  A    between atoms: O_13  and  C_14 
ROOT
HETATM    1  C   UNL     1     -37.197  -0.837 -10.841  1.00  0.00     0.180 C 
HETATM    2  C   UNL     1     -36.081  -1.707 -10.220  1.00  0.00     0.180 C 
HETATM    3  C   UNL     1     -34.739  -1.394 -10.902  1.00  0.00     0.183 C 
HETATM    4  C   UNL     1     -34.830  -1.621 -12.424  1.00  0.00     0.218 C 
HETATM    5  C   UNL     1     -35.984  -0.732 -12.938  1.00  0.00     0.289 C 
HETATM    6  O   UNL     1     -37.216  -1.005 -12.271  1.00  0.00    -0.349 OA
ENDROOT
BRANCH   1   7
HETATM    7  C   UNL     1     -37.121   0.642 -10.421  1.00  0.00     0.213 C 
BRANCH   7   8
HETATM    8  O   UNL     1     -36.469   0.793  -9.148  1.00  0.00    -0.319 OA
BRANCH   8   9
HETATM    9  C   UNL     1     -37.227   1.371  -8.177  1.00  0.00     0.254 C 
HETATM   10  C   UNL     1     -36.910   0.774  -6.840  1.00  0.00     0.126 C 
HETATM   11  O   UNL     1     -38.075   2.231  -8.365  1.00  0.00    -0.266 OA
ENDBRANCH   8   9
ENDBRANCH   7   8
ENDBRANCH   1   7
BRANCH   2  12
HETATM   12  O   UNL     1     -36.414  -3.099 -10.394  1.00  0.00    -0.390 OA
HETATM   13  H   UNL     1     -37.337  -3.207 -10.098  1.00  0.00     0.210 HD
ENDBRANCH   2  12
BRANCH   3  14
HETATM   14  O   UNL     1     -33.673  -2.092 -10.264  1.00  0.00    -0.390 OA
HETATM   15  H   UNL     1     -33.931  -3.020 -10.131  1.00  0.00     0.210 HD
ENDBRANCH   3  14
BRANCH   5  16
HETATM   16  O   UNL     1     -36.196  -0.942 -14.325  1.00  0.00    -0.368 OA
HETATM   17  H   UNL     1     -36.032  -0.078 -14.740  1.00  0.00     0.212 HD
ENDBRANCH   5  16
BRANCH   4  18
HETATM   18  O   UNL     1     -35.167  -2.998 -12.766  1.00  0.00    -0.309 OA
BRANCH  18  19
HETATM   19  C   UNL     1     -34.212  -3.711 -13.420  1.00  0.00     0.255 C 
HETATM   20  O   UNL     1     -34.134  -3.819 -14.634  1.00  0.00    -0.266 OA
HETATM   21  C   UNL     1     -33.193  -4.258 -12.470  1.00  0.00     0.126 C 
ENDBRANCH  18  19
ENDBRANCH   4  18
TORSDOF 8
ENDMDL
MODEL 4
REMARK VINA RESULT:      -6.0     16.836     18.678
REMARK  8 active torsions:
REMARK  status: ('A' for Active; 'I' for Inactive)
REMARK    1  A    between atoms: C_2  and  O_4 
REMARK    2  A    between atoms: O_4  and  C_5 
REMARK    3  A    between atoms: C_5  and  C_6 
REMARK    4  A    between atoms: C_7  and  O_18 
REMARK    5  A    between atoms: C_8  and  O_17 
REMARK    6  A    between atoms: C_9  and  O_13 
REMARK    7  A    between atoms: C_10  and  O_12 
REMARK    8  A    between atoms: O_13  and  C_14 
ROOT
HETATM    1  C   UNL     1     -12.334   9.475 -19.137  1.00  0.00     0.180 C 
HETATM    2  C   UNL     1     -10.822   9.204 -19.301  1.00  0.00     0.180 C 
HETATM    3  C   UNL     1     -10.590   8.273 -20.502  1.00  0.00     0.183 C 
HETATM    4  C   UNL     1     -11.370   6.953 -20.333  1.00  0.00     0.218 C 
HETATM    5  C   UNL     1     -12.855   7.335 -20.151  1.00  0.00     0.289 C 
HETATM    6  O   UNL     1     -13.054   8.230 -19.057  1.00  0.00    -0.349 OA
ENDROOT
BRANCH   1   7
HETATM    7  C   UNL     1     -12.905  10.419 -20.212  1.00  0.00     0.213 C 
BRANCH   7   8
HETATM    8  O   UNL     1     -14.294  10.705 -19.974  1.00  0.00    -0.319 OA
BRANCH   8   9
HETATM    9  C   UNL     1     -14.535  11.629 -19.005  1.00  0.00     0.254 C 
HETATM   10  C   UNL     1     -15.240  11.000 -17.843  1.00  0.00     0.126 C 
HETATM   11  O   UNL     1     -14.252  12.817 -19.080  1.00  0.00    -0.266 OA
ENDBRANCH   8   9
ENDBRANCH   7   8
ENDBRANCH   1   7
BRANCH   2  12
HETATM   12  O   UNL     1     -10.317   8.596 -18.095  1.00  0.00    -0.390 OA
HETATM   13  H   UNL     1     -10.902   7.841 -17.895  1.00  0.00     0.210 HD
ENDBRANCH   2  12
BRANCH   3  14
HETATM   14  O   UNL     1      -9.197   8.106 -20.751  1.00  0.00    -0.390 OA
HETATM   15  H   UNL     1      -8.966   8.541 -21.590  1.00  0.00     0.210 HD
ENDBRANCH   3  14
BRANCH   5  16
HETATM   16  O   UNL     1     -13.641   6.181 -19.903  1.00  0.00    -0.368 OA
HETATM   17  H   UNL     1     -14.470   6.515 -19.520  1.00  0.00     0.212 HD
ENDBRANCH   5  16
BRANCH   4  18
HETATM   18  O   UNL     1     -10.970   6.214 -19.141  1.00  0.00    -0.309 OA
BRANCH  18  19
HETATM   19  C   UNL     1     -10.000   5.277 -19.307  1.00  0.00     0.255 C 
HETATM   20  O   UNL     1      -8.819   5.444 -19.043  1.00  0.00    -0.266 OA
HETATM   21  C   UNL     1     -10.575   3.968 -19.749  1.00  0.00     0.126 C 
ENDBRANCH  18  19
ENDBRANCH   4  18
TORSDOF 8
ENDMDL
MODEL 5
REMARK VINA RESULT:      -5.9     11.191     13.083
REMARK  8 active torsions:
REMARK  status: ('A' for Active; 'I' for Inactive)
REMARK    1  A    between atoms: C_2  and  O_4 
REMARK    2  A    between atoms: O_4  and  C_5 
REMARK    3  A    between atoms: C_5  and  C_6 
REMARK    4  A    between atoms: C_7  and  O_18 
REMARK    5  A    between atoms: C_8  and  O_17 
REMARK    6  A    between atoms: C_9  and  O_13 
REMARK    7  A    between atoms: C_10  and  O_12 
REMARK    8  A    between atoms: O_13  and  C_14 
ROOT
HETATM    1  C   UNL     1     -33.480  -3.864 -10.904  1.00  0.00     0.180 C 
HETATM    2  C   UNL     1     -34.085  -2.602 -10.249  1.00  0.00     0.180 C 
HETATM    3  C   UNL     1     -35.443  -2.283 -10.897  1.00  0.00     0.183 C 
HETATM    4  C   UNL     1     -35.293  -2.095 -12.420  1.00  0.00     0.218 C 
HETATM    5  C   UNL     1     -34.659  -3.391 -12.969  1.00  0.00     0.289 C 
HETATM    6  O   UNL     1     -33.419  -3.699 -12.333  1.00  0.00    -0.349 OA
ENDROOT
BRANCH   1   7
HETATM    7  C   UNL     1     -34.190  -5.166 -10.490  1.00  0.00     0.213 C 
BRANCH   7   8
HETATM    8  O   UNL     1     -33.445  -6.324 -10.907  1.00  0.00    -0.319 OA
BRANCH   8   9
HETATM    9  C   UNL     1     -33.836  -7.496 -10.339  1.00  0.00     0.254 C 
HETATM   10  C   UNL     1     -35.135  -7.321  -9.615  1.00  0.00     0.126 C 
HETATM   11  O   UNL     1     -33.205  -8.543 -10.379  1.00  0.00    -0.266 OA
ENDBRANCH   8   9
ENDBRANCH   7   8
ENDBRANCH   1   7
BRANCH   2  12
HETATM   12  O   UNL     1     -33.178  -1.496 -10.425  1.00  0.00    -0.390 OA
HETATM   13  H   UNL     1     -33.656  -0.818 -10.939  1.00  0.00     0.210 HD
ENDBRANCH   2  12
BRANCH   3  14
HETATM   14  O   UNL     1     -36.079  -1.198 -10.229  1.00  0.00    -0.390 OA
HETATM   15  H   UNL     1     -35.632  -1.036  -9.380  1.00  0.00     0.210 HD
ENDBRANCH   3  14
BRANCH   5  16
HETATM   16  O   UNL     1     -34.406  -3.274 -14.359  1.00  0.00    -0.368 OA
HETATM   17  H   UNL     1     -33.774  -3.985 -14.563  1.00  0.00     0.212 HD
ENDBRANCH   5  16
BRANCH   4  18
HETATM   18  O   UNL     1     -34.393  -1.000 -12.764  1.00  0.00    -0.309 OA
BRANCH  18  19
HETATM   19  C   UNL     1     -34.964   0.109 -13.303  1.00  0.00     0.255 C 
HETATM   20  O   UNL     1     -34.398   1.180 -13.454  1.00  0.00    -0.266 OA
HETATM   21  C   UNL     1     -36.348  -0.176 -13.798  1.00  0.00     0.126 C 
ENDBRANCH  18  19
ENDBRANCH   4  18
TORSDOF 8
ENDMDL
MODEL 6
REMARK VINA RESULT:      -5.9      2.940      5.416
REMARK  8 active torsions:
REMARK  status: ('A' for Active; 'I' for Inactive)
REMARK    1  A    between atoms: C_2  and  O_4 
REMARK    2  A    between atoms: O_4  and  C_5 
REMARK    3  A    between atoms: C_5  and  C_6 
REMARK    4  A    between atoms: C_7  and  O_18 
REMARK    5  A    between atoms: C_8  and  O_17 
REMARK    6  A    between atoms: C_9  and  O_13 
REMARK    7  A    between atoms: C_10  and  O_12 
REMARK    8  A    between atoms: O_13  and  C_14 
ROOT
HETATM    1  C   UNL     1     -21.684  -4.327  -7.324  1.00  0.00     0.180 C 
HETATM    2  C   UNL     1     -20.495  -5.093  -6.702  1.00  0.00     0.180 C 
HETATM    3  C   UNL     1     -20.907  -6.547  -6.418  1.00  0.00     0.183 C 
HETATM    4  C   UNL     1     -22.139  -6.599  -5.492  1.00  0.00     0.218 C 
HETATM    5  C   UNL     1     -23.253  -5.788  -6.189  1.00  0.00     0.289 C 
HETATM    6  O   UNL     1     -22.847  -4.451  -6.482  1.00  0.00    -0.349 OA
ENDROOT
BRANCH   1   7
HETATM    7  C   UNL     1     -21.968  -4.724  -8.784  1.00  0.00     0.213 C 
BRANCH   7   8
HETATM    8  O   UNL     1     -22.302  -3.576  -9.583  1.00  0.00    -0.319 OA
BRANCH   8   9
HETATM    9  C   UNL     1     -21.794  -3.584 -10.845  1.00  0.00     0.254 C 
HETATM   10  C   UNL     1     -20.454  -4.254 -10.867  1.00  0.00     0.126 C 
HETATM   11  O   UNL     1     -22.331  -3.086 -11.824  1.00  0.00    -0.266 OA
ENDBRANCH   8   9
ENDBRANCH   7   8
ENDBRANCH   1   7
BRANCH   2  12
HETATM   12  O   UNL     1     -20.100  -4.440  -5.478  1.00  0.00    -0.390 OA
HETATM   13  H   UNL     1     -19.445  -3.759  -5.721  1.00  0.00     0.210 HD
ENDBRANCH   2  12
BRANCH   3  14
HETATM   14  O   UNL     1     -19.792  -7.307  -5.959  1.00  0.00    -0.390 OA
HETATM   15  H   UNL     1     -18.970  -6.834  -6.174  1.00  0.00     0.210 HD
ENDBRANCH   3  14
BRANCH   5  16
HETATM   16  O   UNL     1     -24.404  -5.710  -5.364  1.00  0.00    -0.368 OA
HETATM   17  H   UNL     1     -25.142  -5.994  -5.931  1.00  0.00     0.212 HD
ENDBRANCH   5  16
BRANCH   4  18
HETATM   18  O   UNL     1     -21.895  -5.968  -4.199  1.00  0.00    -0.309 OA
BRANCH  18  19
HETATM   19  C   UNL     1     -21.657  -6.802  -3.153  1.00  0.00     0.255 C 
HETATM   20  O   UNL     1     -20.996  -7.827  -3.218  1.00  0.00    -0.266 OA
HETATM   21  C   UNL     1     -22.211  -6.250  -1.877  1.00  0.00     0.126 C 
ENDBRANCH  18  19
ENDBRANCH   4  18
TORSDOF 8
ENDMDL
MODEL 7
REMARK VINA RESULT:      -5.9     11.204     12.559
REMARK  8 active torsions:
REMARK  status: ('A' for Active; 'I' for Inactive)
REMARK    1  A    between atoms: C_2  and  O_4 
REMARK    2  A    between atoms: O_4  and  C_5 
REMARK    3  A    between atoms: C_5  and  C_6 
REMARK    4  A    between atoms: C_7  and  O_18 
REMARK    5  A    between atoms: C_8  and  O_17 
REMARK    6  A    between atoms: C_9  and  O_13 
REMARK    7  A    between atoms: C_10  and  O_12 
REMARK    8  A    between atoms: O_13  and  C_14 
ROOT
HETATM    1  C   UNL     1     -35.749  -1.289 -12.669  1.00  0.00     0.180 C 
HETATM    2  C   UNL     1     -35.535  -1.395 -11.143  1.00  0.00     0.180 C 
HETATM    3  C   UNL     1     -34.083  -1.810 -10.850  1.00  0.00     0.183 C 
HETATM    4  C   UNL     1     -33.741  -3.142 -11.548  1.00  0.00     0.218 C 
HETATM    5  C   UNL     1     -34.012  -2.938 -13.054  1.00  0.00     0.289 C 
HETATM    6  O   UNL     1     -35.352  -2.516 -13.311  1.00  0.00    -0.349 OA
ENDROOT
BRANCH   1   7
HETATM    7  C   UNL     1     -35.077  -0.053 -13.294  1.00  0.00     0.213 C 
BRANCH   7   8
HETATM    8  O   UNL     1     -34.742  -0.280 -14.674  1.00  0.00    -0.319 OA
BRANCH   8   9
HETATM    9  C   UNL     1     -35.698   0.087 -15.568  1.00  0.00     0.254 C 
HETATM   10  C   UNL     1     -35.940  -1.010 -16.559  1.00  0.00     0.126 C 
HETATM   11  O   UNL     1     -36.263   1.171 -15.591  1.00  0.00    -0.266 OA
ENDBRANCH   8   9
ENDBRANCH   7   8
ENDBRANCH   1   7
BRANCH   2  12
HETATM   12  O   UNL     1     -36.448  -2.372 -10.604  1.00  0.00    -0.390 OA
HETATM   13  H   UNL     1     -37.313  -2.213 -11.028  1.00  0.00     0.210 HD
ENDBRANCH   2  12
BRANCH   3  14
HETATM   14  O   UNL     1     -33.825  -1.794  -9.449  1.00  0.00    -0.390 OA
HETATM   15  H   UNL     1     -34.139  -2.627  -9.055  1.00  0.00     0.210 HD
ENDBRANCH   3  14
BRANCH   5  16
HETATM   16  O   UNL     1     -33.804  -4.146 -13.767  1.00  0.00    -0.368 OA
HETATM   17  H   UNL     1     -32.842  -4.199 -13.901  1.00  0.00     0.212 HD
ENDBRANCH   5  16
BRANCH   4  18
HETATM   18  O   UNL     1     -34.592  -4.241 -11.105  1.00  0.00    -0.309 OA
BRANCH  18  19
HETATM   19  C   UNL     1     -33.979  -5.436 -10.899  1.00  0.00     0.255 C 
HETATM   20  O   UNL     1     -32.872  -5.732 -11.321  1.00  0.00    -0.266 OA
HETATM   21  C   UNL     1     -34.784  -6.314  -9.992  1.00  0.00     0.126 C 
ENDBRANCH  18  19
ENDBRANCH   4  18
TORSDOF 8
ENDMDL
MODEL 8
REMARK VINA RESULT:      -5.7      2.970      7.694
REMARK  8 active torsions:
REMARK  status: ('A' for Active; 'I' for Inactive)
REMARK    1  A    between atoms: C_2  and  O_4 
REMARK    2  A    between atoms: O_4  and  C_5 
REMARK    3  A    between atoms: C_5  and  C_6 
REMARK    4  A    between atoms: C_7  and  O_18 
REMARK    5  A    between atoms: C_8  and  O_17 
REMARK    6  A    between atoms: C_9  and  O_13 
REMARK    7  A    between atoms: C_10  and  O_12 
REMARK    8  A    between atoms: O_13  and  C_14 
ROOT
HETATM    1  C   UNL     1     -21.017  -6.054  -5.893  1.00  0.00     0.180 C 
HETATM    2  C   UNL     1     -19.869  -5.575  -6.809  1.00  0.00     0.180 C 
HETATM    3  C   UNL     1     -20.084  -4.098  -7.180  1.00  0.00     0.183 C 
HETATM    4  C   UNL     1     -21.452  -3.897  -7.863  1.00  0.00     0.218 C 
HETATM    5  C   UNL     1     -22.520  -4.428  -6.882  1.00  0.00     0.289 C 
HETATM    6  O   UNL     1     -22.289  -5.788  -6.515  1.00  0.00    -0.349 OA
ENDROOT
BRANCH   1   7
HETATM    7  C   UNL     1     -20.931  -5.492  -4.462  1.00  0.00     0.213 C 
BRANCH   7   8
HETATM    8  O   UNL     1     -21.971  -6.027  -3.625  1.00  0.00    -0.319 OA
BRANCH   8   9
HETATM    9  C   UNL     1     -21.545  -6.862  -2.639  1.00  0.00     0.254 C 
HETATM   10  C   UNL     1     -22.287  -6.592  -1.367  1.00  0.00     0.126 C 
HETATM   11  O   UNL     1     -20.658  -7.695  -2.757  1.00  0.00    -0.266 OA
ENDBRANCH   8   9
ENDBRANCH   7   8
ENDBRANCH   1   7
BRANCH   2  12
HETATM   12  O   UNL     1     -19.842  -6.388  -7.999  1.00  0.00    -0.390 OA
HETATM   13  H   UNL     1     -20.356  -7.194  -7.801  1.00  0.00     0.210 HD
ENDBRANCH   2  12
BRANCH   3  14
HETATM   14  O   UNL     1     -18.975  -3.597  -7.922  1.00  0.00    -0.390 OA
HETATM   15  H   UNL     1     -18.470  -4.344  -8.289  1.00  0.00     0.210 HD
ENDBRANCH   3  14
BRANCH   5  16
HETATM   16  O   UNL     1     -23.811  -4.360  -7.466  1.00  0.00    -0.368 OA
HETATM   17  H   UNL     1     -24.297  -5.118  -7.097  1.00  0.00     0.212 HD
ENDBRANCH   5  16
BRANCH   4  18
HETATM   18  O   UNL     1     -21.582  -4.666  -9.095  1.00  0.00    -0.309 OA
BRANCH  18  19
HETATM   19  C   UNL     1     -21.884  -3.964 -10.219  1.00  0.00     0.255 C 
HETATM   20  O   UNL     1     -22.942  -3.387 -10.415  1.00  0.00    -0.266 OA
HETATM   21  C   UNL     1     -20.712  -3.889 -11.147  1.00  0.00     0.126 C 
ENDBRANCH  18  19
ENDBRANCH   4  18
TORSDOF 8
ENDMDL
MODEL 9
REMARK VINA RESULT:      -5.3      5.895      9.294
REMARK  8 active torsions:
REMARK  status: ('A' for Active; 'I' for Inactive)
REMARK    1  A    between atoms: C_2  and  O_4 
REMARK    2  A    between atoms: O_4  and  C_5 
REMARK    3  A    between atoms: C_5  and  C_6 
REMARK    4  A    between atoms: C_7  and  O_18 
REMARK    5  A    between atoms: C_8  and  O_17 
REMARK    6  A    between atoms: C_9  and  O_13 
REMARK    7  A    between atoms: C_10  and  O_12 
REMARK    8  A    between atoms: O_13  and  C_14 
ROOT
HETATM    1  C   UNL     1     -20.414  -7.618  -4.136  1.00  0.00     0.180 C 
HETATM    2  C   UNL     1     -20.329  -8.960  -3.375  1.00  0.00     0.180 C 
HETATM    3  C   UNL     1     -21.686  -9.274  -2.725  1.00  0.00     0.183 C 
HETATM    4  C   UNL     1     -22.121  -8.134  -1.782  1.00  0.00     0.218 C 
HETATM    5  C   UNL     1     -22.148  -6.842  -2.628  1.00  0.00     0.289 C 
HETATM    6  O   UNL     1     -20.894  -6.581  -3.259  1.00  0.00    -0.349 OA
ENDROOT
BRANCH   1   7
HETATM    7  C   UNL     1     -21.225  -7.708  -5.442  1.00  0.00     0.213 C 
BRANCH   7   8
HETATM    8  O   UNL     1     -20.596  -6.967  -6.502  1.00  0.00    -0.319 OA
BRANCH   8   9
HETATM    9  C   UNL     1     -20.925  -5.648  -6.558  1.00  0.00     0.254 C 
HETATM   10  C   UNL     1     -19.694  -4.804  -6.681  1.00  0.00     0.126 C 
HETATM   11  O   UNL     1     -22.061  -5.202  -6.483  1.00  0.00    -0.266 OA
ENDBRANCH   8   9
ENDBRANCH   7   8
ENDBRANCH   1   7
BRANCH   2  12
HETATM   12  O   UNL     1     -19.303  -8.867  -2.366  1.00  0.00    -0.390 OA
HETATM   13  H   UNL     1     -19.529  -9.516  -1.674  1.00  0.00     0.210 HD
ENDBRANCH   2  12
BRANCH   3  14
HETATM   14  O   UNL     1     -21.671 -10.564  -2.121  1.00  0.00    -0.390 OA
HETATM   15  H   UNL     1     -22.219 -10.550  -1.317  1.00  0.00     0.210 HD
ENDBRANCH   3  14
BRANCH   5  16
HETATM   16  O   UNL     1     -22.458  -5.720  -1.818  1.00  0.00    -0.368 OA
HETATM   17  H   UNL     1     -23.398  -5.537  -1.987  1.00  0.00     0.212 HD
ENDBRANCH   5  16
BRANCH   4  18
HETATM   18  O   UNL     1     -21.172  -7.912  -0.696  1.00  0.00    -0.309 OA
BRANCH  18  19
HETATM   19  C   UNL     1     -21.591  -8.247   0.553  1.00  0.00     0.255 C 
HETATM   20  O   UNL     1     -20.851  -8.502   1.490  1.00  0.00    -0.266 OA
HETATM   21  C   UNL     1     -23.081  -8.155   0.671  1.00  0.00     0.126 C 
ENDBRANCH  18  19
ENDBRANCH   4  18
TORSDOF 8
ENDMDL
