MODEL 1
REMARK VINA RESULT:      -7.4      0.000      0.000
REMARK  22 active torsions:
REMARK  status: ('A' for Active; 'I' for Inactive)
REMARK    1  A    between atoms: C_2  and  C_3 
REMARK    2  A    between atoms: C_3  and  C_4 
REMARK    3  A    between atoms: C_4  and  C_5 
REMARK    4  A    between atoms: C_5  and  C_6 
REMARK    5  A    between atoms: C_6  and  C_7 
REMARK    6  A    between atoms: C_7  and  C_8 
REMARK    7  A    between atoms: C_8  and  C_9 
REMARK    8  A    between atoms: C_10  and  C_11 
REMARK    9  A    between atoms: C_11  and  C_12 
REMARK   10  A    between atoms: C_12  and  C_13 
REMARK   11  A    between atoms: C_13  and  C_14 
REMARK   12  A    between atoms: C_14  and  C_15 
REMARK   13  A    between atoms: C_15  and  C_16 
REMARK   14  A    between atoms: C_16  and  C_17 
REMARK   15  A    between atoms: C_17  and  C_18 
REMARK   16  A    between atoms: C_18  and  O_20 
REMARK   17  A    between atoms: O_20  and  C_21 
REMARK   18  A    between atoms: C_21  and  C_22 
REMARK   19  A    between atoms: C_22  and  C_23 
REMARK   20  A    between atoms: C_22  and  O_30 
REMARK   21  A    between atoms: C_24  and  O_29 
REMARK   22  A    between atoms: C_25  and  O_28 
ROOT
HETATM    1  C   UNL     1     -20.970  -4.211  -6.467  1.00  0.00     0.111 C 
ENDROOT
BRANCH   1   2
HETATM    2  C   UNL     1     -20.603  -5.209  -5.377  1.00  0.00     0.010 C 
BRANCH   2   3
HETATM    3  C   UNL     1     -21.296  -6.556  -5.558  1.00  0.00     0.000 C 
BRANCH   3   4
HETATM    4  C   UNL     1     -22.113  -6.903  -4.321  1.00  0.00     0.000 C 
BRANCH   4   5
HETATM    5  C   UNL     1     -21.300  -6.692  -3.046  1.00  0.00     0.000 C 
BRANCH   5   6
HETATM    6  C   UNL     1     -22.203  -6.294  -1.883  1.00  0.00     0.004 C 
BRANCH   6   7
HETATM    7  C   UNL     1     -21.857  -7.096  -0.634  1.00  0.00     0.027 C 
BRANCH   7   8
HETATM    8  C   UNL     1     -22.942  -8.060  -0.296  1.00  0.00    -0.031 C 
HETATM    9  C   UNL     1     -22.761  -9.384  -0.346  1.00  0.00    -0.031 C 
BRANCH   9  10
HETATM   10  C   UNL     1     -23.853 -10.342  -0.005  1.00  0.00     0.027 C 
BRANCH  10  11
HETATM   11  C   UNL     1     -23.956 -11.433  -1.060  1.00  0.00     0.004 C 
BRANCH  11  12
HETATM   12  C   UNL     1     -22.614 -11.629  -1.747  1.00  0.00     0.000 C 
BRANCH  12  13
HETATM   13  C   UNL     1     -22.728 -11.286  -3.223  1.00  0.00     0.000 C 
BRANCH  13  14
HETATM   14  C   UNL     1     -21.599 -10.353  -3.632  1.00  0.00     0.000 C 
BRANCH  14  15
HETATM   15  C   UNL     1     -21.271 -10.543  -5.105  1.00  0.00    -0.000 C 
BRANCH  15  16
HETATM   16  C   UNL     1     -19.768 -10.436  -5.335  1.00  0.00    -0.005 C 
HETATM   17  C   UNL     1     -19.144  -9.502  -4.318  1.00  0.00     0.005 C 
ENDBRANCH  15  16
ENDBRANCH  14  15
ENDBRANCH  13  14
ENDBRANCH  12  13
ENDBRANCH  11  12
ENDBRANCH  10  11
ENDBRANCH   9  10
ENDBRANCH   7   8
ENDBRANCH   6   7
ENDBRANCH   5   6
ENDBRANCH   4   5
ENDBRANCH   3   4
ENDBRANCH   2   3
ENDBRANCH   1   2
BRANCH   1  18
HETATM   18  C   UNL     1     -20.088  -4.424  -7.694  1.00  0.00     0.258 C 
HETATM   19  O   UNL     1     -18.881  -4.516  -7.641  1.00  0.00    -0.265 OA
BRANCH  18  20
HETATM   20  O   UNL     1     -20.841  -4.395  -8.833  1.00  0.00    -0.319 OA
BRANCH  20  21
HETATM   21  C   UNL     1     -22.237  -4.605  -8.593  1.00  0.00     0.213 C 
BRANCH  21  22
HETATM   22  C   UNL     1     -23.067  -3.565  -9.341  1.00  0.00     0.174 C 
BRANCH  22  23
HETATM   23  C   UNL     1     -23.155  -3.875 -10.841  1.00  0.00     0.183 C 
HETATM   24  C   UNL     1     -22.202  -3.024 -11.690  1.00  0.00     0.180 C 
HETATM   25  C   UNL     1     -22.972  -2.780 -13.002  1.00  0.00     0.173 C 
HETATM   26  C   UNL     1     -24.288  -3.523 -12.803  1.00  0.00     0.202 C 
HETATM   27  O   UNL     1     -24.469  -3.664 -11.385  1.00  0.00    -0.378 OA
BRANCH  24  28
HETATM   28  O   UNL     1     -20.925  -3.647 -11.735  1.00  0.00    -0.390 OA
HETATM   29  H   UNL     1     -20.821  -4.201 -10.944  1.00  0.00     0.210 HD
ENDBRANCH  24  28
BRANCH  25  30
HETATM   30  O   UNL     1     -22.323  -3.107 -14.222  1.00  0.00    -0.391 OA
HETATM   31  H   UNL     1     -22.958  -3.483 -14.857  1.00  0.00     0.210 HD
ENDBRANCH  25  30
ENDBRANCH  22  23
BRANCH  22  32
HETATM   32  O   UNL     1     -24.371  -3.436  -8.765  1.00  0.00    -0.391 OA
HETATM   33  H   UNL     1     -24.464  -4.061  -8.026  1.00  0.00     0.210 HD
ENDBRANCH  22  32
ENDBRANCH  21  22
ENDBRANCH  20  21
ENDBRANCH  18  20
ENDBRANCH   1  18
TORSDOF 22
ENDMDL
MODEL 2
REMARK VINA RESULT:      -7.3      1.240      2.072
REMARK  22 active torsions:
REMARK  status: ('A' for Active; 'I' for Inactive)
REMARK    1  A    between atoms: C_2  and  C_3 
REMARK    2  A    between atoms: C_3  and  C_4 
REMARK    3  A    between atoms: C_4  and  C_5 
REMARK    4  A    between atoms: C_5  and  C_6 
REMARK    5  A    between atoms: C_6  and  C_7 
REMARK    6  A    between atoms: C_7  and  C_8 
REMARK    7  A    between atoms: C_8  and  C_9 
REMARK    8  A    between atoms: C_10  and  C_11 
REMARK    9  A    between atoms: C_11  and  C_12 
REMARK   10  A    between atoms: C_12  and  C_13 
REMARK   11  A    between atoms: C_13  and  C_14 
REMARK   12  A    between atoms: C_14  and  C_15 
REMARK   13  A    between atoms: C_15  and  C_16 
REMARK   14  A    between atoms: C_16  and  C_17 
REMARK   15  A    between atoms: C_17  and  C_18 
REMARK   16  A    between atoms: C_18  and  O_20 
REMARK   17  A    between atoms: O_20  and  C_21 
REMARK   18  A    between atoms: C_21  and  C_22 
REMARK   19  A    between atoms: C_22  and  C_23 
REMARK   20  A    between atoms: C_22  and  O_30 
REMARK   21  A    between atoms: C_24  and  O_29 
REMARK   22  A    between atoms: C_25  and  O_28 
ROOT
HETATM    1  C   UNL     1     -20.507  -5.905  -6.299  1.00  0.00     0.111 C 
ENDROOT
BRANCH   1   2
HETATM    2  C   UNL     1     -21.397  -7.041  -5.813  1.00  0.00     0.010 C 
BRANCH   2   3
HETATM    3  C   UNL     1     -22.205  -6.663  -4.575  1.00  0.00     0.000 C 
BRANCH   3   4
HETATM    4  C   UNL     1     -21.275  -6.322  -3.419  1.00  0.00     0.000 C 
BRANCH   4   5
HETATM    5  C   UNL     1     -22.021  -6.343  -2.087  1.00  0.00     0.000 C 
BRANCH   5   6
HETATM    6  C   UNL     1     -21.525  -7.482  -1.203  1.00  0.00     0.004 C 
BRANCH   6   7
HETATM    7  C   UNL     1     -22.260  -7.486   0.133  1.00  0.00     0.027 C 
BRANCH   7   8
HETATM    8  C   UNL     1     -23.326  -8.526   0.158  1.00  0.00    -0.031 C 
HETATM    9  C   UNL     1     -23.068  -9.818  -0.077  1.00  0.00    -0.031 C 
BRANCH   9  10
HETATM   10  C   UNL     1     -24.142 -10.854  -0.049  1.00  0.00     0.027 C 
BRANCH  10  11
HETATM   11  C   UNL     1     -23.540 -12.246   0.057  1.00  0.00     0.004 C 
BRANCH  11  12
HETATM   12  C   UNL     1     -23.483 -12.901  -1.314  1.00  0.00     0.000 C 
BRANCH  12  13
HETATM   13  C   UNL     1     -22.051 -13.283  -1.651  1.00  0.00     0.000 C 
BRANCH  13  14
HETATM   14  C   UNL     1     -21.557 -12.468  -2.836  1.00  0.00     0.000 C 
BRANCH  14  15
HETATM   15  C   UNL     1     -22.674 -11.582  -3.365  1.00  0.00    -0.000 C 
BRANCH  15  16
HETATM   16  C   UNL     1     -22.152 -10.180  -3.652  1.00  0.00    -0.005 C 
HETATM   17  C   UNL     1     -20.645 -10.199  -3.802  1.00  0.00     0.005 C 
ENDBRANCH  15  16
ENDBRANCH  14  15
ENDBRANCH  13  14
ENDBRANCH  12  13
ENDBRANCH  11  12
ENDBRANCH  10  11
ENDBRANCH   9  10
ENDBRANCH   7   8
ENDBRANCH   6   7
ENDBRANCH   5   6
ENDBRANCH   4   5
ENDBRANCH   3   4
ENDBRANCH   2   3
ENDBRANCH   1   2
BRANCH   1  18
HETATM   18  C   UNL     1     -21.214  -5.114  -7.395  1.00  0.00     0.258 C 
HETATM   19  O   UNL     1     -22.288  -4.573  -7.242  1.00  0.00    -0.265 OA
BRANCH  18  20
HETATM   20  O   UNL     1     -20.517  -5.194  -8.567  1.00  0.00    -0.319 OA
BRANCH  20  21
HETATM   21  C   UNL     1     -20.691  -4.047  -9.407  1.00  0.00     0.213 C 
BRANCH  21  22
HETATM   22  C   UNL     1     -20.776  -4.469 -10.872  1.00  0.00     0.174 C 
BRANCH  22  23
HETATM   23  C   UNL     1     -22.206  -4.358 -11.417  1.00  0.00     0.183 C 
HETATM   24  C   UNL     1     -22.420  -3.124 -12.303  1.00  0.00     0.180 C 
HETATM   25  C   UNL     1     -23.868  -2.689 -12.010  1.00  0.00     0.173 C 
HETATM   26  C   UNL     1     -24.367  -3.716 -11.001  1.00  0.00     0.202 C 
HETATM   27  O   UNL     1     -23.201  -4.283 -10.383  1.00  0.00    -0.378 OA
BRANCH  24  28
HETATM   28  O   UNL     1     -22.036  -3.427 -13.638  1.00  0.00    -0.390 OA
HETATM   29  H   UNL     1     -21.816  -2.600 -14.094  1.00  0.00     0.210 HD
ENDBRANCH  24  28
BRANCH  25  30
HETATM   30  O   UNL     1     -24.744  -2.518 -13.115  1.00  0.00    -0.391 OA
HETATM   31  H   UNL     1     -24.988  -3.380 -13.495  1.00  0.00     0.210 HD
ENDBRANCH  25  30
ENDBRANCH  22  23
BRANCH  22  32
HETATM   32  O   UNL     1     -19.858  -3.723 -11.677  1.00  0.00    -0.391 OA
HETATM   33  H   UNL     1     -19.861  -4.072 -12.584  1.00  0.00     0.210 HD
ENDBRANCH  22  32
ENDBRANCH  21  22
ENDBRANCH  20  21
ENDBRANCH  18  20
ENDBRANCH   1  18
TORSDOF 22
ENDMDL
MODEL 3
REMARK VINA RESULT:      -7.2      1.373      2.035
REMARK  22 active torsions:
REMARK  status: ('A' for Active; 'I' for Inactive)
REMARK    1  A    between atoms: C_2  and  C_3 
REMARK    2  A    between atoms: C_3  and  C_4 
REMARK    3  A    between atoms: C_4  and  C_5 
REMARK    4  A    between atoms: C_5  and  C_6 
REMARK    5  A    between atoms: C_6  and  C_7 
REMARK    6  A    between atoms: C_7  and  C_8 
REMARK    7  A    between atoms: C_8  and  C_9 
REMARK    8  A    between atoms: C_10  and  C_11 
REMARK    9  A    between atoms: C_11  and  C_12 
REMARK   10  A    between atoms: C_12  and  C_13 
REMARK   11  A    between atoms: C_13  and  C_14 
REMARK   12  A    between atoms: C_14  and  C_15 
REMARK   13  A    between atoms: C_15  and  C_16 
REMARK   14  A    between atoms: C_16  and  C_17 
REMARK   15  A    between atoms: C_17  and  C_18 
REMARK   16  A    between atoms: C_18  and  O_20 
REMARK   17  A    between atoms: O_20  and  C_21 
REMARK   18  A    between atoms: C_21  and  C_22 
REMARK   19  A    between atoms: C_22  and  C_23 
REMARK   20  A    between atoms: C_22  and  O_30 
REMARK   21  A    between atoms: C_24  and  O_29 
REMARK   22  A    between atoms: C_25  and  O_28 
ROOT
HETATM    1  C   UNL     1     -19.607  -4.531  -7.022  1.00  0.00     0.111 C 
ENDROOT
BRANCH   1   2
HETATM    2  C   UNL     1     -20.378  -5.118  -5.847  1.00  0.00     0.010 C 
BRANCH   2   3
HETATM    3  C   UNL     1     -21.032  -6.455  -6.186  1.00  0.00     0.000 C 
BRANCH   3   4
HETATM    4  C   UNL     1     -21.906  -6.926  -5.031  1.00  0.00     0.000 C 
BRANCH   4   5
HETATM    5  C   UNL     1     -21.097  -7.732  -4.019  1.00  0.00     0.000 C 
BRANCH   5   6
HETATM    6  C   UNL     1     -20.762  -6.889  -2.793  1.00  0.00     0.004 C 
BRANCH   6   7
HETATM    7  C   UNL     1     -22.026  -6.283  -2.194  1.00  0.00     0.027 C 
BRANCH   7   8
HETATM    8  C   UNL     1     -22.411  -6.978  -0.934  1.00  0.00    -0.031 C 
HETATM    9  C   UNL     1     -22.403  -8.312  -0.823  1.00  0.00    -0.031 C 
BRANCH   9  10
HETATM   10  C   UNL     1     -22.790  -8.999   0.443  1.00  0.00     0.027 C 
BRANCH  10  11
HETATM   11  C   UNL     1     -23.882 -10.024   0.183  1.00  0.00     0.004 C 
BRANCH  11  12
HETATM   12  C   UNL     1     -23.297 -11.262  -0.478  1.00  0.00     0.000 C 
BRANCH  12  13
HETATM   13  C   UNL     1     -22.510 -12.074   0.537  1.00  0.00     0.000 C 
BRANCH  13  14
HETATM   14  C   UNL     1     -21.206 -12.558  -0.078  1.00  0.00     0.000 C 
BRANCH  14  15
HETATM   15  C   UNL     1     -20.080 -11.590   0.250  1.00  0.00    -0.000 C 
BRANCH  15  16
HETATM   16  C   UNL     1     -19.173 -11.397  -0.959  1.00  0.00    -0.005 C 
HETATM   17  C   UNL     1     -19.908 -10.654  -2.056  1.00  0.00     0.005 C 
ENDBRANCH  15  16
ENDBRANCH  14  15
ENDBRANCH  13  14
ENDBRANCH  12  13
ENDBRANCH  11  12
ENDBRANCH  10  11
ENDBRANCH   9  10
ENDBRANCH   7   8
ENDBRANCH   6   7
ENDBRANCH   5   6
ENDBRANCH   4   5
ENDBRANCH   3   4
ENDBRANCH   2   3
ENDBRANCH   1   2
BRANCH   1  18
HETATM   18  C   UNL     1     -20.509  -4.436  -8.249  1.00  0.00     0.258 C 
HETATM   19  O   UNL     1     -20.190  -4.840  -9.346  1.00  0.00    -0.265 OA
BRANCH  18  20
HETATM   20  O   UNL     1     -21.655  -3.756  -7.948  1.00  0.00    -0.319 OA
BRANCH  20  21
HETATM   21  C   UNL     1     -22.815  -4.286  -8.600  1.00  0.00     0.213 C 
BRANCH  21  22
HETATM   22  C   UNL     1     -23.433  -3.237  -9.520  1.00  0.00     0.174 C 
BRANCH  22  23
HETATM   23  C   UNL     1     -23.368  -3.658 -10.994  1.00  0.00     0.183 C 
HETATM   24  C   UNL     1     -22.394  -2.812 -11.822  1.00  0.00     0.180 C 
HETATM   25  C   UNL     1     -23.056  -2.713 -13.209  1.00  0.00     0.173 C 
HETATM   26  C   UNL     1     -24.339  -3.523 -13.067  1.00  0.00     0.202 C 
HETATM   27  O   UNL     1     -24.637  -3.573 -11.662  1.00  0.00    -0.378 OA
BRANCH  24  28
HETATM   28  O   UNL     1     -21.083  -3.352 -11.709  1.00  0.00    -0.390 OA
HETATM   29  H   UNL     1     -20.641  -2.939 -10.951  1.00  0.00     0.210 HD
ENDBRANCH  24  28
BRANCH  25  30
HETATM   30  O   UNL     1     -22.282  -3.084 -14.341  1.00  0.00    -0.391 OA
HETATM   31  H   UNL     1     -21.660  -3.797 -14.111  1.00  0.00     0.210 HD
ENDBRANCH  25  30
ENDBRANCH  22  23
BRANCH  22  32
HETATM   32  O   UNL     1     -24.776  -2.937  -9.129  1.00  0.00    -0.391 OA
HETATM   33  H   UNL     1     -24.772  -2.468  -8.278  1.00  0.00     0.210 HD
ENDBRANCH  22  32
ENDBRANCH  21  22
ENDBRANCH  20  21
ENDBRANCH  18  20
ENDBRANCH   1  18
TORSDOF 22
ENDMDL
MODEL 4
REMARK VINA RESULT:      -7.0      2.059      3.718
REMARK  22 active torsions:
REMARK  status: ('A' for Active; 'I' for Inactive)
REMARK    1  A    between atoms: C_2  and  C_3 
REMARK    2  A    between atoms: C_3  and  C_4 
REMARK    3  A    between atoms: C_4  and  C_5 
REMARK    4  A    between atoms: C_5  and  C_6 
REMARK    5  A    between atoms: C_6  and  C_7 
REMARK    6  A    between atoms: C_7  and  C_8 
REMARK    7  A    between atoms: C_8  and  C_9 
REMARK    8  A    between atoms: C_10  and  C_11 
REMARK    9  A    between atoms: C_11  and  C_12 
REMARK   10  A    between atoms: C_12  and  C_13 
REMARK   11  A    between atoms: C_13  and  C_14 
REMARK   12  A    between atoms: C_14  and  C_15 
REMARK   13  A    between atoms: C_15  and  C_16 
REMARK   14  A    between atoms: C_16  and  C_17 
REMARK   15  A    between atoms: C_17  and  C_18 
REMARK   16  A    between atoms: C_18  and  O_20 
REMARK   17  A    between atoms: O_20  and  C_21 
REMARK   18  A    between atoms: C_21  and  C_22 
REMARK   19  A    between atoms: C_22  and  C_23 
REMARK   20  A    between atoms: C_22  and  O_30 
REMARK   21  A    between atoms: C_24  and  O_29 
REMARK   22  A    between atoms: C_25  and  O_28 
ROOT
HETATM    1  C   UNL     1     -19.550  -4.638  -6.910  1.00  0.00     0.111 C 
ENDROOT
BRANCH   1   2
HETATM    2  C   UNL     1     -20.072  -6.014  -6.520  1.00  0.00     0.010 C 
BRANCH   2   3
HETATM    3  C   UNL     1     -21.033  -5.962  -5.336  1.00  0.00     0.000 C 
BRANCH   3   4
HETATM    4  C   UNL     1     -21.392  -7.370  -4.882  1.00  0.00     0.000 C 
BRANCH   4   5
HETATM    5  C   UNL     1     -21.397  -7.474  -3.359  1.00  0.00     0.000 C 
BRANCH   5   6
HETATM    6  C   UNL     1     -22.062  -6.255  -2.730  1.00  0.00     0.004 C 
BRANCH   6   7
HETATM    7  C   UNL     1     -22.194  -6.430  -1.222  1.00  0.00     0.027 C 
BRANCH   7   8
HETATM    8  C   UNL     1     -21.870  -7.824  -0.811  1.00  0.00    -0.031 C 
HETATM    9  C   UNL     1     -22.717  -8.573  -0.095  1.00  0.00    -0.031 C 
BRANCH   9  10
HETATM   10  C   UNL     1     -22.385  -9.969   0.311  1.00  0.00     0.027 C 
BRANCH  10  11
HETATM   11  C   UNL     1     -22.883 -10.962  -0.728  1.00  0.00     0.004 C 
BRANCH  11  12
HETATM   12  C   UNL     1     -23.975 -11.839  -0.137  1.00  0.00     0.000 C 
BRANCH  12  13
HETATM   13  C   UNL     1     -23.801 -13.275  -0.602  1.00  0.00     0.000 C 
BRANCH  13  14
HETATM   14  C   UNL     1     -23.057 -14.081   0.451  1.00  0.00     0.000 C 
BRANCH  14  15
HETATM   15  C   UNL     1     -23.272 -13.469   1.827  1.00  0.00    -0.000 C 
BRANCH  15  16
HETATM   16  C   UNL     1     -23.849 -14.502   2.786  1.00  0.00    -0.005 C 
HETATM   17  C   UNL     1     -22.750 -15.106   3.636  1.00  0.00     0.005 C 
ENDBRANCH  15  16
ENDBRANCH  14  15
ENDBRANCH  13  14
ENDBRANCH  12  13
ENDBRANCH  11  12
ENDBRANCH  10  11
ENDBRANCH   9  10
ENDBRANCH   7   8
ENDBRANCH   6   7
ENDBRANCH   5   6
ENDBRANCH   4   5
ENDBRANCH   3   4
ENDBRANCH   2   3
ENDBRANCH   1   2
BRANCH   1  18
HETATM   18  C   UNL     1     -20.607  -3.882  -7.711  1.00  0.00     0.258 C 
HETATM   19  O   UNL     1     -21.725  -3.660  -7.299  1.00  0.00    -0.265 OA
BRANCH  18  20
HETATM   20  O   UNL     1     -20.141  -3.593  -8.962  1.00  0.00    -0.319 OA
BRANCH  20  21
HETATM   21  C   UNL     1     -20.204  -4.708  -9.859  1.00  0.00     0.213 C 
BRANCH  21  22
HETATM   22  C   UNL     1     -20.533  -4.233 -11.272  1.00  0.00     0.174 C 
BRANCH  22  23
HETATM   23  C   UNL     1     -22.021  -4.406 -11.602  1.00  0.00     0.183 C 
HETATM   24  C   UNL     1     -22.627  -3.190 -12.314  1.00  0.00     0.180 C 
HETATM   25  C   UNL     1     -24.070  -3.114 -11.781  1.00  0.00     0.173 C 
HETATM   26  C   UNL     1     -24.177  -4.299 -10.828  1.00  0.00     0.202 C 
HETATM   27  O   UNL     1     -22.834  -4.633 -10.439  1.00  0.00    -0.378 OA
BRANCH  24  28
HETATM   28  O   UNL     1     -22.403  -3.301 -13.714  1.00  0.00    -0.390 OA
HETATM   29  H   UNL     1     -22.554  -2.433 -14.122  1.00  0.00     0.210 HD
ENDBRANCH  24  28
BRANCH  25  30
HETATM   30  O   UNL     1     -25.125  -3.063 -12.731  1.00  0.00    -0.391 OA
HETATM   31  H   UNL     1     -25.985  -3.199 -12.295  1.00  0.00     0.210 HD
ENDBRANCH  25  30
ENDBRANCH  22  23
BRANCH  22  32
HETATM   32  O   UNL     1     -20.115  -2.879 -11.471  1.00  0.00    -0.391 OA
HETATM   33  H   UNL     1     -20.436  -2.328 -10.737  1.00  0.00     0.210 HD
ENDBRANCH  22  32
ENDBRANCH  21  22
ENDBRANCH  20  21
ENDBRANCH  18  20
ENDBRANCH   1  18
TORSDOF 22
ENDMDL
MODEL 5
REMARK VINA RESULT:      -7.0      2.396      3.916
REMARK  22 active torsions:
REMARK  status: ('A' for Active; 'I' for Inactive)
REMARK    1  A    between atoms: C_2  and  C_3 
REMARK    2  A    between atoms: C_3  and  C_4 
REMARK    3  A    between atoms: C_4  and  C_5 
REMARK    4  A    between atoms: C_5  and  C_6 
REMARK    5  A    between atoms: C_6  and  C_7 
REMARK    6  A    between atoms: C_7  and  C_8 
REMARK    7  A    between atoms: C_8  and  C_9 
REMARK    8  A    between atoms: C_10  and  C_11 
REMARK    9  A    between atoms: C_11  and  C_12 
REMARK   10  A    between atoms: C_12  and  C_13 
REMARK   11  A    between atoms: C_13  and  C_14 
REMARK   12  A    between atoms: C_14  and  C_15 
REMARK   13  A    between atoms: C_15  and  C_16 
REMARK   14  A    between atoms: C_16  and  C_17 
REMARK   15  A    between atoms: C_17  and  C_18 
REMARK   16  A    between atoms: C_18  and  O_20 
REMARK   17  A    between atoms: O_20  and  C_21 
REMARK   18  A    between atoms: C_21  and  C_22 
REMARK   19  A    between atoms: C_22  and  C_23 
REMARK   20  A    between atoms: C_22  and  O_30 
REMARK   21  A    between atoms: C_24  and  O_29 
REMARK   22  A    between atoms: C_25  and  O_28 
ROOT
HETATM    1  C   UNL     1     -20.339  -6.026  -5.670  1.00  0.00     0.111 C 
ENDROOT
BRANCH   1   2
HETATM    2  C   UNL     1     -21.650  -6.798  -5.737  1.00  0.00     0.010 C 
BRANCH   2   3
HETATM    3  C   UNL     1     -22.313  -6.945  -4.370  1.00  0.00     0.000 C 
BRANCH   3   4
HETATM    4  C   UNL     1     -21.400  -6.405  -3.277  1.00  0.00     0.000 C 
BRANCH   4   5
HETATM    5  C   UNL     1     -22.086  -6.446  -1.915  1.00  0.00     0.000 C 
BRANCH   5   6
HETATM    6  C   UNL     1     -21.547  -7.592  -1.066  1.00  0.00     0.004 C 
BRANCH   6   7
HETATM    7  C   UNL     1     -22.243  -7.632   0.291  1.00  0.00     0.027 C 
BRANCH   7   8
HETATM    8  C   UNL     1     -23.173  -8.792   0.384  1.00  0.00    -0.031 C 
HETATM    9  C   UNL     1     -23.089  -9.842  -0.441  1.00  0.00    -0.031 C 
BRANCH   9  10
HETATM   10  C   UNL     1     -24.025 -10.999  -0.339  1.00  0.00     0.027 C 
BRANCH  10  11
HETATM   11  C   UNL     1     -23.370 -12.265  -0.872  1.00  0.00     0.004 C 
BRANCH  11  12
HETATM   12  C   UNL     1     -23.507 -13.393   0.138  1.00  0.00     0.000 C 
BRANCH  12  13
HETATM   13  C   UNL     1     -22.677 -13.091   1.375  1.00  0.00     0.000 C 
BRANCH  13  14
HETATM   14  C   UNL     1     -22.545 -14.338   2.235  1.00  0.00     0.000 C 
BRANCH  14  15
HETATM   15  C   UNL     1     -23.850 -14.609   2.967  1.00  0.00    -0.000 C 
BRANCH  15  16
HETATM   16  C   UNL     1     -23.580 -15.295   4.301  1.00  0.00    -0.005 C 
HETATM   17  C   UNL     1     -22.480 -16.326   4.151  1.00  0.00     0.005 C 
ENDBRANCH  15  16
ENDBRANCH  14  15
ENDBRANCH  13  14
ENDBRANCH  12  13
ENDBRANCH  11  12
ENDBRANCH  10  11
ENDBRANCH   9  10
ENDBRANCH   7   8
ENDBRANCH   6   7
ENDBRANCH   5   6
ENDBRANCH   4   5
ENDBRANCH   3   4
ENDBRANCH   2   3
ENDBRANCH   1   2
BRANCH   1  18
HETATM   18  C   UNL     1     -20.291  -4.975  -6.775  1.00  0.00     0.258 C 
HETATM   19  O   UNL     1     -19.274  -4.413  -7.119  1.00  0.00    -0.265 OA
BRANCH  18  20
HETATM   20  O   UNL     1     -21.550  -4.702  -7.229  1.00  0.00    -0.319 OA
BRANCH  20  21
HETATM   21  C   UNL     1     -21.668  -4.790  -8.654  1.00  0.00     0.213 C 
BRANCH  21  22
HETATM   22  C   UNL     1     -22.631  -3.726  -9.174  1.00  0.00     0.174 C 
BRANCH  22  23
HETATM   23  C   UNL     1     -22.943  -3.916 -10.664  1.00  0.00     0.183 C 
HETATM   24  C   UNL     1     -22.013  -3.115 -11.584  1.00  0.00     0.180 C 
HETATM   25  C   UNL     1     -22.909  -2.696 -12.765  1.00  0.00     0.173 C 
HETATM   26  C   UNL     1     -24.266  -3.306 -12.434  1.00  0.00     0.202 C 
HETATM   27  O   UNL     1     -24.281  -3.527 -11.015  1.00  0.00    -0.378 OA
BRANCH  24  28
HETATM   28  O   UNL     1     -20.832  -3.868 -11.834  1.00  0.00    -0.390 OA
HETATM   29  H   UNL     1     -20.231  -3.762 -11.079  1.00  0.00     0.210 HD
ENDBRANCH  24  28
BRANCH  25  30
HETATM   30  O   UNL     1     -22.462  -3.004 -14.077  1.00  0.00    -0.391 OA
HETATM   31  H   UNL     1     -22.424  -3.968 -14.208  1.00  0.00     0.210 HD
ENDBRANCH  25  30
ENDBRANCH  22  23
BRANCH  22  32
HETATM   32  O   UNL     1     -23.832  -3.695  -8.396  1.00  0.00    -0.391 OA
HETATM   33  H   UNL     1     -24.596  -3.875  -8.969  1.00  0.00     0.210 HD
ENDBRANCH  22  32
ENDBRANCH  21  22
ENDBRANCH  20  21
ENDBRANCH  18  20
ENDBRANCH   1  18
TORSDOF 22
ENDMDL
MODEL 6
REMARK VINA RESULT:      -6.9      1.246      2.541
REMARK  22 active torsions:
REMARK  status: ('A' for Active; 'I' for Inactive)
REMARK    1  A    between atoms: C_2  and  C_3 
REMARK    2  A    between atoms: C_3  and  C_4 
REMARK    3  A    between atoms: C_4  and  C_5 
REMARK    4  A    between atoms: C_5  and  C_6 
REMARK    5  A    between atoms: C_6  and  C_7 
REMARK    6  A    between atoms: C_7  and  C_8 
REMARK    7  A    between atoms: C_8  and  C_9 
REMARK    8  A    between atoms: C_10  and  C_11 
REMARK    9  A    between atoms: C_11  and  C_12 
REMARK   10  A    between atoms: C_12  and  C_13 
REMARK   11  A    between atoms: C_13  and  C_14 
REMARK   12  A    between atoms: C_14  and  C_15 
REMARK   13  A    between atoms: C_15  and  C_16 
REMARK   14  A    between atoms: C_16  and  C_17 
REMARK   15  A    between atoms: C_17  and  C_18 
REMARK   16  A    between atoms: C_18  and  O_20 
REMARK   17  A    between atoms: O_20  and  C_21 
REMARK   18  A    between atoms: C_21  and  C_22 
REMARK   19  A    between atoms: C_22  and  C_23 
REMARK   20  A    between atoms: C_22  and  O_30 
REMARK   21  A    between atoms: C_24  and  O_29 
REMARK   22  A    between atoms: C_25  and  O_28 
ROOT
HETATM    1  C   UNL     1     -19.935  -5.579  -7.548  1.00  0.00     0.111 C 
ENDROOT
BRANCH   1   2
HETATM    2  C   UNL     1     -19.820  -4.708  -6.305  1.00  0.00     0.010 C 
BRANCH   2   3
HETATM    3  C   UNL     1     -20.719  -5.188  -5.169  1.00  0.00     0.000 C 
BRANCH   3   4
HETATM    4  C   UNL     1     -21.047  -6.665  -5.340  1.00  0.00     0.000 C 
BRANCH   4   5
HETATM    5  C   UNL     1     -22.023  -7.142  -4.268  1.00  0.00     0.000 C 
BRANCH   5   6
HETATM    6  C   UNL     1     -21.896  -6.302  -3.002  1.00  0.00     0.004 C 
BRANCH   6   7
HETATM    7  C   UNL     1     -21.593  -7.185  -1.797  1.00  0.00     0.027 C 
BRANCH   7   8
HETATM    8  C   UNL     1     -20.915  -8.445  -2.210  1.00  0.00    -0.031 C 
HETATM    9  C   UNL     1     -19.585  -8.587  -2.168  1.00  0.00    -0.031 C 
BRANCH   9  10
HETATM   10  C   UNL     1     -18.915  -9.854  -2.583  1.00  0.00     0.027 C 
BRANCH  10  11
HETATM   11  C   UNL     1     -18.560  -9.811  -4.061  1.00  0.00     0.004 C 
BRANCH  11  12
HETATM   12  C   UNL     1     -19.286 -10.918  -4.809  1.00  0.00     0.000 C 
BRANCH  12  13
HETATM   13  C   UNL     1     -20.613 -10.405  -5.342  1.00  0.00     0.000 C 
BRANCH  13  14
HETATM   14  C   UNL     1     -21.424 -11.553  -5.924  1.00  0.00     0.000 C 
BRANCH  14  15
HETATM   15  C   UNL     1     -22.249 -12.217  -4.833  1.00  0.00    -0.000 C 
BRANCH  15  16
HETATM   16  C   UNL     1     -22.769 -11.177  -3.849  1.00  0.00    -0.005 C 
HETATM   17  C   UNL     1     -22.576 -11.656  -2.425  1.00  0.00     0.005 C 
ENDBRANCH  15  16
ENDBRANCH  14  15
ENDBRANCH  13  14
ENDBRANCH  12  13
ENDBRANCH  11  12
ENDBRANCH  10  11
ENDBRANCH   9  10
ENDBRANCH   7   8
ENDBRANCH   6   7
ENDBRANCH   5   6
ENDBRANCH   4   5
ENDBRANCH   3   4
ENDBRANCH   2   3
ENDBRANCH   1   2
BRANCH   1  18
HETATM   18  C   UNL     1     -20.486  -4.763  -8.714  1.00  0.00     0.258 C 
HETATM   19  O   UNL     1     -19.982  -4.746  -9.815  1.00  0.00    -0.265 OA
BRANCH  18  20
HETATM   20  O   UNL     1     -21.544  -4.002  -8.305  1.00  0.00    -0.319 OA
BRANCH  20  21
HETATM   21  C   UNL     1     -22.793  -4.423  -8.865  1.00  0.00     0.213 C 
BRANCH  21  22
HETATM   22  C   UNL     1     -23.446  -3.275  -9.630  1.00  0.00     0.174 C 
BRANCH  22  23
HETATM   23  C   UNL     1     -23.560  -3.579 -11.130  1.00  0.00     0.183 C 
HETATM   24  C   UNL     1     -22.449  -2.931 -11.964  1.00  0.00     0.180 C 
HETATM   25  C   UNL     1     -23.133  -2.562 -13.294  1.00  0.00     0.173 C 
HETATM   26  C   UNL     1     -24.568  -3.045 -13.119  1.00  0.00     0.202 C 
HETATM   27  O   UNL     1     -24.800  -3.134 -11.703  1.00  0.00    -0.378 OA
BRANCH  24  28
HETATM   28  O   UNL     1     -21.309  -3.781 -11.976  1.00  0.00    -0.390 OA
HETATM   29  H   UNL     1     -20.641  -3.398 -12.567  1.00  0.00     0.210 HD
ENDBRANCH  24  28
BRANCH  25  30
HETATM   30  O   UNL     1     -22.532  -3.018 -14.497  1.00  0.00    -0.391 OA
HETATM   31  H   UNL     1     -23.121  -2.858 -15.255  1.00  0.00     0.210 HD
ENDBRANCH  25  30
ENDBRANCH  22  23
BRANCH  22  32
HETATM   32  O   UNL     1     -24.723  -2.946  -9.073  1.00  0.00    -0.391 OA
HETATM   33  H   UNL     1     -24.728  -3.152  -8.124  1.00  0.00     0.210 HD
ENDBRANCH  22  32
ENDBRANCH  21  22
ENDBRANCH  20  21
ENDBRANCH  18  20
ENDBRANCH   1  18
TORSDOF 22
ENDMDL
MODEL 7
REMARK VINA RESULT:      -6.9      1.201      2.429
REMARK  22 active torsions:
REMARK  status: ('A' for Active; 'I' for Inactive)
REMARK    1  A    between atoms: C_2  and  C_3 
REMARK    2  A    between atoms: C_3  and  C_4 
REMARK    3  A    between atoms: C_4  and  C_5 
REMARK    4  A    between atoms: C_5  and  C_6 
REMARK    5  A    between atoms: C_6  and  C_7 
REMARK    6  A    between atoms: C_7  and  C_8 
REMARK    7  A    between atoms: C_8  and  C_9 
REMARK    8  A    between atoms: C_10  and  C_11 
REMARK    9  A    between atoms: C_11  and  C_12 
REMARK   10  A    between atoms: C_12  and  C_13 
REMARK   11  A    between atoms: C_13  and  C_14 
REMARK   12  A    between atoms: C_14  and  C_15 
REMARK   13  A    between atoms: C_15  and  C_16 
REMARK   14  A    between atoms: C_16  and  C_17 
REMARK   15  A    between atoms: C_17  and  C_18 
REMARK   16  A    between atoms: C_18  and  O_20 
REMARK   17  A    between atoms: O_20  and  C_21 
REMARK   18  A    between atoms: C_21  and  C_22 
REMARK   19  A    between atoms: C_22  and  C_23 
REMARK   20  A    between atoms: C_22  and  O_30 
REMARK   21  A    between atoms: C_24  and  O_29 
REMARK   22  A    between atoms: C_25  and  O_28 
ROOT
HETATM    1  C   UNL     1     -21.580  -6.066  -5.324  1.00  0.00     0.111 C 
ENDROOT
BRANCH   1   2
HETATM    2  C   UNL     1     -21.231  -6.372  -3.874  1.00  0.00     0.010 C 
BRANCH   2   3
HETATM    3  C   UNL     1     -22.453  -6.344  -2.960  1.00  0.00     0.000 C 
BRANCH   3   4
HETATM    4  C   UNL     1     -22.029  -6.492  -1.504  1.00  0.00     0.000 C 
BRANCH   4   5
HETATM    5  C   UNL     1     -21.096  -7.685  -1.320  1.00  0.00     0.000 C 
BRANCH   5   6
HETATM    6  C   UNL     1     -21.263  -8.301   0.065  1.00  0.00     0.004 C 
BRANCH   6   7
HETATM    7  C   UNL     1     -22.653  -8.010   0.620  1.00  0.00     0.027 C 
BRANCH   7   8
HETATM    8  C   UNL     1     -23.597  -9.121   0.315  1.00  0.00    -0.031 C 
HETATM    9  C   UNL     1     -23.182 -10.300  -0.162  1.00  0.00    -0.031 C 
BRANCH   9  10
HETATM   10  C   UNL     1     -24.135 -11.407  -0.464  1.00  0.00     0.027 C 
BRANCH  10  11
HETATM   11  C   UNL     1     -23.534 -12.370  -1.476  1.00  0.00     0.004 C 
BRANCH  11  12
HETATM   12  C   UNL     1     -22.349 -11.724  -2.177  1.00  0.00     0.000 C 
BRANCH  12  13
HETATM   13  C   UNL     1     -22.812 -11.014  -3.438  1.00  0.00     0.000 C 
BRANCH  13  14
HETATM   14  C   UNL     1     -21.790 -11.201  -4.549  1.00  0.00     0.000 C 
BRANCH  14  15
HETATM   15  C   UNL     1     -20.858 -10.001  -4.611  1.00  0.00    -0.000 C 
BRANCH  15  16
HETATM   16  C   UNL     1     -19.457 -10.391  -4.157  1.00  0.00    -0.005 C 
HETATM   17  C   UNL     1     -18.683  -9.163  -3.721  1.00  0.00     0.005 C 
ENDBRANCH  15  16
ENDBRANCH  14  15
ENDBRANCH  13  14
ENDBRANCH  12  13
ENDBRANCH  11  12
ENDBRANCH  10  11
ENDBRANCH   9  10
ENDBRANCH   7   8
ENDBRANCH   6   7
ENDBRANCH   5   6
ENDBRANCH   4   5
ENDBRANCH   3   4
ENDBRANCH   2   3
ENDBRANCH   1   2
BRANCH   1  18
HETATM   18  C   UNL     1     -20.331  -6.158  -6.197  1.00  0.00     0.258 C 
HETATM   19  O   UNL     1     -19.754  -7.197  -6.429  1.00  0.00    -0.265 OA
BRANCH  18  20
HETATM   20  O   UNL     1     -19.923  -4.911  -6.578  1.00  0.00    -0.319 OA
BRANCH  20  21
HETATM   21  C   UNL     1     -20.952  -4.153  -7.224  1.00  0.00     0.213 C 
BRANCH  21  22
HETATM   22  C   UNL     1     -21.125  -4.615  -8.669  1.00  0.00     0.174 C 
BRANCH  22  23
HETATM   23  C   UNL     1     -22.105  -3.723  -9.441  1.00  0.00     0.183 C 
HETATM   24  C   UNL     1     -23.541  -4.262  -9.442  1.00  0.00     0.180 C 
HETATM   25  C   UNL     1     -24.096  -3.874 -10.825  1.00  0.00     0.173 C 
HETATM   26  C   UNL     1     -22.944  -3.131 -11.492  1.00  0.00     0.202 C 
HETATM   27  O   UNL     1     -21.744  -3.551 -10.822  1.00  0.00    -0.378 OA
BRANCH  24  28
HETATM   28  O   UNL     1     -24.213  -3.820  -8.269  1.00  0.00    -0.390 OA
HETATM   29  H   UNL     1     -24.858  -4.496  -8.007  1.00  0.00     0.210 HD
ENDBRANCH  24  28
BRANCH  25  30
HETATM   30  O   UNL     1     -25.323  -3.160 -10.870  1.00  0.00    -0.391 OA
HETATM   31  H   UNL     1     -25.337  -2.551 -11.630  1.00  0.00     0.210 HD
ENDBRANCH  25  30
ENDBRANCH  22  23
BRANCH  22  32
HETATM   32  O   UNL     1     -19.862  -4.693  -9.338  1.00  0.00    -0.391 OA
HETATM   33  H   UNL     1     -20.002  -4.916 -10.273  1.00  0.00     0.210 HD
ENDBRANCH  22  32
ENDBRANCH  21  22
ENDBRANCH  20  21
ENDBRANCH  18  20
ENDBRANCH   1  18
TORSDOF 22
ENDMDL
MODEL 8
REMARK VINA RESULT:      -6.9      1.890      3.511
REMARK  22 active torsions:
REMARK  status: ('A' for Active; 'I' for Inactive)
REMARK    1  A    between atoms: C_2  and  C_3 
REMARK    2  A    between atoms: C_3  and  C_4 
REMARK    3  A    between atoms: C_4  and  C_5 
REMARK    4  A    between atoms: C_5  and  C_6 
REMARK    5  A    between atoms: C_6  and  C_7 
REMARK    6  A    between atoms: C_7  and  C_8 
REMARK    7  A    between atoms: C_8  and  C_9 
REMARK    8  A    between atoms: C_10  and  C_11 
REMARK    9  A    between atoms: C_11  and  C_12 
REMARK   10  A    between atoms: C_12  and  C_13 
REMARK   11  A    between atoms: C_13  and  C_14 
REMARK   12  A    between atoms: C_14  and  C_15 
REMARK   13  A    between atoms: C_15  and  C_16 
REMARK   14  A    between atoms: C_16  and  C_17 
REMARK   15  A    between atoms: C_17  and  C_18 
REMARK   16  A    between atoms: C_18  and  O_20 
REMARK   17  A    between atoms: O_20  and  C_21 
REMARK   18  A    between atoms: C_21  and  C_22 
REMARK   19  A    between atoms: C_22  and  C_23 
REMARK   20  A    between atoms: C_22  and  O_30 
REMARK   21  A    between atoms: C_24  and  O_29 
REMARK   22  A    between atoms: C_25  and  O_28 
ROOT
HETATM    1  C   UNL     1     -20.333  -6.806  -5.705  1.00  0.00     0.111 C 
ENDROOT
BRANCH   1   2
HETATM    2  C   UNL     1     -21.668  -7.414  -5.295  1.00  0.00     0.010 C 
BRANCH   2   3
HETATM    3  C   UNL     1     -22.300  -6.691  -4.109  1.00  0.00     0.000 C 
BRANCH   3   4
HETATM    4  C   UNL     1     -21.249  -6.394  -3.048  1.00  0.00     0.000 C 
BRANCH   4   5
HETATM    5  C   UNL     1     -21.342  -7.381  -1.887  1.00  0.00     0.000 C 
BRANCH   5   6
HETATM    6  C   UNL     1     -22.377  -6.925  -0.865  1.00  0.00     0.004 C 
BRANCH   6   7
HETATM    7  C   UNL     1     -22.838  -8.097  -0.004  1.00  0.00     0.027 C 
BRANCH   7   8
HETATM    8  C   UNL     1     -21.942  -9.275  -0.175  1.00  0.00    -0.031 C 
HETATM    9  C   UNL     1     -21.177  -9.739   0.820  1.00  0.00    -0.031 C 
BRANCH   9  10
HETATM   10  C   UNL     1     -20.283 -10.920   0.640  1.00  0.00     0.027 C 
BRANCH  10  11
HETATM   11  C   UNL     1     -21.062 -12.100   0.081  1.00  0.00     0.004 C 
BRANCH  11  12
HETATM   12  C   UNL     1     -21.818 -12.807   1.194  1.00  0.00     0.000 C 
BRANCH  12  13
HETATM   13  C   UNL     1     -23.302 -12.853   0.870  1.00  0.00     0.000 C 
BRANCH  13  14
HETATM   14  C   UNL     1     -23.523 -12.600  -0.613  1.00  0.00     0.000 C 
BRANCH  14  15
HETATM   15  C   UNL     1     -24.369 -13.712  -1.214  1.00  0.00    -0.000 C 
BRANCH  15  16
HETATM   16  C   UNL     1     -24.324 -14.952  -0.331  1.00  0.00    -0.005 C 
HETATM   17  C   UNL     1     -25.392 -15.940  -0.753  1.00  0.00     0.005 C 
ENDBRANCH  15  16
ENDBRANCH  14  15
ENDBRANCH  13  14
ENDBRANCH  12  13
ENDBRANCH  11  12
ENDBRANCH  10  11
ENDBRANCH   9  10
ENDBRANCH   7   8
ENDBRANCH   6   7
ENDBRANCH   5   6
ENDBRANCH   4   5
ENDBRANCH   3   4
ENDBRANCH   2   3
ENDBRANCH   1   2
BRANCH   1  18
HETATM   18  C   UNL     1     -20.562  -5.556  -6.551  1.00  0.00     0.258 C 
HETATM   19  O   UNL     1     -19.966  -4.515  -6.379  1.00  0.00    -0.265 OA
BRANCH  18  20
HETATM   20  O   UNL     1     -21.582  -5.759  -7.436  1.00  0.00    -0.319 OA
BRANCH  20  21
HETATM   21  C   UNL     1     -21.580  -4.826  -8.523  1.00  0.00     0.213 C 
BRANCH  21  22
HETATM   22  C   UNL     1     -22.683  -3.788  -8.333  1.00  0.00     0.174 C 
BRANCH  22  23
HETATM   23  C   UNL     1     -23.105  -3.151  -9.663  1.00  0.00     0.183 C 
HETATM   24  C   UNL     1     -24.356  -3.795 -10.272  1.00  0.00     0.180 C 
HETATM   25  C   UNL     1     -24.117  -3.736 -11.793  1.00  0.00     0.173 C 
HETATM   26  C   UNL     1     -22.764  -3.048 -11.928  1.00  0.00     0.202 C 
HETATM   27  O   UNL     1     -22.086  -3.227 -10.674  1.00  0.00    -0.378 OA
BRANCH  24  28
HETATM   28  O   UNL     1     -25.518  -3.185  -9.722  1.00  0.00    -0.390 OA
HETATM   29  H   UNL     1     -25.768  -2.433 -10.282  1.00  0.00     0.210 HD
ENDBRANCH  24  28
BRANCH  25  30
HETATM   30  O   UNL     1     -25.127  -3.148 -12.600  1.00  0.00    -0.391 OA
HETATM   31  H   UNL     1     -25.062  -2.177 -12.574  1.00  0.00     0.210 HD
ENDBRANCH  25  30
ENDBRANCH  22  23
BRANCH  22  32
HETATM   32  O   UNL     1     -23.809  -4.353  -7.653  1.00  0.00    -0.391 OA
HETATM   33  H   UNL     1     -24.102  -3.750  -6.950  1.00  0.00     0.210 HD
ENDBRANCH  22  32
ENDBRANCH  21  22
ENDBRANCH  20  21
ENDBRANCH  18  20
ENDBRANCH   1  18
TORSDOF 22
ENDMDL
MODEL 9
REMARK VINA RESULT:      -6.9      2.230      3.159
REMARK  22 active torsions:
REMARK  status: ('A' for Active; 'I' for Inactive)
REMARK    1  A    between atoms: C_2  and  C_3 
REMARK    2  A    between atoms: C_3  and  C_4 
REMARK    3  A    between atoms: C_4  and  C_5 
REMARK    4  A    between atoms: C_5  and  C_6 
REMARK    5  A    between atoms: C_6  and  C_7 
REMARK    6  A    between atoms: C_7  and  C_8 
REMARK    7  A    between atoms: C_8  and  C_9 
REMARK    8  A    between atoms: C_10  and  C_11 
REMARK    9  A    between atoms: C_11  and  C_12 
REMARK   10  A    between atoms: C_12  and  C_13 
REMARK   11  A    between atoms: C_13  and  C_14 
REMARK   12  A    between atoms: C_14  and  C_15 
REMARK   13  A    between atoms: C_15  and  C_16 
REMARK   14  A    between atoms: C_16  and  C_17 
REMARK   15  A    between atoms: C_17  and  C_18 
REMARK   16  A    between atoms: C_18  and  O_20 
REMARK   17  A    between atoms: O_20  and  C_21 
REMARK   18  A    between atoms: C_21  and  C_22 
REMARK   19  A    between atoms: C_22  and  C_23 
REMARK   20  A    between atoms: C_22  and  O_30 
REMARK   21  A    between atoms: C_24  and  O_29 
REMARK   22  A    between atoms: C_25  and  O_28 
ROOT
HETATM    1  C   UNL     1     -20.277  -7.159  -4.916  1.00  0.00     0.111 C 
ENDROOT
BRANCH   1   2
HETATM    2  C   UNL     1     -21.255  -8.322  -4.814  1.00  0.00     0.010 C 
BRANCH   2   3
HETATM    3  C   UNL     1     -21.559  -8.706  -3.369  1.00  0.00     0.000 C 
BRANCH   3   4
HETATM    4  C   UNL     1     -21.034  -7.641  -2.416  1.00  0.00     0.000 C 
BRANCH   4   5
HETATM    5  C   UNL     1     -21.188  -8.078  -0.961  1.00  0.00     0.000 C 
BRANCH   5   6
HETATM    6  C   UNL     1     -22.280  -7.274  -0.263  1.00  0.00     0.004 C 
BRANCH   6   7
HETATM    7  C   UNL     1     -23.323  -8.200   0.350  1.00  0.00     0.027 C 
BRANCH   7   8
HETATM    8  C   UNL     1     -23.067  -9.620  -0.020  1.00  0.00    -0.031 C 
HETATM    9  C   UNL     1     -24.038 -10.540  -0.034  1.00  0.00    -0.031 C 
BRANCH   9  10
HETATM   10  C   UNL     1     -23.772 -11.960  -0.407  1.00  0.00     0.027 C 
BRANCH  10  11
HETATM   11  C   UNL     1     -23.005 -12.669   0.698  1.00  0.00     0.004 C 
BRANCH  11  12
HETATM   12  C   UNL     1     -21.668 -13.168   0.175  1.00  0.00     0.000 C 
BRANCH  12  13
HETATM   13  C   UNL     1     -20.595 -12.115   0.396  1.00  0.00     0.000 C 
BRANCH  13  14
HETATM   14  C   UNL     1     -20.086 -11.597  -0.941  1.00  0.00     0.000 C 
BRANCH  14  15
HETATM   15  C   UNL     1     -18.568 -11.681  -0.991  1.00  0.00    -0.000 C 
BRANCH  15  16
HETATM   16  C   UNL     1     -18.040 -12.494   0.184  1.00  0.00    -0.005 C 
HETATM   17  C   UNL     1     -16.636 -12.052   0.544  1.00  0.00     0.005 C 
ENDBRANCH  15  16
ENDBRANCH  14  15
ENDBRANCH  13  14
ENDBRANCH  12  13
ENDBRANCH  11  12
ENDBRANCH  10  11
ENDBRANCH   9  10
ENDBRANCH   7   8
ENDBRANCH   6   7
ENDBRANCH   5   6
ENDBRANCH   4   5
ENDBRANCH   3   4
ENDBRANCH   2   3
ENDBRANCH   1   2
BRANCH   1  18
HETATM   18  C   UNL     1     -20.363  -6.517  -6.297  1.00  0.00     0.258 C 
HETATM   19  O   UNL     1     -19.536  -6.688  -7.166  1.00  0.00    -0.265 OA
BRANCH  18  20
HETATM   20  O   UNL     1     -21.431  -5.668  -6.363  1.00  0.00    -0.319 OA
BRANCH  20  21
HETATM   21  C   UNL     1     -21.701  -5.203  -7.691  1.00  0.00     0.213 C 
BRANCH  21  22
HETATM   22  C   UNL     1     -22.651  -4.009  -7.652  1.00  0.00     0.174 C 
BRANCH  22  23
HETATM   23  C   UNL     1     -22.894  -3.425  -9.050  1.00  0.00     0.183 C 
HETATM   24  C   UNL     1     -24.300  -3.714  -9.590  1.00  0.00     0.180 C 
HETATM   25  C   UNL     1     -24.097  -3.901 -11.105  1.00  0.00     0.173 C 
HETATM   26  C   UNL     1     -22.602  -3.685 -11.309  1.00  0.00     0.202 C 
HETATM   27  O   UNL     1     -21.977  -3.923 -10.037  1.00  0.00    -0.378 OA
BRANCH  24  28
HETATM   28  O   UNL     1     -25.201  -2.718  -9.122  1.00  0.00    -0.390 OA
HETATM   29  H   UNL     1     -26.109  -3.038  -9.247  1.00  0.00     0.210 HD
ENDBRANCH  24  28
BRANCH  25  30
HETATM   30  O   UNL     1     -24.900  -3.124 -11.982  1.00  0.00    -0.391 OA
HETATM   31  H   UNL     1     -25.137  -3.637 -12.774  1.00  0.00     0.210 HD
ENDBRANCH  25  30
ENDBRANCH  22  23
BRANCH  22  32
HETATM   32  O   UNL     1     -23.886  -4.355  -7.017  1.00  0.00    -0.391 OA
HETATM   33  H   UNL     1     -24.591  -4.412  -7.684  1.00  0.00     0.210 HD
ENDBRANCH  22  32
ENDBRANCH  21  22
ENDBRANCH  20  21
ENDBRANCH  18  20
ENDBRANCH   1  18
TORSDOF 22
ENDMDL
