MODEL 1
REMARK VINA RESULT:      -5.8      0.000      0.000
REMARK  12 active torsions:
REMARK  status: ('A' for Active; 'I' for Inactive)
REMARK    1  A    between atoms: C_1  and  C_2 
REMARK    2  A    between atoms: C_1  and  O_23 
REMARK    3  A    between atoms: C_3  and  O_22 
REMARK    4  A    between atoms: C_4  and  O_21 
REMARK    5  A    between atoms: C_5  and  O_20 
REMARK    6  A    between atoms: C_6  and  O_8 
REMARK    7  A    between atoms: O_8  and  C_9 
REMARK    8  A    between atoms: C_10  and  O_19 
REMARK    9  A    between atoms: C_11  and  O_18 
REMARK   10  A    between atoms: C_12  and  O_17 
REMARK   11  A    between atoms: C_13  and  C_15 
REMARK   12  A    between atoms: C_15  and  O_16 
ROOT
HETATM    1  O   UNL     1     -20.333  -6.537  -6.831  1.00  0.00    -0.326 OA
ENDROOT
BRANCH   1   2
HETATM    2  C   UNL     1     -20.391  -6.873  -5.429  1.00  0.00     0.294 C 
HETATM    3  C   UNL     1     -19.726  -8.254  -5.243  1.00  0.00     0.204 C 
HETATM    4  C   UNL     1     -19.672  -8.594  -3.752  1.00  0.00     0.183 C 
HETATM    5  C   UNL     1     -21.087  -8.539  -3.127  1.00  0.00     0.180 C 
HETATM    6  C   UNL     1     -21.839  -7.253  -3.527  1.00  0.00     0.179 C 
HETATM    7  O   UNL     1     -21.732  -6.950  -4.940  1.00  0.00    -0.348 OA
BRANCH   3   8
HETATM    8  O   UNL     1     -20.506  -9.287  -5.901  1.00  0.00    -0.388 OA
HETATM    9  H   UNL     1     -19.949  -9.612  -6.636  1.00  0.00     0.210 HD
ENDBRANCH   3   8
BRANCH   4  10
HETATM   10  O   UNL     1     -19.092  -9.898  -3.578  1.00  0.00    -0.390 OA
HETATM   11  H   UNL     1     -18.383  -9.780  -2.916  1.00  0.00     0.210 HD
ENDBRANCH   4  10
BRANCH   5  12
HETATM   12  O   UNL     1     -21.850  -9.679  -3.564  1.00  0.00    -0.390 OA
HETATM   13  H   UNL     1     -22.688  -9.329  -3.931  1.00  0.00     0.210 HD
ENDBRANCH   5  12
BRANCH   6  14
HETATM   14  C   UNL     1     -21.456  -6.047  -2.655  1.00  0.00     0.198 C 
BRANCH  14  15
HETATM   15  O   UNL     1     -22.501  -5.695  -1.753  1.00  0.00    -0.398 OA
HETATM   16  H   UNL     1     -23.187  -6.386  -1.811  1.00  0.00     0.209 HD
ENDBRANCH  14  15
ENDBRANCH   6  14
ENDBRANCH   1   2
BRANCH   1  17
HETATM   17  C   UNL     1     -20.333  -5.125  -7.079  1.00  0.00     0.294 C 
HETATM   18  C   UNL     1     -21.748  -4.531  -6.864  1.00  0.00     0.204 C 
HETATM   19  C   UNL     1     -22.700  -4.838  -8.030  1.00  0.00     0.183 C 
HETATM   20  C   UNL     1     -22.059  -4.556  -9.397  1.00  0.00     0.180 C 
HETATM   21  C   UNL     1     -20.644  -5.142  -9.478  1.00  0.00     0.179 C 
HETATM   22  O   UNL     1     -19.824  -4.758  -8.362  1.00  0.00    -0.348 OA
BRANCH  18  23
HETATM   23  O   UNL     1     -21.666  -3.094  -6.744  1.00  0.00    -0.388 OA
HETATM   24  H   UNL     1     -21.640  -2.776  -7.671  1.00  0.00     0.210 HD
ENDBRANCH  18  23
BRANCH  19  25
HETATM   25  O   UNL     1     -23.887  -4.031  -7.860  1.00  0.00    -0.390 OA
HETATM   26  H   UNL     1     -23.601  -3.096  -7.827  1.00  0.00     0.210 HD
ENDBRANCH  19  25
BRANCH  20  27
HETATM   27  O   UNL     1     -22.066  -3.140  -9.635  1.00  0.00    -0.390 OA
HETATM   28  H   UNL     1     -22.022  -3.012 -10.604  1.00  0.00     0.210 HD
ENDBRANCH  20  27
BRANCH  21  29
HETATM   29  C   UNL     1     -19.899  -4.656 -10.728  1.00  0.00     0.198 C 
BRANCH  29  30
HETATM   30  O   UNL     1     -20.849  -4.309 -11.741  1.00  0.00    -0.398 OA
HETATM   31  H   UNL     1     -21.313  -5.146 -11.938  1.00  0.00     0.209 HD
ENDBRANCH  29  30
ENDBRANCH  21  29
ENDBRANCH   1  17
TORSDOF 12
ENDMDL
MODEL 2
REMARK VINA RESULT:      -5.2     11.407     14.114
REMARK  12 active torsions:
REMARK  status: ('A' for Active; 'I' for Inactive)
REMARK    1  A    between atoms: C_1  and  C_2 
REMARK    2  A    between atoms: C_1  and  O_23 
REMARK    3  A    between atoms: C_3  and  O_22 
REMARK    4  A    between atoms: C_4  and  O_21 
REMARK    5  A    between atoms: C_5  and  O_20 
REMARK    6  A    between atoms: C_6  and  O_8 
REMARK    7  A    between atoms: O_8  and  C_9 
REMARK    8  A    between atoms: C_10  and  O_19 
REMARK    9  A    between atoms: C_11  and  O_18 
REMARK   10  A    between atoms: C_12  and  O_17 
REMARK   11  A    between atoms: C_13  and  C_15 
REMARK   12  A    between atoms: C_15  and  O_16 
ROOT
HETATM    1  O   UNL     1     -27.531  -5.770 -16.802  1.00  0.00    -0.326 OA
ENDROOT
BRANCH   1   2
HETATM    2  C   UNL     1     -26.628  -6.581 -17.581  1.00  0.00     0.294 C 
HETATM    3  C   UNL     1     -25.430  -6.958 -16.682  1.00  0.00     0.204 C 
HETATM    4  C   UNL     1     -24.505  -7.910 -17.444  1.00  0.00     0.183 C 
HETATM    5  C   UNL     1     -24.053  -7.278 -18.783  1.00  0.00     0.180 C 
HETATM    6  C   UNL     1     -25.242  -6.682 -19.563  1.00  0.00     0.179 C 
HETATM    7  O   UNL     1     -26.129  -5.893 -18.731  1.00  0.00    -0.348 OA
BRANCH   3   8
HETATM    8  O   UNL     1     -24.660  -5.777 -16.340  1.00  0.00    -0.388 OA
HETATM    9  H   UNL     1     -23.848  -6.107 -15.906  1.00  0.00     0.210 HD
ENDBRANCH   3   8
BRANCH   4  10
HETATM   10  O   UNL     1     -23.367  -8.230 -16.625  1.00  0.00    -0.390 OA
HETATM   11  H   UNL     1     -23.683  -8.906 -15.994  1.00  0.00     0.210 HD
ENDBRANCH   4  10
BRANCH   5  12
HETATM   12  O   UNL     1     -23.096  -6.234 -18.523  1.00  0.00    -0.390 OA
HETATM   13  H   UNL     1     -22.211  -6.625 -18.667  1.00  0.00     0.210 HD
ENDBRANCH   5  12
BRANCH   6  14
HETATM   14  C   UNL     1     -26.009  -7.738 -20.373  1.00  0.00     0.198 C 
BRANCH  14  15
HETATM   15  O   UNL     1     -25.176  -8.372 -21.338  1.00  0.00    -0.398 OA
HETATM   16  H   UNL     1     -25.595  -8.259 -22.211  1.00  0.00     0.209 HD
ENDBRANCH  14  15
ENDBRANCH   6  14
ENDBRANCH   1   2
BRANCH   1  17
HETATM   17  C   UNL     1     -28.613  -6.513 -16.227  1.00  0.00     0.294 C 
HETATM   18  C   UNL     1     -28.947  -7.754 -17.095  1.00  0.00     0.204 C 
HETATM   19  C   UNL     1     -29.735  -7.391 -18.363  1.00  0.00     0.183 C 
HETATM   20  C   UNL     1     -30.911  -6.446 -18.069  1.00  0.00     0.180 C 
HETATM   21  C   UNL     1     -30.479  -5.289 -17.161  1.00  0.00     0.179 C 
HETATM   22  O   UNL     1     -29.789  -5.740 -15.984  1.00  0.00    -0.348 OA
BRANCH  18  23
HETATM   23  O   UNL     1     -29.755  -8.681 -16.338  1.00  0.00    -0.388 OA
HETATM   24  H   UNL     1     -30.495  -8.135 -15.999  1.00  0.00     0.210 HD
ENDBRANCH  18  23
BRANCH  19  25
HETATM   25  O   UNL     1     -30.219  -8.619 -18.953  1.00  0.00    -0.390 OA
HETATM   26  H   UNL     1     -31.193  -8.549 -19.012  1.00  0.00     0.210 HD
ENDBRANCH  19  25
BRANCH  20  27
HETATM   27  O   UNL     1     -31.989  -7.202 -17.497  1.00  0.00    -0.390 OA
HETATM   28  H   UNL     1     -32.710  -6.570 -17.300  1.00  0.00     0.210 HD
ENDBRANCH  20  27
BRANCH  21  29
HETATM   29  C   UNL     1     -31.683  -4.484 -16.655  1.00  0.00     0.198 C 
BRANCH  29  30
HETATM   30  O   UNL     1     -31.719  -3.217 -17.320  1.00  0.00    -0.398 OA
HETATM   31  H   UNL     1     -30.834  -2.834 -17.164  1.00  0.00     0.209 HD
ENDBRANCH  29  30
ENDBRANCH  21  29
ENDBRANCH   1  17
TORSDOF 12
ENDMDL
MODEL 3
REMARK VINA RESULT:      -5.0      3.123      6.349
REMARK  12 active torsions:
REMARK  status: ('A' for Active; 'I' for Inactive)
REMARK    1  A    between atoms: C_1  and  C_2 
REMARK    2  A    between atoms: C_1  and  O_23 
REMARK    3  A    between atoms: C_3  and  O_22 
REMARK    4  A    between atoms: C_4  and  O_21 
REMARK    5  A    between atoms: C_5  and  O_20 
REMARK    6  A    between atoms: C_6  and  O_8 
REMARK    7  A    between atoms: O_8  and  C_9 
REMARK    8  A    between atoms: C_10  and  O_19 
REMARK    9  A    between atoms: C_11  and  O_18 
REMARK   10  A    between atoms: C_12  and  O_17 
REMARK   11  A    between atoms: C_13  and  C_15 
REMARK   12  A    between atoms: C_15  and  O_16 
ROOT
HETATM    1  O   UNL     1     -19.089  -8.953  -3.022  1.00  0.00    -0.326 OA
ENDROOT
BRANCH   1   2
HETATM    2  C   UNL     1     -18.166  -9.851  -3.672  1.00  0.00     0.294 C 
HETATM    3  C   UNL     1     -18.252 -11.219  -2.961  1.00  0.00     0.204 C 
HETATM    4  C   UNL     1     -17.365 -12.228  -3.694  1.00  0.00     0.183 C 
HETATM    5  C   UNL     1     -15.909 -11.710  -3.787  1.00  0.00     0.180 C 
HETATM    6  C   UNL     1     -15.854 -10.246  -4.269  1.00  0.00     0.179 C 
HETATM    7  O   UNL     1     -16.814  -9.392  -3.600  1.00  0.00    -0.348 OA
BRANCH   3   8
HETATM    8  O   UNL     1     -17.766 -11.117  -1.598  1.00  0.00    -0.388 OA
HETATM    9  H   UNL     1     -16.800 -10.980  -1.670  1.00  0.00     0.210 HD
ENDBRANCH   3   8
BRANCH   4  10
HETATM   10  O   UNL     1     -17.411 -13.493  -3.011  1.00  0.00    -0.390 OA
HETATM   11  H   UNL     1     -17.107 -13.307  -2.101  1.00  0.00     0.210 HD
ENDBRANCH   4  10
BRANCH   5  12
HETATM   12  O   UNL     1     -15.285 -11.798  -2.493  1.00  0.00    -0.390 OA
HETATM   13  H   UNL     1     -14.365 -11.485  -2.606  1.00  0.00     0.210 HD
ENDBRANCH   5  12
BRANCH   6  14
HETATM   14  C   UNL     1     -15.947 -10.121  -5.798  1.00  0.00     0.198 C 
BRANCH  14  15
HETATM   15  O   UNL     1     -15.420 -11.270  -6.454  1.00  0.00    -0.398 OA
HETATM   16  H   UNL     1     -14.474 -11.334  -6.225  1.00  0.00     0.209 HD
ENDBRANCH  14  15
ENDBRANCH   6  14
ENDBRANCH   1   2
BRANCH   1  17
HETATM   17  C   UNL     1     -20.403  -8.975  -3.593  1.00  0.00     0.294 C 
HETATM   18  C   UNL     1     -20.361  -8.535  -5.080  1.00  0.00     0.204 C 
HETATM   19  C   UNL     1     -20.204  -7.016  -5.240  1.00  0.00     0.183 C 
HETATM   20  C   UNL     1     -21.171  -6.230  -4.340  1.00  0.00     0.180 C 
HETATM   21  C   UNL     1     -21.171  -6.784  -2.911  1.00  0.00     0.179 C 
HETATM   22  O   UNL     1     -21.367  -8.207  -2.871  1.00  0.00    -0.348 OA
BRANCH  18  23
HETATM   23  O   UNL     1     -21.588  -8.913  -5.739  1.00  0.00    -0.388 OA
HETATM   24  H   UNL     1     -21.793  -8.152  -6.323  1.00  0.00     0.210 HD
ENDBRANCH  18  23
BRANCH  19  25
HETATM   25  O   UNL     1     -20.440  -6.688  -6.629  1.00  0.00    -0.390 OA
HETATM   26  H   UNL     1     -21.366  -6.930  -6.832  1.00  0.00     0.210 HD
ENDBRANCH  19  25
BRANCH  20  27
HETATM   27  O   UNL     1     -22.482  -6.257  -4.924  1.00  0.00    -0.390 OA
HETATM   28  H   UNL     1     -23.049  -6.791  -4.332  1.00  0.00     0.210 HD
ENDBRANCH  20  27
BRANCH  21  29
HETATM   29  C   UNL     1     -22.305  -6.184  -2.069  1.00  0.00     0.198 C 
BRANCH  29  30
HETATM   30  O   UNL     1     -22.483  -6.969  -0.885  1.00  0.00    -0.398 OA
HETATM   31  H   UNL     1     -21.575  -7.133  -0.562  1.00  0.00     0.209 HD
ENDBRANCH  29  30
ENDBRANCH  21  29
ENDBRANCH   1  17
TORSDOF 12
ENDMDL
MODEL 4
REMARK VINA RESULT:      -4.9      5.308      7.615
REMARK  12 active torsions:
REMARK  status: ('A' for Active; 'I' for Inactive)
REMARK    1  A    between atoms: C_1  and  C_2 
REMARK    2  A    between atoms: C_1  and  O_23 
REMARK    3  A    between atoms: C_3  and  O_22 
REMARK    4  A    between atoms: C_4  and  O_21 
REMARK    5  A    between atoms: C_5  and  O_20 
REMARK    6  A    between atoms: C_6  and  O_8 
REMARK    7  A    between atoms: O_8  and  C_9 
REMARK    8  A    between atoms: C_10  and  O_19 
REMARK    9  A    between atoms: C_11  and  O_18 
REMARK   10  A    between atoms: C_12  and  O_17 
REMARK   11  A    between atoms: C_13  and  C_15 
REMARK   12  A    between atoms: C_15  and  O_16 
ROOT
HETATM    1  O   UNL     1     -19.039  -8.927  -2.082  1.00  0.00    -0.326 OA
ENDROOT
BRANCH   1   2
HETATM    2  C   UNL     1     -18.483  -9.795  -3.092  1.00  0.00     0.294 C 
HETATM    3  C   UNL     1     -17.052 -10.176  -2.657  1.00  0.00     0.204 C 
HETATM    4  C   UNL     1     -16.471 -11.184  -3.652  1.00  0.00     0.183 C 
HETATM    5  C   UNL     1     -16.512 -10.617  -5.092  1.00  0.00     0.180 C 
HETATM    6  C   UNL     1     -17.891 -10.012  -5.428  1.00  0.00     0.179 C 
HETATM    7  O   UNL     1     -18.412  -9.166  -4.374  1.00  0.00    -0.348 OA
BRANCH   3   8
HETATM    8  O   UNL     1     -16.190  -9.008  -2.663  1.00  0.00    -0.388 OA
HETATM    9  H   UNL     1     -16.741  -8.271  -2.332  1.00  0.00     0.210 HD
ENDBRANCH   3   8
BRANCH   4  10
HETATM   10  O   UNL     1     -15.123 -11.509  -3.273  1.00  0.00    -0.390 OA
HETATM   11  H   UNL     1     -15.201 -12.265  -2.658  1.00  0.00     0.210 HD
ENDBRANCH   4  10
BRANCH   5  12
HETATM   12  O   UNL     1     -15.508  -9.595  -5.234  1.00  0.00    -0.390 OA
HETATM   13  H   UNL     1     -14.926  -9.877  -5.968  1.00  0.00     0.210 HD
ENDBRANCH   5  12
BRANCH   6  14
HETATM   14  C   UNL     1     -18.912 -11.073  -5.866  1.00  0.00     0.198 C 
BRANCH  14  15
HETATM   15  O   UNL     1     -20.197 -10.504  -6.100  1.00  0.00    -0.398 OA
HETATM   16  H   UNL     1     -20.694 -10.543  -5.262  1.00  0.00     0.209 HD
ENDBRANCH  14  15
ENDBRANCH   6  14
ENDBRANCH   1   2
BRANCH   1  17
HETATM   17  C   UNL     1     -20.439  -8.676  -2.253  1.00  0.00     0.294 C 
HETATM   18  C   UNL     1     -20.992  -7.831  -1.076  1.00  0.00     0.204 C 
HETATM   19  C   UNL     1     -21.193  -8.661   0.201  1.00  0.00     0.183 C 
HETATM   20  C   UNL     1     -21.924  -9.985  -0.071  1.00  0.00     0.180 C 
HETATM   21  C   UNL     1     -21.329 -10.707  -1.286  1.00  0.00     0.179 C 
HETATM   22  O   UNL     1     -21.226  -9.854  -2.438  1.00  0.00    -0.348 OA
BRANCH  18  23
HETATM   23  O   UNL     1     -22.275  -7.273  -1.432  1.00  0.00    -0.388 OA
HETATM   24  H   UNL     1     -22.287  -7.299  -2.412  1.00  0.00     0.210 HD
ENDBRANCH  18  23
BRANCH  19  25
HETATM   25  O   UNL     1     -21.947  -7.860   1.138  1.00  0.00    -0.390 OA
HETATM   26  H   UNL     1     -22.133  -7.002   0.705  1.00  0.00     0.210 HD
ENDBRANCH  19  25
BRANCH  20  27
HETATM   27  O   UNL     1     -23.326  -9.721  -0.239  1.00  0.00    -0.390 OA
HETATM   28  H   UNL     1     -23.476  -9.565  -1.193  1.00  0.00     0.210 HD
ENDBRANCH  20  27
BRANCH  21  29
HETATM   29  C   UNL     1     -22.199 -11.893  -1.724  1.00  0.00     0.198 C 
BRANCH  29  30
HETATM   30  O   UNL     1     -23.179 -11.440  -2.664  1.00  0.00    -0.398 OA
HETATM   31  H   UNL     1     -24.018 -11.830  -2.349  1.00  0.00     0.209 HD
ENDBRANCH  29  30
ENDBRANCH  21  29
ENDBRANCH   1  17
TORSDOF 12
ENDMDL
MODEL 5
REMARK VINA RESULT:      -4.8      2.318      3.670
REMARK  12 active torsions:
REMARK  status: ('A' for Active; 'I' for Inactive)
REMARK    1  A    between atoms: C_1  and  C_2 
REMARK    2  A    between atoms: C_1  and  O_23 
REMARK    3  A    between atoms: C_3  and  O_22 
REMARK    4  A    between atoms: C_4  and  O_21 
REMARK    5  A    between atoms: C_5  and  O_20 
REMARK    6  A    between atoms: C_6  and  O_8 
REMARK    7  A    between atoms: O_8  and  C_9 
REMARK    8  A    between atoms: C_10  and  O_19 
REMARK    9  A    between atoms: C_11  and  O_18 
REMARK   10  A    between atoms: C_12  and  O_17 
REMARK   11  A    between atoms: C_13  and  C_15 
REMARK   12  A    between atoms: C_15  and  O_16 
ROOT
HETATM    1  O   UNL     1     -21.281  -4.371  -9.192  1.00  0.00    -0.326 OA
ENDROOT
BRANCH   1   2
HETATM    2  C   UNL     1     -21.358  -4.775  -7.809  1.00  0.00     0.294 C 
HETATM    3  C   UNL     1     -20.064  -4.312  -7.105  1.00  0.00     0.204 C 
HETATM    4  C   UNL     1     -20.159  -4.628  -5.611  1.00  0.00     0.183 C 
HETATM    5  C   UNL     1     -20.437  -6.134  -5.387  1.00  0.00     0.180 C 
HETATM    6  C   UNL     1     -21.583  -6.642  -6.286  1.00  0.00     0.179 C 
HETATM    7  O   UNL     1     -21.469  -6.192  -7.659  1.00  0.00    -0.348 OA
BRANCH   3   8
HETATM    8  O   UNL     1     -18.915  -5.025  -7.633  1.00  0.00    -0.388 OA
HETATM    9  H   UNL     1     -18.493  -4.414  -8.269  1.00  0.00     0.210 HD
ENDBRANCH   3   8
BRANCH   4  10
HETATM   10  O   UNL     1     -18.938  -4.236  -4.959  1.00  0.00    -0.390 OA
HETATM   11  H   UNL     1     -19.040  -4.515  -4.028  1.00  0.00     0.210 HD
ENDBRANCH   4  10
BRANCH   5  12
HETATM   12  O   UNL     1     -19.247  -6.891  -5.676  1.00  0.00    -0.390 OA
HETATM   13  H   UNL     1     -19.445  -7.820  -5.442  1.00  0.00     0.210 HD
ENDBRANCH   5  12
BRANCH   6  14
HETATM   14  C   UNL     1     -22.972  -6.345  -5.701  1.00  0.00     0.198 C 
BRANCH  14  15
HETATM   15  O   UNL     1     -22.938  -6.250  -4.280  1.00  0.00    -0.398 OA
HETATM   16  H   UNL     1     -22.294  -5.557  -4.046  1.00  0.00     0.209 HD
ENDBRANCH  14  15
ENDBRANCH   6  14
ENDBRANCH   1   2
BRANCH   1  17
HETATM   17  C   UNL     1     -22.188  -3.314  -9.528  1.00  0.00     0.294 C 
HETATM   18  C   UNL     1     -23.633  -3.674  -9.094  1.00  0.00     0.204 C 
HETATM   19  C   UNL     1     -24.298  -4.684 -10.041  1.00  0.00     0.183 C 
HETATM   20  C   UNL     1     -24.121  -4.304 -11.519  1.00  0.00     0.180 C 
HETATM   21  C   UNL     1     -22.669  -3.916 -11.822  1.00  0.00     0.179 C 
HETATM   22  O   UNL     1     -22.158  -2.934 -10.905  1.00  0.00    -0.348 OA
BRANCH  18  23
HETATM   23  O   UNL     1     -24.454  -2.487  -9.088  1.00  0.00    -0.388 OA
HETATM   24  H   UNL     1     -25.010  -2.582  -8.286  1.00  0.00     0.210 HD
ENDBRANCH  18  23
BRANCH  19  25
HETATM   25  O   UNL     1     -25.703  -4.748  -9.708  1.00  0.00    -0.390 OA
HETATM   26  H   UNL     1     -26.133  -3.965 -10.109  1.00  0.00     0.210 HD
ENDBRANCH  19  25
BRANCH  20  27
HETATM   27  O   UNL     1     -25.036  -3.247 -11.845  1.00  0.00    -0.390 OA
HETATM   28  H   UNL     1     -24.773  -2.899 -12.721  1.00  0.00     0.210 HD
ENDBRANCH  20  27
BRANCH  21  29
HETATM   29  C   UNL     1     -22.526  -3.295 -13.218  1.00  0.00     0.198 C 
BRANCH  29  30
HETATM   30  O   UNL     1     -23.580  -3.774 -14.060  1.00  0.00    -0.398 OA
HETATM   31  H   UNL     1     -23.519  -4.747 -13.998  1.00  0.00     0.209 HD
ENDBRANCH  29  30
ENDBRANCH  21  29
ENDBRANCH   1  17
TORSDOF 12
ENDMDL
MODEL 6
REMARK VINA RESULT:      -4.7      5.675      8.134
REMARK  12 active torsions:
REMARK  status: ('A' for Active; 'I' for Inactive)
REMARK    1  A    between atoms: C_1  and  C_2 
REMARK    2  A    between atoms: C_1  and  O_23 
REMARK    3  A    between atoms: C_3  and  O_22 
REMARK    4  A    between atoms: C_4  and  O_21 
REMARK    5  A    between atoms: C_5  and  O_20 
REMARK    6  A    between atoms: C_6  and  O_8 
REMARK    7  A    between atoms: O_8  and  C_9 
REMARK    8  A    between atoms: C_10  and  O_19 
REMARK    9  A    between atoms: C_11  and  O_18 
REMARK   10  A    between atoms: C_12  and  O_17 
REMARK   11  A    between atoms: C_13  and  C_15 
REMARK   12  A    between atoms: C_15  and  O_16 
ROOT
HETATM    1  O   UNL     1     -19.237  -9.564  -2.161  1.00  0.00    -0.326 OA
ENDROOT
BRANCH   1   2
HETATM    2  C   UNL     1     -18.593 -10.291  -3.228  1.00  0.00     0.294 C 
HETATM    3  C   UNL     1     -17.132 -10.560  -2.808  1.00  0.00     0.204 C 
HETATM    4  C   UNL     1     -16.450 -11.425  -3.870  1.00  0.00     0.183 C 
HETATM    5  C   UNL     1     -16.542 -10.754  -5.262  1.00  0.00     0.180 C 
HETATM    6  C   UNL     1     -17.973 -10.266  -5.567  1.00  0.00     0.179 C 
HETATM    7  O   UNL     1     -18.580  -9.561  -4.457  1.00  0.00    -0.348 OA
BRANCH   3   8
HETATM    8  O   UNL     1     -16.392  -9.315  -2.713  1.00  0.00    -0.388 OA
HETATM    9  H   UNL     1     -16.860  -8.684  -3.295  1.00  0.00     0.210 HD
ENDBRANCH   3   8
BRANCH   4  10
HETATM   10  O   UNL     1     -15.076 -11.642  -3.502  1.00  0.00    -0.390 OA
HETATM   11  H   UNL     1     -14.583 -11.665  -4.345  1.00  0.00     0.210 HD
ENDBRANCH   4  10
BRANCH   5  12
HETATM   12  O   UNL     1     -15.645  -9.629  -5.314  1.00  0.00    -0.390 OA
HETATM   13  H   UNL     1     -15.998  -9.023  -5.996  1.00  0.00     0.210 HD
ENDBRANCH   5  12
BRANCH   6  14
HETATM   14  C   UNL     1     -18.881 -11.387  -6.097  1.00  0.00     0.198 C 
BRANCH  14  15
HETATM   15  O   UNL     1     -20.192 -10.912  -6.384  1.00  0.00    -0.398 OA
HETATM   16  H   UNL     1     -20.809 -11.658  -6.264  1.00  0.00     0.209 HD
ENDBRANCH  14  15
ENDBRANCH   6  14
ENDBRANCH   1   2
BRANCH   1  17
HETATM   17  C   UNL     1     -19.869 -10.412  -1.194  1.00  0.00     0.294 C 
HETATM   18  C   UNL     1     -20.864 -11.381  -1.883  1.00  0.00     0.204 C 
HETATM   19  C   UNL     1     -22.176 -10.690  -2.286  1.00  0.00     0.183 C 
HETATM   20  C   UNL     1     -22.757  -9.833  -1.151  1.00  0.00     0.180 C 
HETATM   21  C   UNL     1     -21.676  -8.957  -0.508  1.00  0.00     0.179 C 
HETATM   22  O   UNL     1     -20.511  -9.708  -0.130  1.00  0.00    -0.348 OA
BRANCH  18  23
HETATM   23  O   UNL     1     -21.205 -12.458  -0.984  1.00  0.00    -0.388 OA
HETATM   24  H   UNL     1     -21.209 -12.040  -0.098  1.00  0.00     0.210 HD
ENDBRANCH  18  23
BRANCH  19  25
HETATM   25  O   UNL     1     -23.120 -11.716  -2.669  1.00  0.00    -0.390 OA
HETATM   26  H   UNL     1     -23.450 -12.130  -1.847  1.00  0.00     0.210 HD
ENDBRANCH  19  25
BRANCH  20  27
HETATM   27  O   UNL     1     -23.390 -10.693  -0.191  1.00  0.00    -0.390 OA
HETATM   28  H   UNL     1     -24.157 -11.106  -0.637  1.00  0.00     0.210 HD
ENDBRANCH  20  27
BRANCH  21  29
HETATM   29  C   UNL     1     -22.177  -8.290   0.779  1.00  0.00     0.198 C 
BRANCH  29  30
HETATM   30  O   UNL     1     -23.577  -8.019   0.659  1.00  0.00    -0.398 OA
HETATM   31  H   UNL     1     -24.011  -8.799   1.057  1.00  0.00     0.209 HD
ENDBRANCH  29  30
ENDBRANCH  21  29
ENDBRANCH   1  17
TORSDOF 12
ENDMDL
MODEL 7
REMARK VINA RESULT:      -4.7     13.974     17.673
REMARK  12 active torsions:
REMARK  status: ('A' for Active; 'I' for Inactive)
REMARK    1  A    between atoms: C_1  and  C_2 
REMARK    2  A    between atoms: C_1  and  O_23 
REMARK    3  A    between atoms: C_3  and  O_22 
REMARK    4  A    between atoms: C_4  and  O_21 
REMARK    5  A    between atoms: C_5  and  O_20 
REMARK    6  A    between atoms: C_6  and  O_8 
REMARK    7  A    between atoms: O_8  and  C_9 
REMARK    8  A    between atoms: C_10  and  O_19 
REMARK    9  A    between atoms: C_11  and  O_18 
REMARK   10  A    between atoms: C_12  and  O_17 
REMARK   11  A    between atoms: C_13  and  C_15 
REMARK   12  A    between atoms: C_15  and  O_16 
ROOT
HETATM    1  O   UNL     1     -34.568  -0.476 -13.085  1.00  0.00    -0.326 OA
ENDROOT
BRANCH   1   2
HETATM    2  C   UNL     1     -34.894  -0.399 -14.489  1.00  0.00     0.294 C 
HETATM    3  C   UNL     1     -35.743   0.871 -14.712  1.00  0.00     0.204 C 
HETATM    4  C   UNL     1     -36.015   1.042 -16.208  1.00  0.00     0.183 C 
HETATM    5  C   UNL     1     -36.694  -0.223 -16.789  1.00  0.00     0.180 C 
HETATM    6  C   UNL     1     -35.970  -1.512 -16.350  1.00  0.00     0.179 C 
HETATM    7  O   UNL     1     -35.648  -1.529 -14.937  1.00  0.00    -0.348 OA
BRANCH   3   8
HETATM    8  O   UNL     1     -37.026   0.750 -14.043  1.00  0.00    -0.388 OA
HETATM    9  H   UNL     1     -37.285  -0.188 -14.135  1.00  0.00     0.210 HD
ENDBRANCH   3   8
BRANCH   4  10
HETATM   10  O   UNL     1     -36.841   2.201 -16.416  1.00  0.00    -0.390 OA
HETATM   11  H   UNL     1     -36.844   2.674 -15.561  1.00  0.00     0.210 HD
ENDBRANCH   4  10
BRANCH   5  12
HETATM   12  O   UNL     1     -38.061  -0.282 -16.342  1.00  0.00    -0.390 OA
HETATM   13  H   UNL     1     -38.048  -0.711 -15.462  1.00  0.00     0.210 HD
ENDBRANCH   5  12
BRANCH   6  14
HETATM   14  C   UNL     1     -34.743  -1.827 -17.218  1.00  0.00     0.198 C 
BRANCH  14  15
HETATM   15  O   UNL     1     -34.145  -3.068 -16.857  1.00  0.00    -0.398 OA
HETATM   16  H   UNL     1     -34.708  -3.481 -16.177  1.00  0.00     0.209 HD
ENDBRANCH  14  15
ENDBRANCH   6  14
ENDBRANCH   1   2
BRANCH   1  17
HETATM   17  C   UNL     1     -35.315  -1.475 -12.380  1.00  0.00     0.294 C 
HETATM   18  C   UNL     1     -35.135  -1.314 -10.848  1.00  0.00     0.204 C 
HETATM   19  C   UNL     1     -33.776  -1.835 -10.356  1.00  0.00     0.183 C 
HETATM   20  C   UNL     1     -33.443  -3.223 -10.924  1.00  0.00     0.180 C 
HETATM   21  C   UNL     1     -33.708  -3.284 -12.433  1.00  0.00     0.179 C 
HETATM   22  O   UNL     1     -35.021  -2.815 -12.781  1.00  0.00    -0.348 OA
BRANCH  18  23
HETATM   23  O   UNL     1     -36.158  -2.057 -10.152  1.00  0.00    -0.388 OA
HETATM   24  H   UNL     1     -35.762  -2.253  -9.277  1.00  0.00     0.210 HD
ENDBRANCH  18  23
BRANCH  19  25
HETATM   25  O   UNL     1     -33.815  -1.885  -8.912  1.00  0.00    -0.390 OA
HETATM   26  H   UNL     1     -33.848  -0.961  -8.590  1.00  0.00     0.210 HD
ENDBRANCH  19  25
BRANCH  20  27
HETATM   27  O   UNL     1     -34.194  -4.216 -10.209  1.00  0.00    -0.390 OA
HETATM   28  H   UNL     1     -35.141  -4.004 -10.334  1.00  0.00     0.210 HD
ENDBRANCH  20  27
BRANCH  21  29
HETATM   29  C   UNL     1     -33.624  -4.719 -12.968  1.00  0.00     0.198 C 
BRANCH  29  30
HETATM   30  O   UNL     1     -34.936  -5.293 -12.992  1.00  0.00    -0.398 OA
HETATM   31  H   UNL     1     -35.372  -4.872 -13.758  1.00  0.00     0.209 HD
ENDBRANCH  29  30
ENDBRANCH  21  29
ENDBRANCH   1  17
TORSDOF 12
ENDMDL
MODEL 8
REMARK VINA RESULT:      -4.7      5.248      7.697
REMARK  12 active torsions:
REMARK  status: ('A' for Active; 'I' for Inactive)
REMARK    1  A    between atoms: C_1  and  C_2 
REMARK    2  A    between atoms: C_1  and  O_23 
REMARK    3  A    between atoms: C_3  and  O_22 
REMARK    4  A    between atoms: C_4  and  O_21 
REMARK    5  A    between atoms: C_5  and  O_20 
REMARK    6  A    between atoms: C_6  and  O_8 
REMARK    7  A    between atoms: O_8  and  C_9 
REMARK    8  A    between atoms: C_10  and  O_19 
REMARK    9  A    between atoms: C_11  and  O_18 
REMARK   10  A    between atoms: C_12  and  O_17 
REMARK   11  A    between atoms: C_13  and  C_15 
REMARK   12  A    between atoms: C_15  and  O_16 
ROOT
HETATM    1  O   UNL     1     -20.444  -9.986  -3.229  1.00  0.00    -0.326 OA
ENDROOT
BRANCH   1   2
HETATM    2  C   UNL     1     -19.251 -10.145  -4.025  1.00  0.00     0.294 C 
HETATM    3  C   UNL     1     -19.653 -10.817  -5.355  1.00  0.00     0.204 C 
HETATM    4  C   UNL     1     -18.429 -10.902  -6.270  1.00  0.00     0.183 C 
HETATM    5  C   UNL     1     -17.271 -11.649  -5.566  1.00  0.00     0.180 C 
HETATM    6  C   UNL     1     -17.041 -11.126  -4.133  1.00  0.00     0.179 C 
HETATM    7  O   UNL     1     -18.272 -10.965  -3.384  1.00  0.00    -0.348 OA
BRANCH   3   8
HETATM    8  O   UNL     1     -20.121 -12.171  -5.121  1.00  0.00    -0.388 OA
HETATM    9  H   UNL     1     -19.390 -12.756  -5.403  1.00  0.00     0.210 HD
ENDBRANCH   3   8
BRANCH   4  10
HETATM   10  O   UNL     1     -18.790 -11.565  -7.494  1.00  0.00    -0.390 OA
HETATM   11  H   UNL     1     -19.755 -11.443  -7.580  1.00  0.00     0.210 HD
ENDBRANCH   4  10
BRANCH   5  12
HETATM   12  O   UNL     1     -17.573 -13.055  -5.505  1.00  0.00    -0.390 OA
HETATM   13  H   UNL     1     -16.773 -13.526  -5.816  1.00  0.00     0.210 HD
ENDBRANCH   5  12
BRANCH   6  14
HETATM   14  C   UNL     1     -16.182  -9.854  -4.097  1.00  0.00     0.198 C 
BRANCH  14  15
HETATM   15  O   UNL     1     -15.348  -9.747  -5.246  1.00  0.00    -0.398 OA
HETATM   16  H   UNL     1     -14.442  -9.991  -4.978  1.00  0.00     0.209 HD
ENDBRANCH  14  15
ENDBRANCH   6  14
ENDBRANCH   1   2
BRANCH   1  17
HETATM   17  C   UNL     1     -20.176  -9.672  -1.856  1.00  0.00     0.294 C 
HETATM   18  C   UNL     1     -20.819 -10.726  -0.918  1.00  0.00     0.204 C 
HETATM   19  C   UNL     1     -22.336 -10.537  -0.771  1.00  0.00     0.183 C 
HETATM   20  C   UNL     1     -22.719  -9.075  -0.493  1.00  0.00     0.180 C 
HETATM   21  C   UNL     1     -21.985  -8.120  -1.442  1.00  0.00     0.179 C 
HETATM   22  O   UNL     1     -20.568  -8.353  -1.471  1.00  0.00    -0.348 OA
BRANCH  18  23
HETATM   23  O   UNL     1     -20.244 -10.625   0.402  1.00  0.00    -0.388 OA
HETATM   24  H   UNL     1     -19.311 -10.370   0.241  1.00  0.00     0.210 HD
ENDBRANCH  18  23
BRANCH  19  25
HETATM   25  O   UNL     1     -22.788 -11.384   0.310  1.00  0.00    -0.390 OA
HETATM   26  H   UNL     1     -22.287 -11.127   1.110  1.00  0.00     0.210 HD
ENDBRANCH  19  25
BRANCH  20  27
HETATM   27  O   UNL     1     -22.448  -8.774   0.885  1.00  0.00    -0.390 OA
HETATM   28  H   UNL     1     -22.608  -7.816   1.005  1.00  0.00     0.210 HD
ENDBRANCH  20  27
BRANCH  21  29
HETATM   29  C   UNL     1     -22.157  -6.655  -1.017  1.00  0.00     0.198 C 
BRANCH  29  30
HETATM   30  O   UNL     1     -22.630  -5.892  -2.132  1.00  0.00    -0.398 OA
HETATM   31  H   UNL     1     -21.922  -5.970  -2.800  1.00  0.00     0.209 HD
ENDBRANCH  29  30
ENDBRANCH  21  29
ENDBRANCH   1  17
TORSDOF 12
ENDMDL
MODEL 9
REMARK VINA RESULT:      -4.6     17.937     19.778
REMARK  12 active torsions:
REMARK  status: ('A' for Active; 'I' for Inactive)
REMARK    1  A    between atoms: C_1  and  C_2 
REMARK    2  A    between atoms: C_1  and  O_23 
REMARK    3  A    between atoms: C_3  and  O_22 
REMARK    4  A    between atoms: C_4  and  O_21 
REMARK    5  A    between atoms: C_5  and  O_20 
REMARK    6  A    between atoms: C_6  and  O_8 
REMARK    7  A    between atoms: O_8  and  C_9 
REMARK    8  A    between atoms: C_10  and  O_19 
REMARK    9  A    between atoms: C_11  and  O_18 
REMARK   10  A    between atoms: C_12  and  O_17 
REMARK   11  A    between atoms: C_13  and  C_15 
REMARK   12  A    between atoms: C_15  and  O_16 
ROOT
HETATM    1  O   UNL     1     -18.056   8.894   3.370  1.00  0.00    -0.326 OA
ENDROOT
BRANCH   1   2
HETATM    2  C   UNL     1     -19.263   9.490   3.890  1.00  0.00     0.294 C 
HETATM    3  C   UNL     1     -18.923  10.147   5.245  1.00  0.00     0.204 C 
HETATM    4  C   UNL     1     -20.156  10.884   5.775  1.00  0.00     0.183 C 
HETATM    5  C   UNL     1     -21.364   9.922   5.879  1.00  0.00     0.180 C 
HETATM    6  C   UNL     1     -21.543   9.088   4.594  1.00  0.00     0.179 C 
HETATM    7  O   UNL     1     -20.299   8.529   4.103  1.00  0.00    -0.348 OA
BRANCH   3   8
HETATM    8  O   UNL     1     -18.561   9.138   6.224  1.00  0.00    -0.388 OA
HETATM    9  H   UNL     1     -19.222   8.424   6.125  1.00  0.00     0.210 HD
ENDBRANCH   3   8
BRANCH   4  10
HETATM   10  O   UNL     1     -19.856  11.462   7.057  1.00  0.00    -0.390 OA
HETATM   11  H   UNL     1     -19.498  12.350   6.863  1.00  0.00     0.210 HD
ENDBRANCH   4  10
BRANCH   5  12
HETATM   12  O   UNL     1     -21.172   9.028   6.992  1.00  0.00    -0.390 OA
HETATM   13  H   UNL     1     -22.000   8.514   7.081  1.00  0.00     0.210 HD
ENDBRANCH   5  12
BRANCH   6  14
HETATM   14  C   UNL     1     -22.301   9.847   3.495  1.00  0.00     0.198 C 
BRANCH  14  15
HETATM   15  O   UNL     1     -22.356   9.104   2.281  1.00  0.00    -0.398 OA
HETATM   16  H   UNL     1     -22.171   9.720   1.549  1.00  0.00     0.209 HD
ENDBRANCH  14  15
ENDBRANCH   6  14
ENDBRANCH   1   2
BRANCH   1  17
HETATM   17  C   UNL     1     -16.935   9.787   3.366  1.00  0.00     0.294 C 
HETATM   18  C   UNL     1     -16.075   9.581   2.093  1.00  0.00     0.204 C 
HETATM   19  C   UNL     1     -15.200   8.320   2.171  1.00  0.00     0.183 C 
HETATM   20  C   UNL     1     -14.450   8.211   3.507  1.00  0.00     0.180 C 
HETATM   21  C   UNL     1     -15.385   8.486   4.691  1.00  0.00     0.179 C 
HETATM   22  O   UNL     1     -16.122   9.710   4.538  1.00  0.00    -0.348 OA
BRANCH  18  23
HETATM   23  O   UNL     1     -15.190  10.707   1.910  1.00  0.00    -0.388 OA
HETATM   24  H   UNL     1     -15.668  11.291   1.285  1.00  0.00     0.210 HD
ENDBRANCH  18  23
BRANCH  19  25
HETATM   25  O   UNL     1     -14.259   8.363   1.074  1.00  0.00    -0.390 OA
HETATM   26  H   UNL     1     -13.947   7.448   0.923  1.00  0.00     0.210 HD
ENDBRANCH  19  25
BRANCH  20  27
HETATM   27  O   UNL     1     -13.329   9.108   3.491  1.00  0.00    -0.390 OA
HETATM   28  H   UNL     1     -12.907   9.054   4.372  1.00  0.00     0.210 HD
ENDBRANCH  20  27
BRANCH  21  29
HETATM   29  C   UNL     1     -14.608   8.631   6.006  1.00  0.00     0.198 C 
BRANCH  29  30
HETATM   30  O   UNL     1     -15.530   8.663   7.101  1.00  0.00    -0.398 OA
HETATM   31  H   UNL     1     -16.287   8.125   6.798  1.00  0.00     0.209 HD
ENDBRANCH  29  30
ENDBRANCH  21  29
ENDBRANCH   1  17
TORSDOF 12
ENDMDL
