MODEL 1
REMARK VINA RESULT:      -4.0      0.000      0.000
REMARK  4 active torsions:
REMARK  status: ('A' for Active; 'I' for Inactive)
REMARK    1  A    between atoms: C_5  and  C_8 
REMARK    2  A    between atoms: N_9  and  N_11 
REMARK    3  A    between atoms: N_11  and  C_13 
REMARK    4  A    between atoms: O_20  and  S_21 
ROOT
HETATM    1  S   UNL     2     -30.218 -14.472 -20.389  1.00  0.00     0.251 S 
HETATM    2  O   UNL     2     -29.042 -13.891 -21.043  1.00  0.00    -0.572 OA
HETATM    3  O   UNL     2     -30.653 -13.751 -19.202  1.00  0.00    -0.572 OA
HETATM    4  O   UNL     2     -30.191 -15.922 -20.274  1.00  0.00    -0.572 OA
ENDROOT
BRANCH   1   5
HETATM    5  O   UNL     2     -31.402 -14.178 -21.471  1.00  0.00    -0.262 OA
HETATM    6  C   UNL     2     -31.759 -15.234 -22.330  1.00  0.00     0.228 C 
ENDBRANCH   1   5
TORSDOF 4
ENDMDL
MODEL 2
REMARK VINA RESULT:      -4.0      1.876      2.737
REMARK  4 active torsions:
REMARK  status: ('A' for Active; 'I' for Inactive)
REMARK    1  A    between atoms: C_5  and  C_8 
REMARK    2  A    between atoms: N_9  and  N_11 
REMARK    3  A    between atoms: N_11  and  C_13 
REMARK    4  A    between atoms: O_20  and  S_21 
ROOT
HETATM    1  S   UNL     2     -30.255 -14.525 -20.746  1.00  0.00     0.251 S 
HETATM    2  O   UNL     2     -30.124 -15.937 -20.375  1.00  0.00    -0.572 OA
HETATM    3  O   UNL     2     -31.438 -14.229 -21.542  1.00  0.00    -0.572 OA
HETATM    4  O   UNL     2     -29.020 -13.900 -21.193  1.00  0.00    -0.572 OA
ENDROOT
BRANCH   1   5
HETATM    5  O   UNL     2     -30.568 -13.813 -19.313  1.00  0.00    -0.262 OA
HETATM    6  C   UNL     2     -30.056 -14.440 -18.162  1.00  0.00     0.228 C 
ENDBRANCH   1   5
TORSDOF 4
ENDMDL
MODEL 3
REMARK VINA RESULT:      -3.9      9.333     10.078
REMARK  4 active torsions:
REMARK  status: ('A' for Active; 'I' for Inactive)
REMARK    1  A    between atoms: C_5  and  C_8 
REMARK    2  A    between atoms: N_9  and  N_11 
REMARK    3  A    between atoms: N_11  and  C_13 
REMARK    4  A    between atoms: O_20  and  S_21 
ROOT
HETATM    1  S   UNL     2     -28.171  -6.657 -15.833  1.00  0.00     0.251 S 
HETATM    2  O   UNL     2     -28.783  -5.523 -15.135  1.00  0.00    -0.572 OA
HETATM    3  O   UNL     2     -28.897  -7.083 -17.021  1.00  0.00    -0.572 OA
HETATM    4  O   UNL     2     -27.706  -7.724 -14.960  1.00  0.00    -0.572 OA
ENDROOT
BRANCH   1   5
HETATM    5  O   UNL     2     -26.802  -6.006 -16.432  1.00  0.00    -0.262 OA
HETATM    6  C   UNL     2     -25.590  -6.629 -16.081  1.00  0.00     0.228 C 
ENDBRANCH   1   5
TORSDOF 4
ENDMDL
MODEL 4
REMARK VINA RESULT:      -3.8     15.425     16.070
REMARK  4 active torsions:
REMARK  status: ('A' for Active; 'I' for Inactive)
REMARK    1  A    between atoms: C_5  and  C_8 
REMARK    2  A    between atoms: N_9  and  N_11 
REMARK    3  A    between atoms: N_11  and  C_13 
REMARK    4  A    between atoms: O_20  and  S_21 
ROOT
HETATM    1  S   UNL     2     -24.061  -3.285 -12.109  1.00  0.00     0.251 S 
HETATM    2  O   UNL     2     -23.747  -4.717 -12.133  1.00  0.00    -0.572 OA
HETATM    3  O   UNL     2     -24.875  -2.838 -13.231  1.00  0.00    -0.572 OA
HETATM    4  O   UNL     2     -22.940  -2.426 -11.760  1.00  0.00    -0.572 OA
ENDROOT
BRANCH   1   5
HETATM    5  O   UNL     2     -25.068  -3.167 -10.833  1.00  0.00    -0.262 OA
HETATM    6  C   UNL     2     -24.511  -3.373  -9.557  1.00  0.00     0.228 C 
ENDBRANCH   1   5
TORSDOF 4
ENDMDL
MODEL 5
REMARK VINA RESULT:      -3.8      8.760      9.525
REMARK  4 active torsions:
REMARK  status: ('A' for Active; 'I' for Inactive)
REMARK    1  A    between atoms: C_5  and  C_8 
REMARK    2  A    between atoms: N_9  and  N_11 
REMARK    3  A    between atoms: N_11  and  C_13 
REMARK    4  A    between atoms: O_20  and  S_21 
ROOT
HETATM    1  S   UNL     2     -28.158  -6.633 -15.836  1.00  0.00     0.251 S 
HETATM    2  O   UNL     2     -29.066  -5.697 -15.168  1.00  0.00    -0.572 OA
HETATM    3  O   UNL     2     -27.683  -7.710 -14.981  1.00  0.00    -0.572 OA
HETATM    4  O   UNL     2     -27.152  -6.002 -16.676  1.00  0.00    -0.572 OA
ENDROOT
BRANCH   1   5
HETATM    5  O   UNL     2     -29.145  -7.387 -16.892  1.00  0.00    -0.262 OA
HETATM    6  C   UNL     2     -30.304  -6.696 -17.289  1.00  0.00     0.228 C 
ENDBRANCH   1   5
TORSDOF 4
ENDMDL
MODEL 6
REMARK VINA RESULT:      -3.7     15.526     16.116
REMARK  4 active torsions:
REMARK  status: ('A' for Active; 'I' for Inactive)
REMARK    1  A    between atoms: C_5  and  C_8 
REMARK    2  A    between atoms: N_9  and  N_11 
REMARK    3  A    between atoms: N_11  and  C_13 
REMARK    4  A    between atoms: O_20  and  S_21 
ROOT
HETATM    1  S   UNL     2     -24.261  -3.345 -11.987  1.00  0.00     0.251 S 
HETATM    2  O   UNL     2     -23.658  -4.676 -12.100  1.00  0.00    -0.572 OA
HETATM    3  O   UNL     2     -24.969  -3.120 -10.735  1.00  0.00    -0.572 OA
HETATM    4  O   UNL     2     -24.939  -2.884 -13.188  1.00  0.00    -0.572 OA
ENDROOT
BRANCH   1   5
HETATM    5  O   UNL     2     -22.954  -2.377 -11.868  1.00  0.00    -0.262 OA
HETATM    6  C   UNL     2     -21.732  -2.990 -11.534  1.00  0.00     0.228 C 
ENDBRANCH   1   5
TORSDOF 4
ENDMDL
MODEL 7
REMARK VINA RESULT:      -3.7     15.693     16.561
REMARK  4 active torsions:
REMARK  status: ('A' for Active; 'I' for Inactive)
REMARK    1  A    between atoms: C_5  and  C_8 
REMARK    2  A    between atoms: N_9  and  N_11 
REMARK    3  A    between atoms: N_11  and  C_13 
REMARK    4  A    between atoms: O_20  and  S_21 
ROOT
HETATM    1  S   UNL     2     -35.212  -1.225 -13.001  1.00  0.00     0.251 S 
HETATM    2  O   UNL     2     -36.673  -1.115 -13.024  1.00  0.00    -0.572 OA
HETATM    3  O   UNL     2     -34.709  -2.531 -13.404  1.00  0.00    -0.572 OA
HETATM    4  O   UNL     2     -34.579  -0.639 -11.829  1.00  0.00    -0.572 OA
ENDROOT
BRANCH   1   5
HETATM    5  O   UNL     2     -34.766  -0.248 -14.228  1.00  0.00    -0.262 OA
HETATM    6  C   UNL     2     -34.773   1.137 -13.977  1.00  0.00     0.228 C 
ENDBRANCH   1   5
TORSDOF 4
ENDMDL
MODEL 8
REMARK VINA RESULT:      -3.6     15.222     16.066
REMARK  4 active torsions:
REMARK  status: ('A' for Active; 'I' for Inactive)
REMARK    1  A    between atoms: C_5  and  C_8 
REMARK    2  A    between atoms: N_9  and  N_11 
REMARK    3  A    between atoms: N_11  and  C_13 
REMARK    4  A    between atoms: O_20  and  S_21 
ROOT
HETATM    1  S   UNL     2     -35.276  -0.898 -13.181  1.00  0.00     0.251 S 
HETATM    2  O   UNL     2     -34.768  -0.077 -14.284  1.00  0.00    -0.572 OA
HETATM    3  O   UNL     2     -36.726  -1.026 -13.157  1.00  0.00    -0.572 OA
HETATM    4  O   UNL     2     -34.642  -0.646 -11.897  1.00  0.00    -0.572 OA
ENDROOT
BRANCH   1   5
HETATM    5  O   UNL     2     -34.766  -2.392 -13.592  1.00  0.00    -0.262 OA
HETATM    6  C   UNL     2     -34.291  -3.213 -12.553  1.00  0.00     0.228 C 
ENDBRANCH   1   5
TORSDOF 4
ENDMDL
MODEL 9
REMARK VINA RESULT:      -3.6     15.184     15.898
REMARK  4 active torsions:
REMARK  status: ('A' for Active; 'I' for Inactive)
REMARK    1  A    between atoms: C_5  and  C_8 
REMARK    2  A    between atoms: N_9  and  N_11 
REMARK    3  A    between atoms: N_11  and  C_13 
REMARK    4  A    between atoms: O_20  and  S_21 
ROOT
HETATM    1  S   UNL     2     -24.002  -3.317 -12.177  1.00  0.00     0.251 S 
HETATM    2  O   UNL     2     -22.978  -2.269 -12.199  1.00  0.00    -0.572 OA
HETATM    3  O   UNL     2     -24.519  -3.668 -13.492  1.00  0.00    -0.572 OA
HETATM    4  O   UNL     2     -24.997  -3.168 -11.127  1.00  0.00    -0.572 OA
ENDROOT
BRANCH   1   5
HETATM    5  O   UNL     2     -23.149  -4.634 -11.736  1.00  0.00    -0.262 OA
HETATM    6  C   UNL     2     -21.820  -4.426 -11.321  1.00  0.00     0.228 C 
ENDBRANCH   1   5
TORSDOF 4
ENDMDL
