MODEL 1
REMARK VINA RESULT:      -6.5      0.000      0.000
REMARK  14 active torsions:
REMARK  status: ('A' for Active; 'I' for Inactive)
REMARK    1  A    between atoms: C_2  and  C_3 
REMARK    2  A    between atoms: C_3  and  C_4 
REMARK    3  A    between atoms: C_4  and  C_5 
REMARK    4  A    between atoms: C_5  and  C_6 
REMARK    5  A    between atoms: C_6  and  C_7 
REMARK    6  A    between atoms: C_7  and  C_8 
REMARK    7  A    between atoms: C_8  and  C_9 
REMARK    8  A    between atoms: C_9  and  C_10 
REMARK    9  A    between atoms: C_9  and  C_16 
REMARK   10  A    between atoms: C_10  and  C_11 
REMARK   11  A    between atoms: C_11  and  C_12 
REMARK   12  A    between atoms: C_12  and  C_13 
REMARK   13  A    between atoms: C_13  and  C_14 
REMARK   14  A    between atoms: C_16  and  O_17 
ROOT
HETATM    1  C   UNL     1     -37.177  -0.507 -12.096  1.00  0.00     0.009 C 
ENDROOT
BRANCH   1   2
HETATM    2  C   UNL     1     -35.735   0.066 -12.025  1.00  0.00     0.007 C 
BRANCH   2   3
HETATM    3  C   UNL     1     -34.654  -0.958 -12.366  1.00  0.00     0.000 C 
BRANCH   3   4
HETATM    4  C   UNL     1     -34.746  -2.251 -11.551  1.00  0.00     0.000 C 
BRANCH   4   5
HETATM    5  C   UNL     1     -33.327  -2.701 -11.191  1.00  0.00     0.000 C 
BRANCH   5   6
HETATM    6  C   UNL     1     -33.125  -4.202 -11.363  1.00  0.00     0.000 C 
BRANCH   6   7
HETATM    7  C   UNL     1     -34.234  -4.982 -10.653  1.00  0.00    -0.000 C 
BRANCH   7   8
HETATM    8  C   UNL     1     -33.915  -6.471 -10.627  1.00  0.00    -0.005 C 
HETATM    9  C   UNL     1     -34.942  -7.248  -9.818  1.00  0.00     0.005 C 
ENDBRANCH   7   8
ENDBRANCH   6   7
ENDBRANCH   5   6
ENDBRANCH   4   5
ENDBRANCH   3   4
ENDBRANCH   2   3
ENDBRANCH   1   2
BRANCH   1  10
HETATM   10  C   UNL     1     -38.056  -0.107 -10.885  1.00  0.00     0.007 C 
BRANCH  10  11
HETATM   11  C   UNL     1     -37.308   0.658  -9.772  1.00  0.00     0.000 C 
BRANCH  11  12
HETATM   12  C   UNL     1     -37.077  -0.140  -8.481  1.00  0.00     0.000 C 
BRANCH  12  13
HETATM   13  C   UNL     1     -36.525   0.742  -7.360  1.00  0.00    -0.000 C 
BRANCH  13  14
HETATM   14  C   UNL     1     -37.546   0.993  -6.253  1.00  0.00    -0.005 C 
HETATM   15  C   UNL     1     -37.010   0.465  -4.929  1.00  0.00     0.005 C 
ENDBRANCH  13  14
ENDBRANCH  12  13
ENDBRANCH  11  12
ENDBRANCH  10  11
ENDBRANCH   1  10
BRANCH   1  16
HETATM   16  C   UNL     1     -37.824  -0.077 -13.424  1.00  0.00     0.168 C 
BRANCH  16  17
HETATM   17  O   UNL     1     -37.451  -0.936 -14.497  1.00  0.00    -0.400 OA
HETATM   18  H   UNL     1     -37.334  -1.835 -14.144  1.00  0.00     0.209 HD
ENDBRANCH  16  17
ENDBRANCH   1  16
TORSDOF 14
ENDMDL
MODEL 2
REMARK VINA RESULT:      -6.3      1.518      6.576
REMARK  14 active torsions:
REMARK  status: ('A' for Active; 'I' for Inactive)
REMARK    1  A    between atoms: C_2  and  C_3 
REMARK    2  A    between atoms: C_3  and  C_4 
REMARK    3  A    between atoms: C_4  and  C_5 
REMARK    4  A    between atoms: C_5  and  C_6 
REMARK    5  A    between atoms: C_6  and  C_7 
REMARK    6  A    between atoms: C_7  and  C_8 
REMARK    7  A    between atoms: C_8  and  C_9 
REMARK    8  A    between atoms: C_9  and  C_10 
REMARK    9  A    between atoms: C_9  and  C_16 
REMARK   10  A    between atoms: C_10  and  C_11 
REMARK   11  A    between atoms: C_11  and  C_12 
REMARK   12  A    between atoms: C_12  and  C_13 
REMARK   13  A    between atoms: C_13  and  C_14 
REMARK   14  A    between atoms: C_16  and  O_17 
ROOT
HETATM    1  C   UNL     1     -34.156  -1.980 -11.389  1.00  0.00     0.009 C 
ENDROOT
BRANCH   1   2
HETATM    2  C   UNL     1     -35.044  -1.880 -10.118  1.00  0.00     0.007 C 
BRANCH   2   3
HETATM    3  C   UNL     1     -36.508  -1.565 -10.419  1.00  0.00     0.000 C 
BRANCH   3   4
HETATM    4  C   UNL     1     -36.910  -0.124 -10.093  1.00  0.00     0.000 C 
BRANCH   4   5
HETATM    5  C   UNL     1     -37.403  -0.072  -8.644  1.00  0.00     0.000 C 
BRANCH   5   6
HETATM    6  C   UNL     1     -36.478   0.729  -7.736  1.00  0.00     0.000 C 
BRANCH   6   7
HETATM    7  C   UNL     1     -37.124   0.952  -6.366  1.00  0.00    -0.000 C 
BRANCH   7   8
HETATM    8  C   UNL     1     -37.808  -0.319  -5.878  1.00  0.00    -0.005 C 
HETATM    9  C   UNL     1     -38.072  -0.271  -4.381  1.00  0.00     0.005 C 
ENDBRANCH   7   8
ENDBRANCH   6   7
ENDBRANCH   5   6
ENDBRANCH   4   5
ENDBRANCH   3   4
ENDBRANCH   2   3
ENDBRANCH   1   2
BRANCH   1  10
HETATM   10  C   UNL     1     -33.148  -3.155 -11.342  1.00  0.00     0.007 C 
BRANCH  10  11
HETATM   11  C   UNL     1     -33.463  -4.311 -12.317  1.00  0.00     0.000 C 
BRANCH  11  12
HETATM   12  C   UNL     1     -34.467  -5.346 -11.790  1.00  0.00     0.000 C 
BRANCH  12  13
HETATM   13  C   UNL     1     -34.198  -5.705 -10.328  1.00  0.00    -0.000 C 
BRANCH  13  14
HETATM   14  C   UNL     1     -34.991  -6.924  -9.867  1.00  0.00    -0.005 C 
HETATM   15  C   UNL     1     -34.176  -8.189 -10.102  1.00  0.00     0.005 C 
ENDBRANCH  13  14
ENDBRANCH  12  13
ENDBRANCH  11  12
ENDBRANCH  10  11
ENDBRANCH   1  10
BRANCH   1  16
HETATM   16  C   UNL     1     -35.062  -2.067 -12.629  1.00  0.00     0.168 C 
BRANCH  16  17
HETATM   17  O   UNL     1     -34.806  -1.008 -13.547  1.00  0.00    -0.400 OA
HETATM   18  H   UNL     1     -34.033  -1.250 -14.086  1.00  0.00     0.209 HD
ENDBRANCH  16  17
ENDBRANCH   1  16
TORSDOF 14
ENDMDL
MODEL 3
REMARK VINA RESULT:      -6.3     13.421     16.228
REMARK  14 active torsions:
REMARK  status: ('A' for Active; 'I' for Inactive)
REMARK    1  A    between atoms: C_2  and  C_3 
REMARK    2  A    between atoms: C_3  and  C_4 
REMARK    3  A    between atoms: C_4  and  C_5 
REMARK    4  A    between atoms: C_5  and  C_6 
REMARK    5  A    between atoms: C_6  and  C_7 
REMARK    6  A    between atoms: C_7  and  C_8 
REMARK    7  A    between atoms: C_8  and  C_9 
REMARK    8  A    between atoms: C_9  and  C_10 
REMARK    9  A    between atoms: C_9  and  C_16 
REMARK   10  A    between atoms: C_10  and  C_11 
REMARK   11  A    between atoms: C_11  and  C_12 
REMARK   12  A    between atoms: C_12  and  C_13 
REMARK   13  A    between atoms: C_13  and  C_14 
REMARK   14  A    between atoms: C_16  and  O_17 
ROOT
HETATM    1  C   UNL     1     -21.268  -3.959  -7.272  1.00  0.00     0.009 C 
ENDROOT
BRANCH   1   2
HETATM    2  C   UNL     1     -20.898  -4.742  -5.982  1.00  0.00     0.007 C 
BRANCH   2   3
HETATM    3  C   UNL     1     -21.087  -6.252  -6.108  1.00  0.00     0.000 C 
BRANCH   3   4
HETATM    4  C   UNL     1     -21.483  -6.938  -4.797  1.00  0.00     0.000 C 
BRANCH   4   5
HETATM    5  C   UNL     1     -21.111  -6.014  -3.634  1.00  0.00     0.000 C 
BRANCH   5   6
HETATM    6  C   UNL     1     -22.045  -6.166  -2.440  1.00  0.00     0.000 C 
BRANCH   6   7
HETATM    7  C   UNL     1     -21.682  -7.410  -1.624  1.00  0.00    -0.000 C 
BRANCH   7   8
HETATM    8  C   UNL     1     -22.529  -7.494  -0.360  1.00  0.00    -0.005 C 
HETATM    9  C   UNL     1     -21.786  -8.200   0.763  1.00  0.00     0.005 C 
ENDBRANCH   7   8
ENDBRANCH   6   7
ENDBRANCH   5   6
ENDBRANCH   4   5
ENDBRANCH   3   4
ENDBRANCH   2   3
ENDBRANCH   1   2
BRANCH   1  10
HETATM   10  C   UNL     1     -20.185  -4.049  -8.376  1.00  0.00     0.007 C 
BRANCH  10  11
HETATM   11  C   UNL     1     -20.707  -4.524  -9.750  1.00  0.00     0.000 C 
BRANCH  11  12
HETATM   12  C   UNL     1     -20.395  -3.582 -10.921  1.00  0.00     0.000 C 
BRANCH  12  13
HETATM   13  C   UNL     1     -21.669  -3.008 -11.542  1.00  0.00    -0.000 C 
BRANCH  13  14
HETATM   14  C   UNL     1     -22.827  -4.002 -11.532  1.00  0.00    -0.005 C 
HETATM   15  C   UNL     1     -24.095  -3.311 -11.050  1.00  0.00     0.005 C 
ENDBRANCH  13  14
ENDBRANCH  12  13
ENDBRANCH  11  12
ENDBRANCH  10  11
ENDBRANCH   1  10
BRANCH   1  16
HETATM   16  C   UNL     1     -22.633  -4.450  -7.783  1.00  0.00     0.168 C 
BRANCH  16  17
HETATM   17  O   UNL     1     -23.641  -4.350  -6.782  1.00  0.00    -0.400 OA
HETATM   18  H   UNL     1     -24.353  -3.780  -7.120  1.00  0.00     0.209 HD
ENDBRANCH  16  17
ENDBRANCH   1  16
TORSDOF 14
ENDMDL
MODEL 4
REMARK VINA RESULT:      -6.3      2.375      4.479
REMARK  14 active torsions:
REMARK  status: ('A' for Active; 'I' for Inactive)
REMARK    1  A    between atoms: C_2  and  C_3 
REMARK    2  A    between atoms: C_3  and  C_4 
REMARK    3  A    between atoms: C_4  and  C_5 
REMARK    4  A    between atoms: C_5  and  C_6 
REMARK    5  A    between atoms: C_6  and  C_7 
REMARK    6  A    between atoms: C_7  and  C_8 
REMARK    7  A    between atoms: C_8  and  C_9 
REMARK    8  A    between atoms: C_9  and  C_10 
REMARK    9  A    between atoms: C_9  and  C_16 
REMARK   10  A    between atoms: C_10  and  C_11 
REMARK   11  A    between atoms: C_11  and  C_12 
REMARK   12  A    between atoms: C_12  and  C_13 
REMARK   13  A    between atoms: C_13  and  C_14 
REMARK   14  A    between atoms: C_16  and  O_17 
ROOT
HETATM    1  C   UNL     1     -36.767   0.004 -10.575  1.00  0.00     0.009 C 
ENDROOT
BRANCH   1   2
HETATM    2  C   UNL     1     -36.078  -1.186  -9.853  1.00  0.00     0.007 C 
BRANCH   2   3
HETATM    3  C   UNL     1     -35.282  -2.091 -10.791  1.00  0.00     0.000 C 
BRANCH   3   4
HETATM    4  C   UNL     1     -33.793  -2.183 -10.448  1.00  0.00     0.000 C 
BRANCH   4   5
HETATM    5  C   UNL     1     -33.135  -3.184 -11.400  1.00  0.00     0.000 C 
BRANCH   5   6
HETATM    6  C   UNL     1     -34.050  -4.352 -11.751  1.00  0.00     0.000 C 
BRANCH   6   7
HETATM    7  C   UNL     1     -33.576  -5.635 -11.065  1.00  0.00    -0.000 C 
BRANCH   7   8
HETATM    8  C   UNL     1     -34.640  -6.162 -10.110  1.00  0.00    -0.005 C 
HETATM    9  C   UNL     1     -34.724  -7.680 -10.151  1.00  0.00     0.005 C 
ENDBRANCH   7   8
ENDBRANCH   6   7
ENDBRANCH   5   6
ENDBRANCH   4   5
ENDBRANCH   3   4
ENDBRANCH   2   3
ENDBRANCH   1   2
BRANCH   1  10
HETATM   10  C   UNL     1     -38.004  -0.416 -11.408  1.00  0.00     0.007 C 
BRANCH  10  11
HETATM   11  C   UNL     1     -37.960   0.019 -12.889  1.00  0.00     0.000 C 
BRANCH  11  12
HETATM   12  C   UNL     1     -36.722  -0.453 -13.665  1.00  0.00     0.000 C 
BRANCH  12  13
HETATM   13  C   UNL     1     -36.579   0.274 -15.002  1.00  0.00    -0.000 C 
BRANCH  13  14
HETATM   14  C   UNL     1     -35.345   1.170 -15.055  1.00  0.00    -0.005 C 
HETATM   15  C   UNL     1     -34.543   1.019 -13.769  1.00  0.00     0.005 C 
ENDBRANCH  13  14
ENDBRANCH  12  13
ENDBRANCH  11  12
ENDBRANCH  10  11
ENDBRANCH   1  10
BRANCH   1  16
HETATM   16  C   UNL     1     -37.130   1.080  -9.537  1.00  0.00     0.168 C 
BRANCH  16  17
HETATM   17  O   UNL     1     -36.066   1.308  -8.617  1.00  0.00    -0.400 OA
HETATM   18  H   UNL     1     -35.463   0.546  -8.652  1.00  0.00     0.209 HD
ENDBRANCH  16  17
ENDBRANCH   1  16
TORSDOF 14
ENDMDL
MODEL 5
REMARK VINA RESULT:      -6.1     12.992     15.846
REMARK  14 active torsions:
REMARK  status: ('A' for Active; 'I' for Inactive)
REMARK    1  A    between atoms: C_2  and  C_3 
REMARK    2  A    between atoms: C_3  and  C_4 
REMARK    3  A    between atoms: C_4  and  C_5 
REMARK    4  A    between atoms: C_5  and  C_6 
REMARK    5  A    between atoms: C_6  and  C_7 
REMARK    6  A    between atoms: C_7  and  C_8 
REMARK    7  A    between atoms: C_8  and  C_9 
REMARK    8  A    between atoms: C_9  and  C_10 
REMARK    9  A    between atoms: C_9  and  C_16 
REMARK   10  A    between atoms: C_10  and  C_11 
REMARK   11  A    between atoms: C_11  and  C_12 
REMARK   12  A    between atoms: C_12  and  C_13 
REMARK   13  A    between atoms: C_13  and  C_14 
REMARK   14  A    between atoms: C_16  and  O_17 
ROOT
HETATM    1  C   UNL     1     -21.274  -4.104  -8.708  1.00  0.00     0.009 C 
ENDROOT
BRANCH   1   2
HETATM    2  C   UNL     1     -20.522  -4.267  -7.360  1.00  0.00     0.007 C 
BRANCH   2   3
HETATM    3  C   UNL     1     -19.763  -5.588  -7.239  1.00  0.00     0.000 C 
BRANCH   3   4
HETATM    4  C   UNL     1     -20.088  -6.374  -5.966  1.00  0.00     0.000 C 
BRANCH   4   5
HETATM    5  C   UNL     1     -21.261  -5.690  -5.258  1.00  0.00     0.000 C 
BRANCH   5   6
HETATM    6  C   UNL     1     -21.907  -6.577  -4.200  1.00  0.00     0.000 C 
BRANCH   6   7
HETATM    7  C   UNL     1     -21.488  -6.138  -2.795  1.00  0.00    -0.000 C 
BRANCH   7   8
HETATM    8  C   UNL     1     -21.457  -7.327  -1.844  1.00  0.00    -0.005 C 
HETATM    9  C   UNL     1     -22.382  -7.116  -0.655  1.00  0.00     0.005 C 
ENDBRANCH   7   8
ENDBRANCH   6   7
ENDBRANCH   5   6
ENDBRANCH   4   5
ENDBRANCH   3   4
ENDBRANCH   2   3
ENDBRANCH   1   2
BRANCH   1  10
HETATM   10  C   UNL     1     -20.460  -4.601  -9.929  1.00  0.00     0.007 C 
BRANCH  10  11
HETATM   11  C   UNL     1     -20.419  -3.617 -11.118  1.00  0.00     0.000 C 
BRANCH  11  12
HETATM   12  C   UNL     1     -21.726  -2.854 -11.373  1.00  0.00     0.000 C 
BRANCH  12  13
HETATM   13  C   UNL     1     -22.343  -3.219 -12.723  1.00  0.00    -0.000 C 
BRANCH  13  14
HETATM   14  C   UNL     1     -23.853  -3.001 -12.758  1.00  0.00    -0.005 C 
HETATM   15  C   UNL     1     -24.442  -3.252 -11.377  1.00  0.00     0.005 C 
ENDBRANCH  13  14
ENDBRANCH  12  13
ENDBRANCH  11  12
ENDBRANCH  10  11
ENDBRANCH   1  10
BRANCH   1  16
HETATM   16  C   UNL     1     -22.635  -4.814  -8.615  1.00  0.00     0.168 C 
BRANCH  16  17
HETATM   17  O   UNL     1     -23.585  -4.046  -7.882  1.00  0.00    -0.400 OA
HETATM   18  H   UNL     1     -23.316  -4.038  -6.947  1.00  0.00     0.209 HD
ENDBRANCH  16  17
ENDBRANCH   1  16
TORSDOF 14
ENDMDL
MODEL 6
REMARK VINA RESULT:      -6.1      2.609      6.390
REMARK  14 active torsions:
REMARK  status: ('A' for Active; 'I' for Inactive)
REMARK    1  A    between atoms: C_2  and  C_3 
REMARK    2  A    between atoms: C_3  and  C_4 
REMARK    3  A    between atoms: C_4  and  C_5 
REMARK    4  A    between atoms: C_5  and  C_6 
REMARK    5  A    between atoms: C_6  and  C_7 
REMARK    6  A    between atoms: C_7  and  C_8 
REMARK    7  A    between atoms: C_8  and  C_9 
REMARK    8  A    between atoms: C_9  and  C_10 
REMARK    9  A    between atoms: C_9  and  C_16 
REMARK   10  A    between atoms: C_10  and  C_11 
REMARK   11  A    between atoms: C_11  and  C_12 
REMARK   12  A    between atoms: C_12  and  C_13 
REMARK   13  A    between atoms: C_13  and  C_14 
REMARK   14  A    between atoms: C_16  and  O_17 
ROOT
HETATM    1  C   UNL     1     -35.228  -2.003 -11.487  1.00  0.00     0.009 C 
ENDROOT
BRANCH   1   2
HETATM    2  C   UNL     1     -35.019  -1.297 -12.855  1.00  0.00     0.007 C 
BRANCH   2   3
HETATM    3  C   UNL     1     -35.389   0.185 -12.840  1.00  0.00     0.000 C 
BRANCH   3   4
HETATM    4  C   UNL     1     -34.664   1.014 -13.904  1.00  0.00     0.000 C 
BRANCH   4   5
HETATM    5  C   UNL     1     -35.569   1.123 -15.135  1.00  0.00     0.000 C 
BRANCH   5   6
HETATM    6  C   UNL     1     -36.873   0.350 -14.977  1.00  0.00     0.000 C 
BRANCH   6   7
HETATM    7  C   UNL     1     -37.028  -0.682 -16.096  1.00  0.00    -0.000 C 
BRANCH   7   8
HETATM    8  C   UNL     1     -35.706  -0.895 -16.823  1.00  0.00    -0.005 C 
HETATM    9  C   UNL     1     -35.096  -2.247 -16.488  1.00  0.00     0.005 C 
ENDBRANCH   7   8
ENDBRANCH   6   7
ENDBRANCH   5   6
ENDBRANCH   4   5
ENDBRANCH   3   4
ENDBRANCH   2   3
ENDBRANCH   1   2
BRANCH   1  10
HETATM   10  C   UNL     1     -33.904  -2.294 -10.737  1.00  0.00     0.007 C 
BRANCH  10  11
HETATM   11  C   UNL     1     -33.421  -3.758 -10.829  1.00  0.00     0.000 C 
BRANCH  11  12
HETATM   12  C   UNL     1     -34.531  -4.813 -10.717  1.00  0.00     0.000 C 
BRANCH  12  13
HETATM   13  C   UNL     1     -33.967  -6.234 -10.737  1.00  0.00    -0.000 C 
BRANCH  13  14
HETATM   14  C   UNL     1     -34.813  -7.213  -9.929  1.00  0.00    -0.005 C 
HETATM   15  C   UNL     1     -34.116  -8.566  -9.864  1.00  0.00     0.005 C 
ENDBRANCH  13  14
ENDBRANCH  12  13
ENDBRANCH  11  12
ENDBRANCH  10  11
ENDBRANCH   1  10
BRANCH   1  16
HETATM   16  C   UNL     1     -36.186  -1.161 -10.628  1.00  0.00     0.168 C 
BRANCH  16  17
HETATM   17  O   UNL     1     -37.550  -1.480 -10.886  1.00  0.00    -0.400 OA
HETATM   18  H   UNL     1     -38.102  -0.745 -10.568  1.00  0.00     0.209 HD
ENDBRANCH  16  17
ENDBRANCH   1  16
TORSDOF 14
ENDMDL
MODEL 7
REMARK VINA RESULT:      -6.0     14.881     17.321
REMARK  14 active torsions:
REMARK  status: ('A' for Active; 'I' for Inactive)
REMARK    1  A    between atoms: C_2  and  C_3 
REMARK    2  A    between atoms: C_3  and  C_4 
REMARK    3  A    between atoms: C_4  and  C_5 
REMARK    4  A    between atoms: C_5  and  C_6 
REMARK    5  A    between atoms: C_6  and  C_7 
REMARK    6  A    between atoms: C_7  and  C_8 
REMARK    7  A    between atoms: C_8  and  C_9 
REMARK    8  A    between atoms: C_9  and  C_10 
REMARK    9  A    between atoms: C_9  and  C_16 
REMARK   10  A    between atoms: C_10  and  C_11 
REMARK   11  A    between atoms: C_11  and  C_12 
REMARK   12  A    between atoms: C_12  and  C_13 
REMARK   13  A    between atoms: C_13  and  C_14 
REMARK   14  A    between atoms: C_16  and  O_17 
ROOT
HETATM    1  C   UNL     1     -21.048  -6.339  -5.622  1.00  0.00     0.009 C 
ENDROOT
BRANCH   1   2
HETATM    2  C   UNL     1     -22.049  -6.529  -4.450  1.00  0.00     0.007 C 
BRANCH   2   3
HETATM    3  C   UNL     1     -21.479  -6.133  -3.090  1.00  0.00     0.000 C 
BRANCH   3   4
HETATM    4  C   UNL     1     -21.448  -7.278  -2.074  1.00  0.00     0.000 C 
BRANCH   4   5
HETATM    5  C   UNL     1     -22.380  -6.923  -0.912  1.00  0.00     0.000 C 
BRANCH   5   6
HETATM    6  C   UNL     1     -22.221  -7.862   0.278  1.00  0.00     0.000 C 
BRANCH   6   7
HETATM    7  C   UNL     1     -23.403  -8.830   0.365  1.00  0.00    -0.000 C 
BRANCH   7   8
HETATM    8  C   UNL     1     -23.145 -10.074  -0.476  1.00  0.00    -0.005 C 
HETATM    9  C   UNL     1     -23.947 -11.265   0.027  1.00  0.00     0.005 C 
ENDBRANCH   7   8
ENDBRANCH   6   7
ENDBRANCH   5   6
ENDBRANCH   4   5
ENDBRANCH   3   4
ENDBRANCH   2   3
ENDBRANCH   1   2
BRANCH   1  10
HETATM   10  C   UNL     1     -20.375  -4.944  -5.635  1.00  0.00     0.007 C 
BRANCH  10  11
HETATM   11  C   UNL     1     -20.478  -4.192  -6.979  1.00  0.00     0.000 C 
BRANCH  11  12
HETATM   12  C   UNL     1     -21.081  -5.008  -8.132  1.00  0.00     0.000 C 
BRANCH  12  13
HETATM   13  C   UNL     1     -22.167  -4.227  -8.873  1.00  0.00    -0.000 C 
BRANCH  13  14
HETATM   14  C   UNL     1     -21.918  -4.156 -10.376  1.00  0.00    -0.005 C 
HETATM   15  C   UNL     1     -20.440  -4.385 -10.665  1.00  0.00     0.005 C 
ENDBRANCH  13  14
ENDBRANCH  12  13
ENDBRANCH  11  12
ENDBRANCH  10  11
ENDBRANCH   1  10
BRANCH   1  16
HETATM   16  C   UNL     1     -20.002  -7.466  -5.578  1.00  0.00     0.168 C 
BRANCH  16  17
HETATM   17  O   UNL     1     -20.610  -8.754  -5.606  1.00  0.00    -0.400 OA
HETATM   18  H   UNL     1     -21.244  -8.809  -4.870  1.00  0.00     0.209 HD
ENDBRANCH  16  17
ENDBRANCH   1  16
TORSDOF 14
ENDMDL
MODEL 8
REMARK VINA RESULT:      -6.0     13.137     15.751
REMARK  14 active torsions:
REMARK  status: ('A' for Active; 'I' for Inactive)
REMARK    1  A    between atoms: C_2  and  C_3 
REMARK    2  A    between atoms: C_3  and  C_4 
REMARK    3  A    between atoms: C_4  and  C_5 
REMARK    4  A    between atoms: C_5  and  C_6 
REMARK    5  A    between atoms: C_6  and  C_7 
REMARK    6  A    between atoms: C_7  and  C_8 
REMARK    7  A    between atoms: C_8  and  C_9 
REMARK    8  A    between atoms: C_9  and  C_10 
REMARK    9  A    between atoms: C_9  and  C_16 
REMARK   10  A    between atoms: C_10  and  C_11 
REMARK   11  A    between atoms: C_11  and  C_12 
REMARK   12  A    between atoms: C_12  and  C_13 
REMARK   13  A    between atoms: C_13  and  C_14 
REMARK   14  A    between atoms: C_16  and  O_17 
ROOT
HETATM    1  C   UNL     1     -21.674  -5.262  -6.963  1.00  0.00     0.009 C 
ENDROOT
BRANCH   1   2
HETATM    2  C   UNL     1     -20.765  -4.003  -6.972  1.00  0.00     0.007 C 
BRANCH   2   3
HETATM    3  C   UNL     1     -19.715  -4.015  -8.081  1.00  0.00     0.000 C 
BRANCH   3   4
HETATM    4  C   UNL     1     -20.155  -4.763  -9.342  1.00  0.00     0.000 C 
BRANCH   4   5
HETATM    5  C   UNL     1     -20.538  -3.733 -10.409  1.00  0.00     0.000 C 
BRANCH   5   6
HETATM    6  C   UNL     1     -21.274  -4.356 -11.590  1.00  0.00     0.000 C 
BRANCH   6   7
HETATM    7  C   UNL     1     -22.063  -3.293 -12.357  1.00  0.00    -0.000 C 
BRANCH   7   8
HETATM    8  C   UNL     1     -23.275  -2.836 -11.555  1.00  0.00    -0.005 C 
HETATM    9  C   UNL     1     -24.136  -4.013 -11.124  1.00  0.00     0.005 C 
ENDBRANCH   7   8
ENDBRANCH   6   7
ENDBRANCH   5   6
ENDBRANCH   4   5
ENDBRANCH   3   4
ENDBRANCH   2   3
ENDBRANCH   1   2
BRANCH   1  10
HETATM   10  C   UNL     1     -21.229  -6.332  -5.935  1.00  0.00     0.007 C 
BRANCH  10  11
HETATM   11  C   UNL     1     -20.992  -5.793  -4.507  1.00  0.00     0.000 C 
BRANCH  11  12
HETATM   12  C   UNL     1     -21.360  -6.767  -3.379  1.00  0.00     0.000 C 
BRANCH  12  13
HETATM   13  C   UNL     1     -22.056  -6.054  -2.219  1.00  0.00    -0.000 C 
BRANCH  13  14
HETATM   14  C   UNL     1     -22.278  -6.967  -1.017  1.00  0.00    -0.005 C 
HETATM   15  C   UNL     1     -21.187  -8.028  -0.966  1.00  0.00     0.005 C 
ENDBRANCH  13  14
ENDBRANCH  12  13
ENDBRANCH  11  12
ENDBRANCH  10  11
ENDBRANCH   1  10
BRANCH   1  16
HETATM   16  C   UNL     1     -23.131  -4.829  -6.726  1.00  0.00     0.168 C 
BRANCH  16  17
HETATM   17  O   UNL     1     -23.645  -4.078  -7.822  1.00  0.00    -0.400 OA
HETATM   18  H   UNL     1     -24.240  -4.652  -8.334  1.00  0.00     0.209 HD
ENDBRANCH  16  17
ENDBRANCH   1  16
TORSDOF 14
ENDMDL
MODEL 9
REMARK VINA RESULT:      -5.9     14.714     17.425
REMARK  14 active torsions:
REMARK  status: ('A' for Active; 'I' for Inactive)
REMARK    1  A    between atoms: C_2  and  C_3 
REMARK    2  A    between atoms: C_3  and  C_4 
REMARK    3  A    between atoms: C_4  and  C_5 
REMARK    4  A    between atoms: C_5  and  C_6 
REMARK    5  A    between atoms: C_6  and  C_7 
REMARK    6  A    between atoms: C_7  and  C_8 
REMARK    7  A    between atoms: C_8  and  C_9 
REMARK    8  A    between atoms: C_9  and  C_10 
REMARK    9  A    between atoms: C_9  and  C_16 
REMARK   10  A    between atoms: C_10  and  C_11 
REMARK   11  A    between atoms: C_11  and  C_12 
REMARK   12  A    between atoms: C_12  and  C_13 
REMARK   13  A    between atoms: C_13  and  C_14 
REMARK   14  A    between atoms: C_16  and  O_17 
ROOT
HETATM    1  C   UNL     1     -21.616  -7.061  -3.807  1.00  0.00     0.009 C 
ENDROOT
BRANCH   1   2
HETATM    2  C   UNL     1     -21.701  -6.378  -5.199  1.00  0.00     0.007 C 
BRANCH   2   3
HETATM    3  C   UNL     1     -20.355  -5.874  -5.716  1.00  0.00     0.000 C 
BRANCH   3   4
HETATM    4  C   UNL     1     -20.435  -4.524  -6.436  1.00  0.00     0.000 C 
BRANCH   4   5
HETATM    5  C   UNL     1     -19.432  -4.531  -7.593  1.00  0.00     0.000 C 
BRANCH   5   6
HETATM    6  C   UNL     1     -20.071  -4.164  -8.927  1.00  0.00     0.000 C 
BRANCH   6   7
HETATM    7  C   UNL     1     -21.594  -4.098  -8.798  1.00  0.00    -0.000 C 
BRANCH   7   8
HETATM    8  C   UNL     1     -22.251  -4.039 -10.171  1.00  0.00    -0.005 C 
HETATM    9  C   UNL     1     -21.323  -3.428 -11.209  1.00  0.00     0.005 C 
ENDBRANCH   7   8
ENDBRANCH   6   7
ENDBRANCH   5   6
ENDBRANCH   4   5
ENDBRANCH   3   4
ENDBRANCH   2   3
ENDBRANCH   1   2
BRANCH   1  10
HETATM   10  C   UNL     1     -20.512  -8.145  -3.722  1.00  0.00     0.007 C 
BRANCH  10  11
HETATM   11  C   UNL     1     -20.248  -8.683  -2.299  1.00  0.00     0.000 C 
BRANCH  11  12
HETATM   12  C   UNL     1     -21.418  -9.454  -1.671  1.00  0.00     0.000 C 
BRANCH  12  13
HETATM   13  C   UNL     1     -21.300  -9.523  -0.148  1.00  0.00    -0.000 C 
BRANCH  13  14
HETATM   14  C   UNL     1     -21.704  -8.218   0.531  1.00  0.00    -0.005 C 
HETATM   15  C   UNL     1     -23.223  -8.102   0.564  1.00  0.00     0.005 C 
ENDBRANCH  13  14
ENDBRANCH  12  13
ENDBRANCH  11  12
ENDBRANCH  10  11
ENDBRANCH   1  10
BRANCH   1  16
HETATM   16  C   UNL     1     -21.426  -5.981  -2.728  1.00  0.00     0.168 C 
BRANCH  16  17
HETATM   17  O   UNL     1     -22.606  -5.793  -1.953  1.00  0.00    -0.400 OA
HETATM   18  H   UNL     1     -23.197  -5.190  -2.438  1.00  0.00     0.209 HD
ENDBRANCH  16  17
ENDBRANCH   1  16
TORSDOF 14
ENDMDL
