MODEL 1
REMARK VINA RESULT:      -4.8      0.000      0.000
REMARK  6 active torsions:
REMARK  status: ('A' for Active; 'I' for Inactive)
REMARK    1  A    between atoms: SD_2  and  CG_3 
REMARK    2  A    between atoms: CG_3  and  CB_4 
REMARK    3  A    between atoms: CB_4  and  CA_5 
REMARK    4  A    between atoms: CA_5  and  C_6 
REMARK    5  A    between atoms: CA_5  and  N_9 
REMARK    6  A    between atoms: C_6  and  OXT_8 
ROOT
ATOM      1  CA  MET A   1     -22.866  -3.584 -12.433  1.00  0.00     0.315 C 
ENDROOT
BRANCH   1   2
ATOM      2  CB  MET A   1     -21.845  -3.084 -11.400  1.00  0.00     0.056 C 
BRANCH   2   3
ATOM      3  CG  MET A   1     -20.700  -4.051 -11.079  1.00  0.00     0.076 C 
BRANCH   3   4
ATOM      4  SD  MET A   1     -20.505  -4.307  -9.284  1.00  0.00    -0.173 SA
ATOM      5  CE  MET A   1     -22.203  -3.950  -8.767  1.00  0.00     0.089 C 
ENDBRANCH   3   4
ENDBRANCH   2   3
ENDBRANCH   1   2
BRANCH   1   6
ATOM      6  C   MET A   1     -24.258  -2.989 -12.160  1.00  0.00     0.173 C 
ATOM      7  O   MET A   1     -24.897  -3.180 -11.136  1.00  0.00    -0.648 OA
BRANCH   6   8
ATOM      8  OXT MET A   1     -24.734  -2.233 -13.178  1.00  0.00    -0.775 OA
ATOM      9  HXT MET A   1     -24.080  -1.592 -13.532  1.00  0.00     0.167 HD
ENDBRANCH   6   8
ENDBRANCH   1   6
BRANCH   1  10
ATOM     10  N   MET A   1     -22.416  -3.191 -13.789  1.00  0.00     0.093 N 
ATOM     11  H1  MET A   1     -21.711  -2.457 -13.686  1.00  0.00     0.314 HD
ATOM     12  H2  MET A   1     -23.191  -2.719 -14.263  1.00  0.00     0.314 HD
ENDBRANCH   1  10
TORSDOF 6
ENDMDL
MODEL 2
REMARK VINA RESULT:      -4.7      1.857      2.176
REMARK  6 active torsions:
REMARK  status: ('A' for Active; 'I' for Inactive)
REMARK    1  A    between atoms: SD_2  and  CG_3 
REMARK    2  A    between atoms: CG_3  and  CB_4 
REMARK    3  A    between atoms: CB_4  and  CA_5 
REMARK    4  A    between atoms: CA_5  and  C_6 
REMARK    5  A    between atoms: CA_5  and  N_9 
REMARK    6  A    between atoms: C_6  and  OXT_8 
ROOT
ATOM      1  CA  MET A   1     -23.780  -2.827 -13.040  1.00  0.00     0.315 C 
ENDROOT
BRANCH   1   2
ATOM      2  CB  MET A   1     -22.584  -2.634 -12.096  1.00  0.00     0.056 C 
BRANCH   2   3
ATOM      3  CG  MET A   1     -21.719  -3.878 -11.860  1.00  0.00     0.076 C 
BRANCH   3   4
ATOM      4  SD  MET A   1     -21.399  -4.161 -10.088  1.00  0.00    -0.173 SA
ATOM      5  CE  MET A   1     -23.034  -3.733  -9.439  1.00  0.00     0.089 C 
ENDBRANCH   3   4
ENDBRANCH   2   3
ENDBRANCH   1   2
BRANCH   1   6
ATOM      6  C   MET A   1     -23.561  -2.073 -14.363  1.00  0.00     0.173 C 
ATOM      7  O   MET A   1     -22.771  -2.419 -15.227  1.00  0.00    -0.648 OA
BRANCH   6   8
ATOM      8  OXT MET A   1     -24.323  -0.959 -14.484  1.00  0.00    -0.775 OA
ATOM      9  HXT MET A   1     -24.217  -0.327 -13.741  1.00  0.00     0.167 HD
ENDBRANCH   6   8
ENDBRANCH   1   6
BRANCH   1  10
ATOM     10  N   MET A   1     -23.950  -4.273 -13.317  1.00  0.00     0.093 N 
ATOM     11  H1  MET A   1     -24.069  -4.753 -12.422  1.00  0.00     0.314 HD
ATOM     12  H2  MET A   1     -23.065  -4.641 -13.675  1.00  0.00     0.314 HD
ENDBRANCH   1  10
TORSDOF 6
ENDMDL
MODEL 3
REMARK VINA RESULT:      -4.4      2.701      3.075
REMARK  6 active torsions:
REMARK  status: ('A' for Active; 'I' for Inactive)
REMARK    1  A    between atoms: SD_2  and  CG_3 
REMARK    2  A    between atoms: CG_3  and  CB_4 
REMARK    3  A    between atoms: CB_4  and  CA_5 
REMARK    4  A    between atoms: CA_5  and  C_6 
REMARK    5  A    between atoms: CA_5  and  N_9 
REMARK    6  A    between atoms: C_6  and  OXT_8 
ROOT
ATOM      1  CA  MET A   1     -23.396  -3.549  -9.241  1.00  0.00     0.315 C 
ENDROOT
BRANCH   1   2
ATOM      2  CB  MET A   1     -22.297  -4.491  -9.757  1.00  0.00     0.056 C 
BRANCH   2   3
ATOM      3  CG  MET A   1     -20.891  -4.235  -9.202  1.00  0.00     0.076 C 
BRANCH   3   4
ATOM      4  SD  MET A   1     -20.448  -5.419  -7.888  1.00  0.00    -0.173 SA
ATOM      5  CE  MET A   1     -20.649  -4.332  -6.455  1.00  0.00     0.089 C 
ENDBRANCH   3   4
ENDBRANCH   2   3
ENDBRANCH   1   2
BRANCH   1   6
ATOM      6  C   MET A   1     -24.515  -3.392 -10.284  1.00  0.00     0.173 C 
ATOM      7  O   MET A   1     -24.328  -3.348 -11.491  1.00  0.00    -0.648 OA
BRANCH   6   8
ATOM      8  OXT MET A   1     -25.752  -3.287  -9.741  1.00  0.00    -0.775 OA
ATOM      9  HXT MET A   1     -26.469  -3.603 -10.330  1.00  0.00     0.167 HD
ENDBRANCH   6   8
ENDBRANCH   1   6
BRANCH   1  10
ATOM     10  N   MET A   1     -23.960  -4.103  -7.989  1.00  0.00     0.093 N 
ATOM     11  H1  MET A   1     -24.963  -4.243  -8.130  1.00  0.00     0.314 HD
ATOM     12  H2  MET A   1     -23.913  -3.381  -7.265  1.00  0.00     0.314 HD
ENDBRANCH   1  10
TORSDOF 6
ENDMDL
MODEL 4
REMARK VINA RESULT:      -4.4     13.007     14.237
REMARK  6 active torsions:
REMARK  status: ('A' for Active; 'I' for Inactive)
REMARK    1  A    between atoms: SD_2  and  CG_3 
REMARK    2  A    between atoms: CG_3  and  CB_4 
REMARK    3  A    between atoms: CB_4  and  CA_5 
REMARK    4  A    between atoms: CA_5  and  C_6 
REMARK    5  A    between atoms: CA_5  and  N_9 
REMARK    6  A    between atoms: C_6  and  OXT_8 
ROOT
ATOM      1  CA  MET A   1     -36.093   0.322 -15.275  1.00  0.00     0.315 C 
ENDROOT
BRANCH   1   2
ATOM      2  CB  MET A   1     -37.301   0.043 -14.369  1.00  0.00     0.056 C 
BRANCH   2   3
ATOM      3  CG  MET A   1     -36.975  -0.236 -12.897  1.00  0.00     0.076 C 
BRANCH   3   4
ATOM      4  SD  MET A   1     -35.190  -0.094 -12.555  1.00  0.00    -0.173 SA
ATOM      5  CE  MET A   1     -34.792  -1.854 -12.417  1.00  0.00     0.089 C 
ENDBRANCH   3   4
ENDBRANCH   2   3
ENDBRANCH   1   2
BRANCH   1   6
ATOM      6  C   MET A   1     -35.844  -0.855 -16.233  1.00  0.00     0.173 C 
ATOM      7  O   MET A   1     -35.127  -1.811 -15.974  1.00  0.00    -0.648 OA
BRANCH   6   8
ATOM      8  OXT MET A   1     -36.485  -0.733 -17.420  1.00  0.00    -0.775 OA
ATOM      9  HXT MET A   1     -37.413  -1.053 -17.402  1.00  0.00     0.167 HD
ENDBRANCH   6   8
ENDBRANCH   1   6
BRANCH   1  10
ATOM     10  N   MET A   1     -36.349   1.553 -16.059  1.00  0.00     0.093 N 
ATOM     11  H1  MET A   1     -35.673   2.261 -15.764  1.00  0.00     0.314 HD
ATOM     12  H2  MET A   1     -37.251   1.940 -15.767  1.00  0.00     0.314 HD
ENDBRANCH   1  10
TORSDOF 6
ENDMDL
MODEL 5
REMARK VINA RESULT:      -4.4      1.512      1.814
REMARK  6 active torsions:
REMARK  status: ('A' for Active; 'I' for Inactive)
REMARK    1  A    between atoms: SD_2  and  CG_3 
REMARK    2  A    between atoms: CG_3  and  CB_4 
REMARK    3  A    between atoms: CB_4  and  CA_5 
REMARK    4  A    between atoms: CA_5  and  C_6 
REMARK    5  A    between atoms: CA_5  and  N_9 
REMARK    6  A    between atoms: C_6  and  OXT_8 
ROOT
ATOM      1  CA  MET A   1     -23.034  -4.029 -12.168  1.00  0.00     0.315 C 
ENDROOT
BRANCH   1   2
ATOM      2  CB  MET A   1     -23.219  -3.382 -10.787  1.00  0.00     0.056 C 
BRANCH   2   3
ATOM      3  CG  MET A   1     -23.387  -4.357  -9.616  1.00  0.00     0.076 C 
BRANCH   3   4
ATOM      4  SD  MET A   1     -22.175  -4.047  -8.289  1.00  0.00    -0.173 SA
ATOM      5  CE  MET A   1     -20.658  -4.403  -9.211  1.00  0.00     0.089 C 
ENDBRANCH   3   4
ENDBRANCH   2   3
ENDBRANCH   1   2
BRANCH   1   6
ATOM      6  C   MET A   1     -24.115  -3.544 -13.149  1.00  0.00     0.173 C 
ATOM      7  O   MET A   1     -25.186  -3.066 -12.807  1.00  0.00    -0.648 OA
BRANCH   6   8
ATOM      8  OXT MET A   1     -23.780  -3.711 -14.450  1.00  0.00    -0.775 OA
ATOM      9  HXT MET A   1     -23.994  -4.602 -14.801  1.00  0.00     0.167 HD
ENDBRANCH   6   8
ENDBRANCH   1   6
BRANCH   1  10
ATOM     10  N   MET A   1     -21.695  -3.675 -12.692  1.00  0.00     0.093 N 
ATOM     11  H1  MET A   1     -21.613  -2.656 -12.687  1.00  0.00     0.314 HD
ATOM     12  H2  MET A   1     -21.661  -3.918 -13.686  1.00  0.00     0.314 HD
ENDBRANCH   1  10
TORSDOF 6
ENDMDL
MODEL 6
REMARK VINA RESULT:      -4.4      1.972      2.198
REMARK  6 active torsions:
REMARK  status: ('A' for Active; 'I' for Inactive)
REMARK    1  A    between atoms: SD_2  and  CG_3 
REMARK    2  A    between atoms: CG_3  and  CB_4 
REMARK    3  A    between atoms: CB_4  and  CA_5 
REMARK    4  A    between atoms: CA_5  and  C_6 
REMARK    5  A    between atoms: CA_5  and  N_9 
REMARK    6  A    between atoms: C_6  and  OXT_8 
ROOT
ATOM      1  CA  MET A   1     -23.414  -3.071 -11.574  1.00  0.00     0.315 C 
ENDROOT
BRANCH   1   2
ATOM      2  CB  MET A   1     -22.498  -4.235 -11.167  1.00  0.00     0.056 C 
BRANCH   2   3
ATOM      3  CG  MET A   1     -21.600  -3.977  -9.951  1.00  0.00     0.076 C 
BRANCH   3   4
ATOM      4  SD  MET A   1     -22.511  -4.148  -8.381  1.00  0.00    -0.173 SA
ATOM      5  CE  MET A   1     -21.170  -3.740  -7.236  1.00  0.00     0.089 C 
ENDBRANCH   3   4
ENDBRANCH   2   3
ENDBRANCH   1   2
BRANCH   1   6
ATOM      6  C   MET A   1     -23.350  -2.828 -13.091  1.00  0.00     0.173 C 
ATOM      7  O   MET A   1     -24.234  -2.285 -13.737  1.00  0.00    -0.648 OA
BRANCH   6   8
ATOM      8  OXT MET A   1     -22.215  -3.291 -13.667  1.00  0.00    -0.775 OA
ATOM      9  HXT MET A   1     -21.498  -2.623 -13.717  1.00  0.00     0.167 HD
ENDBRANCH   6   8
ENDBRANCH   1   6
BRANCH   1  10
ATOM     10  N   MET A   1     -24.806  -3.391 -11.181  1.00  0.00     0.093 N 
ATOM     11  H1  MET A   1     -24.770  -4.060 -10.408  1.00  0.00     0.314 HD
ATOM     12  H2  MET A   1     -25.244  -3.919 -11.940  1.00  0.00     0.314 HD
ENDBRANCH   1  10
TORSDOF 6
ENDMDL
MODEL 7
REMARK VINA RESULT:      -4.2      2.257      2.798
REMARK  6 active torsions:
REMARK  status: ('A' for Active; 'I' for Inactive)
REMARK    1  A    between atoms: SD_2  and  CG_3 
REMARK    2  A    between atoms: CG_3  and  CB_4 
REMARK    3  A    between atoms: CB_4  and  CA_5 
REMARK    4  A    between atoms: CA_5  and  C_6 
REMARK    5  A    between atoms: CA_5  and  N_9 
REMARK    6  A    between atoms: C_6  and  OXT_8 
ROOT
ATOM      1  CA  MET A   1     -22.596  -3.085 -12.894  1.00  0.00     0.315 C 
ENDROOT
BRANCH   1   2
ATOM      2  CB  MET A   1     -23.593  -4.008 -12.178  1.00  0.00     0.056 C 
BRANCH   2   3
ATOM      3  CG  MET A   1     -24.549  -3.318 -11.198  1.00  0.00     0.076 C 
BRANCH   3   4
ATOM      4  SD  MET A   1     -24.183  -3.753  -9.466  1.00  0.00    -0.173 SA
ATOM      5  CE  MET A   1     -22.681  -4.726  -9.735  1.00  0.00     0.089 C 
ENDBRANCH   3   4
ENDBRANCH   2   3
ENDBRANCH   1   2
BRANCH   1   6
ATOM      6  C   MET A   1     -23.127  -2.674 -14.278  1.00  0.00     0.173 C 
ATOM      7  O   MET A   1     -24.153  -2.036 -14.457  1.00  0.00    -0.648 OA
BRANCH   6   8
ATOM      8  OXT MET A   1     -22.353  -3.102 -15.304  1.00  0.00    -0.775 OA
ATOM      9  HXT MET A   1     -22.722  -2.893 -16.189  1.00  0.00     0.167 HD
ENDBRANCH   6   8
ENDBRANCH   1   6
BRANCH   1  10
ATOM     10  N   MET A   1     -22.378  -1.875 -12.068  1.00  0.00     0.093 N 
ATOM     11  H1  MET A   1     -21.508  -1.435 -12.377  1.00  0.00     0.314 HD
ATOM     12  H2  MET A   1     -22.176  -2.169 -11.109  1.00  0.00     0.314 HD
ENDBRANCH   1  10
TORSDOF 6
ENDMDL
MODEL 8
REMARK VINA RESULT:      -4.0      2.996      4.129
REMARK  6 active torsions:
REMARK  status: ('A' for Active; 'I' for Inactive)
REMARK    1  A    between atoms: SD_2  and  CG_3 
REMARK    2  A    between atoms: CG_3  and  CB_4 
REMARK    3  A    between atoms: CB_4  and  CA_5 
REMARK    4  A    between atoms: CA_5  and  C_6 
REMARK    5  A    between atoms: CA_5  and  N_9 
REMARK    6  A    between atoms: C_6  and  OXT_8 
ROOT
ATOM      1  CA  MET A   1     -23.307  -3.232 -10.628  1.00  0.00     0.315 C 
ENDROOT
BRANCH   1   2
ATOM      2  CB  MET A   1     -23.769  -3.903 -11.930  1.00  0.00     0.056 C 
BRANCH   2   3
ATOM      3  CG  MET A   1     -24.298  -2.954 -13.012  1.00  0.00     0.076 C 
BRANCH   3   4
ATOM      4  SD  MET A   1     -23.072  -2.675 -14.333  1.00  0.00    -0.173 SA
ATOM      5  CE  MET A   1     -23.728  -1.125 -14.999  1.00  0.00     0.089 C 
ENDBRANCH   3   4
ENDBRANCH   2   3
ENDBRANCH   1   2
BRANCH   1   6
ATOM      6  C   MET A   1     -24.240  -3.599  -9.461  1.00  0.00     0.173 C 
ATOM      7  O   MET A   1     -23.867  -4.130  -8.426  1.00  0.00    -0.648 OA
BRANCH   6   8
ATOM      8  OXT MET A   1     -25.539  -3.292  -9.689  1.00  0.00    -0.775 OA
ATOM      9  HXT MET A   1     -25.711  -2.329  -9.758  1.00  0.00     0.167 HD
ENDBRANCH   6   8
ENDBRANCH   1   6
BRANCH   1  10
ATOM     10  N   MET A   1     -21.928  -3.676 -10.318  1.00  0.00     0.093 N 
ATOM     11  H1  MET A   1     -21.961  -4.673 -10.090  1.00  0.00     0.314 HD
ATOM     12  H2  MET A   1     -21.634  -3.235  -9.442  1.00  0.00     0.314 HD
ENDBRANCH   1  10
TORSDOF 6
ENDMDL
MODEL 9
REMARK VINA RESULT:      -3.9      3.927      4.731
REMARK  6 active torsions:
REMARK  status: ('A' for Active; 'I' for Inactive)
REMARK    1  A    between atoms: SD_2  and  CG_3 
REMARK    2  A    between atoms: CG_3  and  CB_4 
REMARK    3  A    between atoms: CB_4  and  CA_5 
REMARK    4  A    between atoms: CA_5  and  C_6 
REMARK    5  A    between atoms: CA_5  and  N_9 
REMARK    6  A    between atoms: C_6  and  OXT_8 
ROOT
ATOM      1  CA  MET A   1     -22.938  -4.467  -9.161  1.00  0.00     0.315 C 
ENDROOT
BRANCH   1   2
ATOM      2  CB  MET A   1     -22.315  -3.635 -10.292  1.00  0.00     0.056 C 
BRANCH   2   3
ATOM      3  CG  MET A   1     -22.652  -4.094 -11.715  1.00  0.00     0.076 C 
BRANCH   3   4
ATOM      4  SD  MET A   1     -23.944  -3.059 -12.479  1.00  0.00    -0.173 SA
ATOM      5  CE  MET A   1     -23.154  -2.766 -14.081  1.00  0.00     0.089 C 
ENDBRANCH   3   4
ENDBRANCH   2   3
ENDBRANCH   1   2
BRANCH   1   6
ATOM      6  C   MET A   1     -21.903  -4.758  -8.061  1.00  0.00     0.173 C 
ATOM      7  O   MET A   1     -22.142  -4.707  -6.864  1.00  0.00    -0.648 OA
BRANCH   6   8
ATOM      8  OXT MET A   1     -20.674  -5.066  -8.540  1.00  0.00    -0.775 OA
ATOM      9  HXT MET A   1     -19.951  -4.916  -7.894  1.00  0.00     0.167 HD
ENDBRANCH   6   8
ENDBRANCH   1   6
BRANCH   1  10
ATOM     10  N   MET A   1     -24.079  -3.720  -8.583  1.00  0.00     0.093 N 
ATOM     11  H1  MET A   1     -23.817  -2.733  -8.534  1.00  0.00     0.314 HD
ATOM     12  H2  MET A   1     -24.182  -3.994  -7.602  1.00  0.00     0.314 HD
ENDBRANCH   1  10
TORSDOF 6
ENDMDL
