MODEL 1
REMARK VINA RESULT:      -5.0      0.000      0.000
REMARK  9 active torsions:
REMARK  status: ('A' for Active; 'I' for Inactive)
REMARK    1  A    between atoms: C_1  and  C_2 
REMARK    2  A    between atoms: C_1  and  N_4 
REMARK    3  A    between atoms: C_2  and  O_3 
REMARK    4  A    between atoms: N_4  and  C_5 
REMARK    5  A    between atoms: N_4  and  C_8 
REMARK    6  A    between atoms: C_5  and  C_6 
REMARK    7  A    between atoms: C_6  and  O_7 
REMARK    8  A    between atoms: C_8  and  C_9 
REMARK    9  A    between atoms: C_9  and  O_10 
ROOT
HETATM    1  N   UNL     1     -23.580  -2.661 -11.904  1.00  0.00     0.094 N 
ENDROOT
BRANCH   1   2
HETATM    2  C   UNL     1     -24.068  -3.769 -11.028  1.00  0.00     0.298 C 
BRANCH   2   3
HETATM    3  C   UNL     1     -24.642  -3.342  -9.666  1.00  0.00     0.194 C 
BRANCH   3   4
HETATM    4  O   UNL     1     -26.061  -3.253  -9.717  1.00  0.00    -0.399 OA
HETATM    5  H   UNL     1     -26.328  -3.761 -10.509  1.00  0.00     0.209 HD
ENDBRANCH   3   4
ENDBRANCH   2   3
ENDBRANCH   1   2
BRANCH   1   6
HETATM    6  C   UNL     1     -22.087  -2.621 -11.865  1.00  0.00     0.298 C 
BRANCH   6   7
HETATM    7  C   UNL     1     -21.386  -3.908 -11.387  1.00  0.00     0.194 C 
BRANCH   7   8
HETATM    8  O   UNL     1     -20.007  -3.893 -11.729  1.00  0.00    -0.399 OA
HETATM    9  H   UNL     1     -19.542  -4.325 -10.986  1.00  0.00     0.209 HD
ENDBRANCH   7   8
ENDBRANCH   6   7
ENDBRANCH   1   6
BRANCH   1  10
HETATM   10  C   UNL     1     -24.042  -2.892 -13.305  1.00  0.00     0.298 C 
BRANCH  10  11
HETATM   11  C   UNL     1     -23.714  -1.774 -14.311  1.00  0.00     0.194 C 
BRANCH  11  12
HETATM   12  O   UNL     1     -24.793  -0.853 -14.414  1.00  0.00    -0.399 OA
HETATM   13  H   UNL     1     -25.138  -0.745 -13.506  1.00  0.00     0.209 HD
ENDBRANCH  11  12
ENDBRANCH  10  11
ENDBRANCH   1  10
TORSDOF 9
ENDMDL
MODEL 2
REMARK VINA RESULT:      -4.9      1.129      4.496
REMARK  9 active torsions:
REMARK  status: ('A' for Active; 'I' for Inactive)
REMARK    1  A    between atoms: C_1  and  C_2 
REMARK    2  A    between atoms: C_1  and  N_4 
REMARK    3  A    between atoms: C_2  and  O_3 
REMARK    4  A    between atoms: N_4  and  C_5 
REMARK    5  A    between atoms: N_4  and  C_8 
REMARK    6  A    between atoms: C_5  and  C_6 
REMARK    7  A    between atoms: C_6  and  O_7 
REMARK    8  A    between atoms: C_8  and  C_9 
REMARK    9  A    between atoms: C_9  and  O_10 
ROOT
HETATM    1  N   UNL     1     -23.526  -2.864 -11.935  1.00  0.00     0.094 N 
ENDROOT
BRANCH   1   2
HETATM    2  C   UNL     1     -23.819  -3.277 -13.341  1.00  0.00     0.298 C 
BRANCH   2   3
HETATM    3  C   UNL     1     -23.232  -2.376 -14.440  1.00  0.00     0.194 C 
BRANCH   3   4
HETATM    4  O   UNL     1     -22.356  -3.110 -15.286  1.00  0.00    -0.399 OA
HETATM    5  H   UNL     1     -22.923  -3.751 -15.759  1.00  0.00     0.209 HD
ENDBRANCH   3   4
ENDBRANCH   2   3
ENDBRANCH   1   2
BRANCH   1   6
HETATM    6  C   UNL     1     -24.019  -3.917 -10.997  1.00  0.00     0.298 C 
BRANCH   6   7
HETATM    7  C   UNL     1     -24.566  -3.418  -9.645  1.00  0.00     0.194 C 
BRANCH   7   8
HETATM    8  O   UNL     1     -25.968  -3.199  -9.713  1.00  0.00    -0.399 OA
HETATM    9  H   UNL     1     -26.360  -4.053  -9.981  1.00  0.00     0.209 HD
ENDBRANCH   7   8
ENDBRANCH   6   7
ENDBRANCH   1   6
BRANCH   1  10
HETATM   10  C   UNL     1     -22.053  -2.686 -11.764  1.00  0.00     0.298 C 
BRANCH  10  11
HETATM   11  C   UNL     1     -21.273  -3.939 -11.326  1.00  0.00     0.194 C 
BRANCH  11  12
HETATM   12  O   UNL     1     -19.895  -3.817 -11.654  1.00  0.00    -0.399 OA
HETATM   13  H   UNL     1     -19.472  -4.639 -11.335  1.00  0.00     0.209 HD
ENDBRANCH  11  12
ENDBRANCH  10  11
ENDBRANCH   1  10
TORSDOF 9
ENDMDL
MODEL 3
REMARK VINA RESULT:      -4.8      0.741      4.116
REMARK  9 active torsions:
REMARK  status: ('A' for Active; 'I' for Inactive)
REMARK    1  A    between atoms: C_1  and  C_2 
REMARK    2  A    between atoms: C_1  and  N_4 
REMARK    3  A    between atoms: C_2  and  O_3 
REMARK    4  A    between atoms: N_4  and  C_5 
REMARK    5  A    between atoms: N_4  and  C_8 
REMARK    6  A    between atoms: C_5  and  C_6 
REMARK    7  A    between atoms: C_6  and  O_7 
REMARK    8  A    between atoms: C_8  and  C_9 
REMARK    9  A    between atoms: C_9  and  O_10 
ROOT
HETATM    1  N   UNL     1     -23.429  -2.784 -11.734  1.00  0.00     0.094 N 
ENDROOT
BRANCH   1   2
HETATM    2  C   UNL     1     -21.962  -3.021 -11.888  1.00  0.00     0.298 C 
BRANCH   2   3
HETATM    3  C   UNL     1     -21.459  -4.409 -11.457  1.00  0.00     0.194 C 
BRANCH   3   4
HETATM    4  O   UNL     1     -20.139  -4.332 -10.932  1.00  0.00    -0.399 OA
HETATM    5  H   UNL     1     -19.995  -3.387 -10.723  1.00  0.00     0.209 HD
ENDBRANCH   3   4
ENDBRANCH   2   3
ENDBRANCH   1   2
BRANCH   1   6
HETATM    6  C   UNL     1     -24.081  -2.823 -13.077  1.00  0.00     0.298 C 
BRANCH   6   7
HETATM    7  C   UNL     1     -23.142  -2.689 -14.291  1.00  0.00     0.194 C 
BRANCH   7   8
HETATM    8  O   UNL     1     -23.697  -1.820 -15.269  1.00  0.00    -0.399 OA
HETATM    9  H   UNL     1     -24.446  -2.307 -15.665  1.00  0.00     0.209 HD
ENDBRANCH   7   8
ENDBRANCH   6   7
ENDBRANCH   1   6
BRANCH   1  10
HETATM   10  C   UNL     1     -24.016  -3.841 -10.857  1.00  0.00     0.298 C 
BRANCH  10  11
HETATM   11  C   UNL     1     -24.667  -3.344  -9.553  1.00  0.00     0.194 C 
BRANCH  11  12
HETATM   12  O   UNL     1     -26.078  -3.239  -9.700  1.00  0.00    -0.399 OA
HETATM   13  H   UNL     1     -26.234  -2.398 -10.174  1.00  0.00     0.209 HD
ENDBRANCH  11  12
ENDBRANCH  10  11
ENDBRANCH   1  10
TORSDOF 9
ENDMDL
MODEL 4
REMARK VINA RESULT:      -4.8      1.149      3.714
REMARK  9 active torsions:
REMARK  status: ('A' for Active; 'I' for Inactive)
REMARK    1  A    between atoms: C_1  and  C_2 
REMARK    2  A    between atoms: C_1  and  N_4 
REMARK    3  A    between atoms: C_2  and  O_3 
REMARK    4  A    between atoms: N_4  and  C_5 
REMARK    5  A    between atoms: N_4  and  C_8 
REMARK    6  A    between atoms: C_5  and  C_6 
REMARK    7  A    between atoms: C_6  and  O_7 
REMARK    8  A    between atoms: C_8  and  C_9 
REMARK    9  A    between atoms: C_9  and  O_10 
ROOT
HETATM    1  N   UNL     1     -23.400  -3.953 -11.770  1.00  0.00     0.094 N 
ENDROOT
BRANCH   1   2
HETATM    2  C   UNL     1     -22.204  -3.157 -11.362  1.00  0.00     0.298 C 
BRANCH   2   3
HETATM    3  C   UNL     1     -20.991  -3.969 -10.879  1.00  0.00     0.194 C 
BRANCH   3   4
HETATM    4  O   UNL     1     -19.875  -3.779 -11.741  1.00  0.00    -0.399 OA
HETATM    5  H   UNL     1     -19.295  -3.138 -11.282  1.00  0.00     0.209 HD
ENDBRANCH   3   4
ENDBRANCH   2   3
ENDBRANCH   1   2
BRANCH   1   6
HETATM    6  C   UNL     1     -24.123  -4.422 -10.551  1.00  0.00     0.298 C 
BRANCH   6   7
HETATM    7  C   UNL     1     -24.636  -3.322  -9.601  1.00  0.00     0.194 C 
BRANCH   7   8
HETATM    8  O   UNL     1     -26.055  -3.250  -9.625  1.00  0.00    -0.399 OA
HETATM    9  H   UNL     1     -26.273  -2.301  -9.708  1.00  0.00     0.209 HD
ENDBRANCH   7   8
ENDBRANCH   6   7
ENDBRANCH   1   6
BRANCH   1  10
HETATM   10  C   UNL     1     -24.306  -3.104 -12.599  1.00  0.00     0.298 C 
BRANCH  10  11
HETATM   11  C   UNL     1     -23.664  -2.448 -13.836  1.00  0.00     0.194 C 
BRANCH  11  12
HETATM   12  O   UNL     1     -23.456  -3.407 -14.866  1.00  0.00    -0.399 OA
HETATM   13  H   UNL     1     -23.457  -2.902 -15.703  1.00  0.00     0.209 HD
ENDBRANCH  11  12
ENDBRANCH  10  11
ENDBRANCH   1  10
TORSDOF 9
ENDMDL
MODEL 5
REMARK VINA RESULT:      -4.7      1.425      3.605
REMARK  9 active torsions:
REMARK  status: ('A' for Active; 'I' for Inactive)
REMARK    1  A    between atoms: C_1  and  C_2 
REMARK    2  A    between atoms: C_1  and  N_4 
REMARK    3  A    between atoms: C_2  and  O_3 
REMARK    4  A    between atoms: N_4  and  C_5 
REMARK    5  A    between atoms: N_4  and  C_8 
REMARK    6  A    between atoms: C_5  and  C_6 
REMARK    7  A    between atoms: C_6  and  O_7 
REMARK    8  A    between atoms: C_8  and  C_9 
REMARK    9  A    between atoms: C_9  and  O_10 
ROOT
HETATM    1  N   UNL     1     -23.155  -4.107 -11.649  1.00  0.00     0.094 N 
ENDROOT
BRANCH   1   2
HETATM    2  C   UNL     1     -23.976  -3.277 -12.581  1.00  0.00     0.298 C 
BRANCH   2   3
HETATM    3  C   UNL     1     -23.239  -2.728 -13.814  1.00  0.00     0.194 C 
BRANCH   3   4
HETATM    4  O   UNL     1     -23.533  -3.503 -14.970  1.00  0.00    -0.399 OA
HETATM    5  H   UNL     1     -22.733  -4.042 -15.135  1.00  0.00     0.209 HD
ENDBRANCH   3   4
ENDBRANCH   2   3
ENDBRANCH   1   2
BRANCH   1   6
HETATM    6  C   UNL     1     -21.979  -3.313 -11.183  1.00  0.00     0.298 C 
BRANCH   6   7
HETATM    7  C   UNL     1     -20.645  -4.077 -11.072  1.00  0.00     0.194 C 
BRANCH   7   8
HETATM    8  O   UNL     1     -20.382  -4.447  -9.726  1.00  0.00    -0.399 OA
HETATM    9  H   UNL     1     -19.882  -5.286  -9.772  1.00  0.00     0.209 HD
ENDBRANCH   7   8
ENDBRANCH   6   7
ENDBRANCH   1   6
BRANCH   1  10
HETATM   10  C   UNL     1     -23.987  -4.511 -10.476  1.00  0.00     0.298 C 
BRANCH  10  11
HETATM   11  C   UNL     1     -24.519  -3.359  -9.603  1.00  0.00     0.194 C 
BRANCH  11  12
HETATM   12  O   UNL     1     -25.935  -3.261  -9.703  1.00  0.00    -0.399 OA
HETATM   13  H   UNL     1     -26.289  -3.736  -8.925  1.00  0.00     0.209 HD
ENDBRANCH  11  12
ENDBRANCH  10  11
ENDBRANCH   1  10
TORSDOF 9
ENDMDL
MODEL 6
REMARK VINA RESULT:      -4.6      1.043      3.600
REMARK  9 active torsions:
REMARK  status: ('A' for Active; 'I' for Inactive)
REMARK    1  A    between atoms: C_1  and  C_2 
REMARK    2  A    between atoms: C_1  and  N_4 
REMARK    3  A    between atoms: C_2  and  O_3 
REMARK    4  A    between atoms: N_4  and  C_5 
REMARK    5  A    between atoms: N_4  and  C_8 
REMARK    6  A    between atoms: C_5  and  C_6 
REMARK    7  A    between atoms: C_6  and  O_7 
REMARK    8  A    between atoms: C_8  and  C_9 
REMARK    9  A    between atoms: C_9  and  O_10 
ROOT
HETATM    1  N   UNL     1     -23.250  -3.961 -11.840  1.00  0.00     0.094 N 
ENDROOT
BRANCH   1   2
HETATM    2  C   UNL     1     -23.984  -4.552 -10.681  1.00  0.00     0.298 C 
BRANCH   2   3
HETATM    3  C   UNL     1     -24.607  -3.546  -9.699  1.00  0.00     0.194 C 
BRANCH   3   4
HETATM    4  O   UNL     1     -24.136  -3.769  -8.375  1.00  0.00    -0.399 OA
HETATM    5  H   UNL     1     -24.586  -4.582  -8.070  1.00  0.00     0.209 HD
ENDBRANCH   3   4
ENDBRANCH   2   3
ENDBRANCH   1   2
BRANCH   1   6
HETATM    6  C   UNL     1     -24.216  -3.248 -12.727  1.00  0.00     0.298 C 
BRANCH   6   7
HETATM    7  C   UNL     1     -23.602  -2.334 -13.806  1.00  0.00     0.194 C 
BRANCH   7   8
HETATM    8  O   UNL     1     -24.519  -1.325 -14.200  1.00  0.00    -0.399 OA
HETATM    9  H   UNL     1     -24.373  -0.576 -13.589  1.00  0.00     0.209 HD
ENDBRANCH   7   8
ENDBRANCH   6   7
ENDBRANCH   1   6
BRANCH   1  10
HETATM   10  C   UNL     1     -22.220  -3.002 -11.342  1.00  0.00     0.298 C 
BRANCH  10  11
HETATM   11  C   UNL     1     -20.922  -3.632 -10.803  1.00  0.00     0.194 C 
BRANCH  11  12
HETATM   12  O   UNL     1     -19.970  -3.798 -11.847  1.00  0.00    -0.399 OA
HETATM   13  H   UNL     1     -19.094  -3.779 -11.413  1.00  0.00     0.209 HD
ENDBRANCH  11  12
ENDBRANCH  10  11
ENDBRANCH   1  10
TORSDOF 9
ENDMDL
MODEL 7
REMARK VINA RESULT:      -4.3      2.562      3.489
REMARK  9 active torsions:
REMARK  status: ('A' for Active; 'I' for Inactive)
REMARK    1  A    between atoms: C_1  and  C_2 
REMARK    2  A    between atoms: C_1  and  N_4 
REMARK    3  A    between atoms: C_2  and  O_3 
REMARK    4  A    between atoms: N_4  and  C_5 
REMARK    5  A    between atoms: N_4  and  C_8 
REMARK    6  A    between atoms: C_5  and  C_6 
REMARK    7  A    between atoms: C_6  and  O_7 
REMARK    8  A    between atoms: C_8  and  C_9 
REMARK    9  A    between atoms: C_9  and  O_10 
ROOT
HETATM    1  N   UNL     1     -22.257  -3.676  -9.136  1.00  0.00     0.094 N 
ENDROOT
BRANCH   1   2
HETATM    2  C   UNL     1     -23.719  -3.940  -8.985  1.00  0.00     0.298 C 
BRANCH   2   3
HETATM    3  C   UNL     1     -24.611  -3.454 -10.140  1.00  0.00     0.194 C 
BRANCH   3   4
HETATM    4  O   UNL     1     -25.944  -3.233  -9.695  1.00  0.00    -0.399 OA
HETATM    5  H   UNL     1     -26.518  -3.537 -10.427  1.00  0.00     0.209 HD
ENDBRANCH   3   4
ENDBRANCH   2   3
ENDBRANCH   1   2
BRANCH   1   6
HETATM    6  C   UNL     1     -21.527  -4.242  -7.963  1.00  0.00     0.298 C 
BRANCH   6   7
HETATM    7  C   UNL     1     -20.225  -5.005  -8.276  1.00  0.00     0.194 C 
BRANCH   7   8
HETATM    8  O   UNL     1     -20.132  -6.192  -7.502  1.00  0.00    -0.399 OA
HETATM    9  H   UNL     1     -19.478  -6.758  -7.957  1.00  0.00     0.209 HD
ENDBRANCH   7   8
ENDBRANCH   6   7
ENDBRANCH   1   6
BRANCH   1  10
HETATM   10  C   UNL     1     -21.761  -4.313 -10.393  1.00  0.00     0.298 C 
BRANCH  10  11
HETATM   11  C   UNL     1     -21.218  -3.348 -11.463  1.00  0.00     0.194 C 
BRANCH  11  12
HETATM   12  O   UNL     1     -21.683  -3.713 -12.757  1.00  0.00    -0.399 OA
HETATM   13  H   UNL     1     -20.905  -4.070 -13.229  1.00  0.00     0.209 HD
ENDBRANCH  11  12
ENDBRANCH  10  11
ENDBRANCH   1  10
TORSDOF 9
ENDMDL
MODEL 8
REMARK VINA RESULT:      -4.3     15.629     17.305
REMARK  9 active torsions:
REMARK  status: ('A' for Active; 'I' for Inactive)
REMARK    1  A    between atoms: C_1  and  C_2 
REMARK    2  A    between atoms: C_1  and  N_4 
REMARK    3  A    between atoms: C_2  and  O_3 
REMARK    4  A    between atoms: N_4  and  C_5 
REMARK    5  A    between atoms: N_4  and  C_8 
REMARK    6  A    between atoms: C_5  and  C_6 
REMARK    7  A    between atoms: C_6  and  O_7 
REMARK    8  A    between atoms: C_8  and  C_9 
REMARK    9  A    between atoms: C_9  and  O_10 
ROOT
HETATM    1  N   UNL     1     -12.044   6.333 -19.825  1.00  0.00     0.094 N 
ENDROOT
BRANCH   1   2
HETATM    2  C   UNL     1     -11.122   7.425 -20.260  1.00  0.00     0.298 C 
BRANCH   2   3
HETATM    3  C   UNL     1     -11.177   8.718 -19.429  1.00  0.00     0.194 C 
BRANCH   3   4
HETATM    4  O   UNL     1     -10.319   8.632 -18.298  1.00  0.00    -0.399 OA
HETATM    5  H   UNL     1     -10.907   8.678 -17.518  1.00  0.00     0.209 HD
ENDBRANCH   3   4
ENDBRANCH   2   3
ENDBRANCH   1   2
BRANCH   1   6
HETATM    6  C   UNL     1     -13.009   6.031 -20.925  1.00  0.00     0.298 C 
BRANCH   6   7
HETATM    7  C   UNL     1     -14.132   5.031 -20.587  1.00  0.00     0.194 C 
BRANCH   7   8
HETATM    8  O   UNL     1     -14.941   5.515 -19.525  1.00  0.00    -0.399 OA
HETATM    9  H   UNL     1     -15.014   4.778 -18.887  1.00  0.00     0.209 HD
ENDBRANCH   7   8
ENDBRANCH   6   7
ENDBRANCH   1   6
BRANCH   1  10
HETATM   10  C   UNL     1     -11.251   5.110 -19.501  1.00  0.00     0.298 C 
BRANCH  10  11
HETATM   11  C   UNL     1      -9.754   5.338 -19.218  1.00  0.00     0.194 C 
BRANCH  11  12
HETATM   12  O   UNL     1      -9.553   5.767 -17.877  1.00  0.00    -0.399 OA
HETATM   13  H   UNL     1      -8.634   6.099 -17.839  1.00  0.00     0.209 HD
ENDBRANCH  11  12
ENDBRANCH  10  11
ENDBRANCH   1  10
TORSDOF 9
ENDMDL
MODEL 9
REMARK VINA RESULT:      -4.1      2.829      4.084
REMARK  9 active torsions:
REMARK  status: ('A' for Active; 'I' for Inactive)
REMARK    1  A    between atoms: C_1  and  C_2 
REMARK    2  A    between atoms: C_1  and  N_4 
REMARK    3  A    between atoms: C_2  and  O_3 
REMARK    4  A    between atoms: N_4  and  C_5 
REMARK    5  A    between atoms: N_4  and  C_8 
REMARK    6  A    between atoms: C_5  and  C_6 
REMARK    7  A    between atoms: C_6  and  O_7 
REMARK    8  A    between atoms: C_8  and  C_9 
REMARK    9  A    between atoms: C_9  and  O_10 
ROOT
HETATM    1  N   UNL     1     -22.396  -3.931  -9.240  1.00  0.00     0.094 N 
ENDROOT
BRANCH   1   2
HETATM    2  C   UNL     1     -21.895  -4.587  -7.995  1.00  0.00     0.298 C 
BRANCH   2   3
HETATM    3  C   UNL     1     -20.699  -3.902  -7.312  1.00  0.00     0.194 C 
BRANCH   3   4
HETATM    4  O   UNL     1     -20.518  -4.395  -5.990  1.00  0.00    -0.399 OA
HETATM    5  H   UNL     1     -20.126  -5.285  -6.092  1.00  0.00     0.209 HD
ENDBRANCH   3   4
ENDBRANCH   2   3
ENDBRANCH   1   2
BRANCH   1   6
HETATM    6  C   UNL     1     -21.534  -4.331 -10.392  1.00  0.00     0.298 C 
BRANCH   6   7
HETATM    7  C   UNL     1     -21.264  -3.242 -11.449  1.00  0.00     0.194 C 
BRANCH   7   8
HETATM    8  O   UNL     1     -21.625  -3.692 -12.747  1.00  0.00    -0.399 OA
HETATM    9  H   UNL     1     -22.602  -3.691 -12.768  1.00  0.00     0.209 HD
ENDBRANCH   7   8
ENDBRANCH   6   7
ENDBRANCH   1   6
BRANCH   1  10
HETATM   10  C   UNL     1     -23.806  -4.354  -9.494  1.00  0.00     0.298 C 
BRANCH  10  11
HETATM   11  C   UNL     1     -24.667  -3.363 -10.300  1.00  0.00     0.194 C 
BRANCH  11  12
HETATM   12  O   UNL     1     -25.968  -3.251  -9.736  1.00  0.00    -0.399 OA
HETATM   13  H   UNL     1     -26.587  -3.256 -10.494  1.00  0.00     0.209 HD
ENDBRANCH  11  12
ENDBRANCH  10  11
ENDBRANCH   1  10
TORSDOF 9
ENDMDL
