MODEL 1
REMARK VINA RESULT:      -1.3      0.000      0.000
REMARK  4 active torsions:
REMARK  status: ('A' for Active; 'I' for Inactive)
REMARK    1  A    between atoms: C_6  and  S_13 
REMARK    2  A    between atoms: C_8  and  S_9 
REMARK    3  A    between atoms: C_20  and  S_26 
REMARK    4  A    between atoms: C_22  and  O_25 
ROOT
HETATM    1 NA   UNL     2     -32.324  -8.576   4.529  1.00  0.00     0.000 Na
ENDROOT
TORSDOF 4
ENDMDL
MODEL 2
REMARK VINA RESULT:      -1.3     23.494     23.494
REMARK  4 active torsions:
REMARK  status: ('A' for Active; 'I' for Inactive)
REMARK    1  A    between atoms: C_6  and  S_13 
REMARK    2  A    between atoms: C_8  and  S_9 
REMARK    3  A    between atoms: C_20  and  S_26 
REMARK    4  A    between atoms: C_22  and  O_25 
ROOT
HETATM    1 NA   UNL     2     -11.257   1.620   2.468  1.00  0.00     0.000 Na
ENDROOT
TORSDOF 4
ENDMDL
MODEL 3
REMARK VINA RESULT:      -1.2     19.033     19.033
REMARK  4 active torsions:
REMARK  status: ('A' for Active; 'I' for Inactive)
REMARK    1  A    between atoms: C_6  and  S_13 
REMARK    2  A    between atoms: C_8  and  S_9 
REMARK    3  A    between atoms: C_20  and  S_26 
REMARK    4  A    between atoms: C_22  and  O_25 
ROOT
HETATM    1 NA   UNL     2     -27.015 -13.665 -13.026  1.00  0.00     0.000 Na
ENDROOT
TORSDOF 4
ENDMDL
MODEL 4
REMARK VINA RESULT:      -1.2     22.214     22.214
REMARK  4 active torsions:
REMARK  status: ('A' for Active; 'I' for Inactive)
REMARK    1  A    between atoms: C_6  and  S_13 
REMARK    2  A    between atoms: C_8  and  S_9 
REMARK    3  A    between atoms: C_20  and  S_26 
REMARK    4  A    between atoms: C_22  and  O_25 
ROOT
HETATM    1 NA   UNL     2     -25.110   0.412 -14.461  1.00  0.00     0.000 Na
ENDROOT
TORSDOF 4
ENDMDL
MODEL 5
REMARK VINA RESULT:      -1.2     14.865     14.865
REMARK  4 active torsions:
REMARK  status: ('A' for Active; 'I' for Inactive)
REMARK    1  A    between atoms: C_6  and  S_13 
REMARK    2  A    between atoms: C_8  and  S_9 
REMARK    3  A    between atoms: C_20  and  S_26 
REMARK    4  A    between atoms: C_22  and  O_25 
ROOT
HETATM    1 NA   UNL     2     -27.302  -5.626  -9.148  1.00  0.00     0.000 Na
ENDROOT
TORSDOF 4
ENDMDL
MODEL 6
REMARK VINA RESULT:      -1.2     34.910     34.910
REMARK  4 active torsions:
REMARK  status: ('A' for Active; 'I' for Inactive)
REMARK    1  A    between atoms: C_6  and  S_13 
REMARK    2  A    between atoms: C_8  and  S_9 
REMARK    3  A    between atoms: C_20  and  S_26 
REMARK    4  A    between atoms: C_22  and  O_25 
ROOT
HETATM    1 NA   UNL     2      -9.118   5.886 -17.175  1.00  0.00     0.000 Na
ENDROOT
TORSDOF 4
ENDMDL
MODEL 7
REMARK VINA RESULT:      -1.1     10.385     10.385
REMARK  4 active torsions:
REMARK  status: ('A' for Active; 'I' for Inactive)
REMARK    1  A    between atoms: C_6  and  S_13 
REMARK    2  A    between atoms: C_8  and  S_9 
REMARK    3  A    between atoms: C_20  and  S_26 
REMARK    4  A    between atoms: C_22  and  O_25 
ROOT
HETATM    1 NA   UNL     2     -36.645   0.748   6.029  1.00  0.00     0.000 Na
ENDROOT
TORSDOF 4
ENDMDL
MODEL 8
REMARK VINA RESULT:      -1.1     12.328     12.328
REMARK  4 active torsions:
REMARK  status: ('A' for Active; 'I' for Inactive)
REMARK    1  A    between atoms: C_6  and  S_13 
REMARK    2  A    between atoms: C_8  and  S_9 
REMARK    3  A    between atoms: C_20  and  S_26 
REMARK    4  A    between atoms: C_22  and  O_25 
ROOT
HETATM    1 NA   UNL     2     -25.223  -5.220  -4.974  1.00  0.00     0.000 Na
ENDROOT
TORSDOF 4
ENDMDL
MODEL 9
REMARK VINA RESULT:      -1.0      9.902      9.902
REMARK  4 active torsions:
REMARK  status: ('A' for Active; 'I' for Inactive)
REMARK    1  A    between atoms: C_6  and  S_13 
REMARK    2  A    between atoms: C_8  and  S_9 
REMARK    3  A    between atoms: C_20  and  S_26 
REMARK    4  A    between atoms: C_22  and  O_25 
ROOT
HETATM    1 NA   UNL     2     -32.732  -6.045  -5.036  1.00  0.00     0.000 Na
ENDROOT
TORSDOF 4
ENDMDL
