MODEL 1
REMARK VINA RESULT:      -6.5      0.000      0.000
REMARK WARNING: 32 MAX_TORS EXCEEDED!!!
REMARK  33 active torsions:
REMARK  status: ('A' for Active; 'I' for Inactive)
REMARK    1  A    between atoms: C_2  and  C_3 
REMARK    2  A    between atoms: C_3  and  C_4 
REMARK    3  A    between atoms: C_4  and  C_5 
REMARK    4  A    between atoms: C_5  and  C_6 
REMARK    5  A    between atoms: C_6  and  C_7 
REMARK    6  A    between atoms: C_7  and  C_8 
REMARK    7  A    between atoms: C_8  and  C_9 
REMARK    8  A    between atoms: C_9  and  C_10 
REMARK    9  A    between atoms: C_10  and  O_11 
REMARK   10  A    between atoms: O_11  and  C_12 
REMARK   11  A    between atoms: C_12  and  C_14 
REMARK   12  A    between atoms: C_16  and  C_33 
REMARK   13  A    between atoms: C_17  and  C_20 
REMARK   14  A    between atoms: C_20  and  O_22 
REMARK   15  A    between atoms: O_22  and  C_23 
REMARK   16  A    between atoms: C_23  and  C_24 
REMARK   17  A    between atoms: C_24  and  C_25 
REMARK   18  A    between atoms: C_25  and  C_26 
REMARK   19  A    between atoms: C_26  and  C_27 
REMARK   20  A    between atoms: C_27  and  C_28 
REMARK   21  A    between atoms: C_28  and  C_29 
REMARK   22  A    between atoms: C_29  and  C_30 
REMARK   23  A    between atoms: C_30  and  C_31 
REMARK   24  A    between atoms: C_33  and  O_35 
REMARK   25  A    between atoms: O_35  and  C_36 
REMARK   26  A    between atoms: C_36  and  C_37 
REMARK   27  A    between atoms: C_37  and  C_38 
REMARK   28  A    between atoms: C_38  and  C_39 
REMARK   29  A    between atoms: C_39  and  C_40 
REMARK   30  A    between atoms: C_40  and  C_41 
REMARK   31  A    between atoms: C_41  and  C_42 
REMARK   32  A    between atoms: C_42  and  C_43 
REMARK   33  A    between atoms: C_43  and  C_44 
ROOT
HETATM    1  C   UNL     1     -20.588  -7.666  -4.202  1.00  0.00     0.040 A 
HETATM    2  C   UNL     1     -19.802  -8.382  -5.123  1.00  0.00     0.036 A 
HETATM    3  C   UNL     1     -18.810  -9.311  -4.685  1.00  0.00     0.056 A 
HETATM    4  C   UNL     1     -18.636  -9.566  -3.305  1.00  0.00     0.055 A 
HETATM    5  C   UNL     1     -19.431  -8.831  -2.402  1.00  0.00     0.020 A 
HETATM    6  C   UNL     1     -20.418  -7.925  -2.844  1.00  0.00     0.018 A 
ENDROOT
BRANCH   1   7
HETATM    7  C   UNL     1     -21.552  -6.572  -4.605  1.00  0.00     0.293 C 
HETATM    8  O   UNL     1     -22.352  -6.059  -3.860  1.00  0.00    -0.259 OA
BRANCH   7   9
HETATM    9  O   UNL     1     -21.401  -6.264  -5.927  1.00  0.00    -0.318 OA
BRANCH   9  10
HETATM   10  C   UNL     1     -22.269  -5.204  -6.378  1.00  0.00     0.179 C 
BRANCH  10  11
HETATM   11  C   UNL     1     -21.484  -4.085  -7.044  1.00  0.00     0.027 C 
BRANCH  11  12
HETATM   12  C   UNL     1     -20.042  -4.507  -7.333  1.00  0.00     0.002 C 
BRANCH  12  13
HETATM   13  C   UNL     1     -19.730  -4.400  -8.824  1.00  0.00     0.000 C 
BRANCH  13  14
HETATM   14  C   UNL     1     -21.015  -4.339  -9.643  1.00  0.00     0.000 C 
BRANCH  14  15
HETATM   15  C   UNL     1     -20.708  -3.983 -11.091  1.00  0.00     0.000 C 
BRANCH  15  16
HETATM   16  C   UNL     1     -21.701  -2.949 -11.606  1.00  0.00     0.000 C 
BRANCH  16  17
HETATM   17  C   UNL     1     -23.114  -3.314 -11.175  1.00  0.00    -0.000 C 
BRANCH  17  18
HETATM   18  C   UNL     1     -24.108  -3.028 -12.295  1.00  0.00    -0.005 C 
HETATM   19  C   UNL     1     -23.379  -2.588 -13.551  1.00  0.00     0.005 C 
ENDBRANCH  17  18
ENDBRANCH  16  17
ENDBRANCH  15  16
ENDBRANCH  14  15
ENDBRANCH  13  14
ENDBRANCH  12  13
ENDBRANCH  11  12
ENDBRANCH  10  11
ENDBRANCH   9  10
ENDBRANCH   7   9
ENDBRANCH   1   7
BRANCH   3  20
HETATM   20  C   UNL     1     -17.862  -9.833  -5.702  1.00  0.00     0.294 C 
HETATM   21  O   UNL     1     -16.671  -9.563  -5.667  1.00  0.00    -0.259 OA
BRANCH  20  22
HETATM   22  O   UNL     1     -18.488 -10.549  -6.667  1.00  0.00    -0.317 OA
BRANCH  22  23
HETATM   23  C   UNL     1     -17.957 -11.874  -6.781  1.00  0.00     0.179 C 
BRANCH  23  24
HETATM   24  C   UNL     1     -18.760 -12.705  -7.754  1.00  0.00     0.027 C 
BRANCH  24  25
HETATM   25  C   UNL     1     -19.911 -13.390  -7.030  1.00  0.00     0.002 C 
BRANCH  25  26
HETATM   26  C   UNL     1     -21.203 -12.632  -7.286  1.00  0.00     0.000 C 
BRANCH  26  27
HETATM   27  C   UNL     1     -22.056 -12.597  -6.028  1.00  0.00     0.000 C 
BRANCH  27  28
HETATM   28  C   UNL     1     -21.549 -11.520  -5.085  1.00  0.00     0.000 C 
BRANCH  28  29
HETATM   29  C   UNL     1     -21.463 -12.060  -3.666  1.00  0.00     0.000 C 
BRANCH  29  30
HETATM   30  C   UNL     1     -22.744 -12.796  -3.305  1.00  0.00    -0.000 C 
BRANCH  30  31
HETATM   31  C   UNL     1     -22.436 -14.207  -2.826  1.00  0.00    -0.005 C 
HETATM   32  C   UNL     1     -23.656 -14.824  -2.170  1.00  0.00     0.005 C 
ENDBRANCH  30  31
ENDBRANCH  29  30
ENDBRANCH  28  29
ENDBRANCH  27  28
ENDBRANCH  26  27
ENDBRANCH  25  26
ENDBRANCH  24  25
ENDBRANCH  23  24
ENDBRANCH  22  23
ENDBRANCH  20  22
ENDBRANCH   3  20
BRANCH   4  33
HETATM   33  C   UNL     1     -17.664 -10.553  -2.674  1.00  0.00     0.294 C 
HETATM   34  O   UNL     1     -16.510 -10.279  -2.428  1.00  0.00    -0.259 OA
BRANCH  33  35
HETATM   35  O   UNL     1     -18.286 -11.729  -2.374  1.00  0.00    -0.317 OA
BRANCH  35  36
HETATM   36  C   UNL     1     -18.268 -12.106  -0.974  1.00  0.00     0.179 C 
BRANCH  36  37
HETATM   37  C   UNL     1     -19.674 -12.082  -0.379  1.00  0.00     0.027 C 
BRANCH  37  38
HETATM   38  C   UNL     1     -20.123 -13.492  -0.007  1.00  0.00     0.002 C 
BRANCH  38  39
HETATM   39  C   UNL     1     -21.502 -13.493   0.642  1.00  0.00     0.000 C 
BRANCH  39  40
HETATM   40  C   UNL     1     -22.063 -12.077   0.674  1.00  0.00     0.000 C 
BRANCH  40  41
HETATM   41  C   UNL     1     -23.551 -12.084   0.359  1.00  0.00     0.000 C 
BRANCH  41  42
HETATM   42  C   UNL     1     -23.931 -10.835  -0.422  1.00  0.00     0.000 C 
BRANCH  42  43
HETATM   43  C   UNL     1     -22.719  -9.931  -0.591  1.00  0.00    -0.000 C 
BRANCH  43  44
HETATM   44  C   UNL     1     -22.926  -8.611   0.142  1.00  0.00    -0.005 C 
HETATM   45  C   UNL     1     -21.708  -8.273   0.981  1.00  0.00     0.005 C 
ENDBRANCH  43  44
ENDBRANCH  42  43
ENDBRANCH  41  42
ENDBRANCH  40  41
ENDBRANCH  39  40
ENDBRANCH  38  39
ENDBRANCH  37  38
ENDBRANCH  36  37
ENDBRANCH  35  36
ENDBRANCH  33  35
ENDBRANCH   4  33
TORSDOF 33
ENDMDL
MODEL 2
REMARK VINA RESULT:      -6.4      1.537      5.188
REMARK WARNING: 32 MAX_TORS EXCEEDED!!!
REMARK  33 active torsions:
REMARK  status: ('A' for Active; 'I' for Inactive)
REMARK    1  A    between atoms: C_2  and  C_3 
REMARK    2  A    between atoms: C_3  and  C_4 
REMARK    3  A    between atoms: C_4  and  C_5 
REMARK    4  A    between atoms: C_5  and  C_6 
REMARK    5  A    between atoms: C_6  and  C_7 
REMARK    6  A    between atoms: C_7  and  C_8 
REMARK    7  A    between atoms: C_8  and  C_9 
REMARK    8  A    between atoms: C_9  and  C_10 
REMARK    9  A    between atoms: C_10  and  O_11 
REMARK   10  A    between atoms: O_11  and  C_12 
REMARK   11  A    between atoms: C_12  and  C_14 
REMARK   12  A    between atoms: C_16  and  C_33 
REMARK   13  A    between atoms: C_17  and  C_20 
REMARK   14  A    between atoms: C_20  and  O_22 
REMARK   15  A    between atoms: O_22  and  C_23 
REMARK   16  A    between atoms: C_23  and  C_24 
REMARK   17  A    between atoms: C_24  and  C_25 
REMARK   18  A    between atoms: C_25  and  C_26 
REMARK   19  A    between atoms: C_26  and  C_27 
REMARK   20  A    between atoms: C_27  and  C_28 
REMARK   21  A    between atoms: C_28  and  C_29 
REMARK   22  A    between atoms: C_29  and  C_30 
REMARK   23  A    between atoms: C_30  and  C_31 
REMARK   24  A    between atoms: C_33  and  O_35 
REMARK   25  A    between atoms: O_35  and  C_36 
REMARK   26  A    between atoms: C_36  and  C_37 
REMARK   27  A    between atoms: C_37  and  C_38 
REMARK   28  A    between atoms: C_38  and  C_39 
REMARK   29  A    between atoms: C_39  and  C_40 
REMARK   30  A    between atoms: C_40  and  C_41 
REMARK   31  A    between atoms: C_41  and  C_42 
REMARK   32  A    between atoms: C_42  and  C_43 
REMARK   33  A    between atoms: C_43  and  C_44 
ROOT
HETATM    1  C   UNL     1     -20.850  -8.716  -4.170  1.00  0.00     0.040 A 
HETATM    2  C   UNL     1     -21.214 -10.071  -4.074  1.00  0.00     0.036 A 
HETATM    3  C   UNL     1     -20.464 -10.984  -3.272  1.00  0.00     0.056 A 
HETATM    4  C   UNL     1     -19.362 -10.525  -2.514  1.00  0.00     0.055 A 
HETATM    5  C   UNL     1     -19.013  -9.164  -2.633  1.00  0.00     0.020 A 
HETATM    6  C   UNL     1     -19.768  -8.266  -3.418  1.00  0.00     0.018 A 
ENDROOT
BRANCH   1   7
HETATM    7  C   UNL     1     -21.522  -7.740  -5.110  1.00  0.00     0.293 C 
HETATM    8  O   UNL     1     -22.529  -7.126  -4.850  1.00  0.00    -0.259 OA
BRANCH   7   9
HETATM    9  O   UNL     1     -20.843  -7.667  -6.292  1.00  0.00    -0.318 OA
BRANCH   9  10
HETATM   10  C   UNL     1     -19.791  -6.681  -6.297  1.00  0.00     0.179 C 
BRANCH  10  11
HETATM   11  C   UNL     1     -20.297  -5.321  -5.840  1.00  0.00     0.027 C 
BRANCH  11  12
HETATM   12  C   UNL     1     -20.915  -4.536  -6.999  1.00  0.00     0.002 C 
BRANCH  12  13
HETATM   13  C   UNL     1     -19.936  -4.421  -8.164  1.00  0.00     0.000 C 
BRANCH  13  14
HETATM   14  C   UNL     1     -20.681  -4.268  -9.485  1.00  0.00     0.000 C 
BRANCH  14  15
HETATM   15  C   UNL     1     -22.179  -4.447  -9.277  1.00  0.00     0.000 C 
BRANCH  15  16
HETATM   16  C   UNL     1     -22.882  -4.644 -10.614  1.00  0.00     0.000 C 
BRANCH  16  17
HETATM   17  C   UNL     1     -22.105  -3.954 -11.726  1.00  0.00    -0.000 C 
BRANCH  17  18
HETATM   18  C   UNL     1     -22.794  -2.658 -12.137  1.00  0.00    -0.005 C 
HETATM   19  C   UNL     1     -24.237  -2.923 -12.521  1.00  0.00     0.005 C 
ENDBRANCH  17  18
ENDBRANCH  16  17
ENDBRANCH  15  16
ENDBRANCH  14  15
ENDBRANCH  13  14
ENDBRANCH  12  13
ENDBRANCH  11  12
ENDBRANCH  10  11
ENDBRANCH   9  10
ENDBRANCH   7   9
ENDBRANCH   1   7
BRANCH   3  20
HETATM   20  C   UNL     1     -20.762 -12.432  -3.420  1.00  0.00     0.294 C 
HETATM   21  O   UNL     1     -19.994 -13.188  -3.997  1.00  0.00    -0.259 OA
BRANCH  20  22
HETATM   22  O   UNL     1     -21.977 -12.760  -2.919  1.00  0.00    -0.317 OA
BRANCH  22  23
HETATM   23  C   UNL     1     -21.870 -13.519  -1.709  1.00  0.00     0.179 C 
BRANCH  23  24
HETATM   24  C   UNL     1     -23.162 -14.237  -1.397  1.00  0.00     0.027 C 
BRANCH  24  25
HETATM   25  C   UNL     1     -24.187 -13.255  -0.849  1.00  0.00     0.002 C 
BRANCH  25  26
HETATM   26  C   UNL     1     -23.518 -12.306   0.131  1.00  0.00     0.000 C 
BRANCH  26  27
HETATM   27  C   UNL     1     -24.025 -10.888  -0.071  1.00  0.00     0.000 C 
BRANCH  27  28
HETATM   28  C   UNL     1     -22.974 -10.055  -0.786  1.00  0.00     0.000 C 
BRANCH  28  29
HETATM   29  C   UNL     1     -21.810  -9.763   0.147  1.00  0.00     0.000 C 
BRANCH  29  30
HETATM   30  C   UNL     1     -21.409  -8.300   0.046  1.00  0.00    -0.000 C 
BRANCH  30  31
HETATM   31  C   UNL     1     -22.600  -7.444  -0.361  1.00  0.00    -0.005 C 
HETATM   32  C   UNL     1     -22.199  -6.452  -1.435  1.00  0.00     0.005 C 
ENDBRANCH  30  31
ENDBRANCH  29  30
ENDBRANCH  28  29
ENDBRANCH  27  28
ENDBRANCH  26  27
ENDBRANCH  25  26
ENDBRANCH  24  25
ENDBRANCH  23  24
ENDBRANCH  22  23
ENDBRANCH  20  22
ENDBRANCH   3  20
BRANCH   4  33
HETATM   33  C   UNL     1     -18.490 -11.349  -1.578  1.00  0.00     0.294 C 
HETATM   34  O   UNL     1     -18.771 -11.550  -0.417  1.00  0.00    -0.259 OA
BRANCH  33  35
HETATM   35  O   UNL     1     -17.417 -11.868  -2.240  1.00  0.00    -0.317 OA
BRANCH  35  36
HETATM   36  C   UNL     1     -16.144 -11.228  -1.967  1.00  0.00     0.179 C 
BRANCH  36  37
HETATM   37  C   UNL     1     -15.112 -11.578  -3.037  1.00  0.00     0.027 C 
BRANCH  37  38
HETATM   38  C   UNL     1     -15.709 -11.416  -4.431  1.00  0.00     0.002 C 
BRANCH  38  39
HETATM   39  C   UNL     1     -16.067  -9.965  -4.729  1.00  0.00     0.000 C 
BRANCH  39  40
HETATM   40  C   UNL     1     -17.215  -9.907  -5.730  1.00  0.00     0.000 C 
BRANCH  40  41
HETATM   41  C   UNL     1     -17.889 -11.265  -5.849  1.00  0.00     0.000 C 
BRANCH  41  42
HETATM   42  C   UNL     1     -18.667 -11.356  -7.153  1.00  0.00     0.000 C 
BRANCH  42  43
HETATM   43  C   UNL     1     -19.328 -12.721  -7.278  1.00  0.00    -0.000 C 
BRANCH  43  44
HETATM   44  C   UNL     1     -20.844 -12.591  -7.225  1.00  0.00    -0.005 C 
HETATM   45  C   UNL     1     -21.489 -13.957  -7.086  1.00  0.00     0.005 C 
ENDBRANCH  43  44
ENDBRANCH  42  43
ENDBRANCH  41  42
ENDBRANCH  40  41
ENDBRANCH  39  40
ENDBRANCH  38  39
ENDBRANCH  37  38
ENDBRANCH  36  37
ENDBRANCH  35  36
ENDBRANCH  33  35
ENDBRANCH   4  33
TORSDOF 33
ENDMDL
MODEL 3
REMARK VINA RESULT:      -6.3      1.429      9.223
REMARK WARNING: 32 MAX_TORS EXCEEDED!!!
REMARK  33 active torsions:
REMARK  status: ('A' for Active; 'I' for Inactive)
REMARK    1  A    between atoms: C_2  and  C_3 
REMARK    2  A    between atoms: C_3  and  C_4 
REMARK    3  A    between atoms: C_4  and  C_5 
REMARK    4  A    between atoms: C_5  and  C_6 
REMARK    5  A    between atoms: C_6  and  C_7 
REMARK    6  A    between atoms: C_7  and  C_8 
REMARK    7  A    between atoms: C_8  and  C_9 
REMARK    8  A    between atoms: C_9  and  C_10 
REMARK    9  A    between atoms: C_10  and  O_11 
REMARK   10  A    between atoms: O_11  and  C_12 
REMARK   11  A    between atoms: C_12  and  C_14 
REMARK   12  A    between atoms: C_16  and  C_33 
REMARK   13  A    between atoms: C_17  and  C_20 
REMARK   14  A    between atoms: C_20  and  O_22 
REMARK   15  A    between atoms: O_22  and  C_23 
REMARK   16  A    between atoms: C_23  and  C_24 
REMARK   17  A    between atoms: C_24  and  C_25 
REMARK   18  A    between atoms: C_25  and  C_26 
REMARK   19  A    between atoms: C_26  and  C_27 
REMARK   20  A    between atoms: C_27  and  C_28 
REMARK   21  A    between atoms: C_28  and  C_29 
REMARK   22  A    between atoms: C_29  and  C_30 
REMARK   23  A    between atoms: C_30  and  C_31 
REMARK   24  A    between atoms: C_33  and  O_35 
REMARK   25  A    between atoms: O_35  and  C_36 
REMARK   26  A    between atoms: C_36  and  C_37 
REMARK   27  A    between atoms: C_37  and  C_38 
REMARK   28  A    between atoms: C_38  and  C_39 
REMARK   29  A    between atoms: C_39  and  C_40 
REMARK   30  A    between atoms: C_40  and  C_41 
REMARK   31  A    between atoms: C_41  and  C_42 
REMARK   32  A    between atoms: C_42  and  C_43 
REMARK   33  A    between atoms: C_43  and  C_44 
ROOT
HETATM    1  C   UNL     1     -18.418  -9.821  -4.141  1.00  0.00     0.040 A 
HETATM    2  C   UNL     1     -18.959  -8.839  -4.990  1.00  0.00     0.036 A 
HETATM    3  C   UNL     1     -19.935  -7.909  -4.517  1.00  0.00     0.056 A 
HETATM    4  C   UNL     1     -20.338  -7.930  -3.162  1.00  0.00     0.055 A 
HETATM    5  C   UNL     1     -19.786  -8.928  -2.334  1.00  0.00     0.020 A 
HETATM    6  C   UNL     1     -18.813  -9.834  -2.806  1.00  0.00     0.018 A 
ENDROOT
BRANCH   1   7
HETATM    7  C   UNL     1     -17.489 -10.915  -4.622  1.00  0.00     0.293 C 
HETATM    8  O   UNL     1     -17.342 -11.224  -5.781  1.00  0.00    -0.259 OA
BRANCH   7   9
HETATM    9  O   UNL     1     -16.862 -11.509  -3.566  1.00  0.00    -0.318 OA
BRANCH   9  10
HETATM   10  C   UNL     1     -16.778 -12.945  -3.673  1.00  0.00     0.179 C 
BRANCH  10  11
HETATM   11  C   UNL     1     -17.781 -13.633  -2.760  1.00  0.00     0.027 C 
BRANCH  11  12
HETATM   12  C   UNL     1     -17.760 -13.033  -1.353  1.00  0.00     0.002 C 
BRANCH  12  13
HETATM   13  C   UNL     1     -18.209 -14.059  -0.315  1.00  0.00     0.000 C 
BRANCH  13  14
HETATM   14  C   UNL     1     -19.726 -14.053  -0.168  1.00  0.00     0.000 C 
BRANCH  14  15
HETATM   15  C   UNL     1     -20.250 -12.625  -0.094  1.00  0.00     0.000 C 
BRANCH  15  16
HETATM   16  C   UNL     1     -21.290 -12.496   1.011  1.00  0.00     0.000 C 
BRANCH  16  17
HETATM   17  C   UNL     1     -22.067 -13.796   1.158  1.00  0.00    -0.000 C 
BRANCH  17  18
HETATM   18  C   UNL     1     -23.392 -13.552   1.870  1.00  0.00    -0.005 C 
HETATM   19  C   UNL     1     -23.757 -14.744   2.735  1.00  0.00     0.005 C 
ENDBRANCH  17  18
ENDBRANCH  16  17
ENDBRANCH  15  16
ENDBRANCH  14  15
ENDBRANCH  13  14
ENDBRANCH  12  13
ENDBRANCH  11  12
ENDBRANCH  10  11
ENDBRANCH   9  10
ENDBRANCH   7   9
ENDBRANCH   1   7
BRANCH   3  20
HETATM   20  C   UNL     1     -20.634  -7.075  -5.529  1.00  0.00     0.294 C 
HETATM   21  O   UNL     1     -21.760  -7.347  -5.916  1.00  0.00    -0.259 OA
BRANCH  20  22
HETATM   22  O   UNL     1     -19.854  -6.069  -5.991  1.00  0.00    -0.317 OA
BRANCH  22  23
HETATM   23  C   UNL     1     -20.465  -4.787  -5.802  1.00  0.00     0.179 C 
BRANCH  23  24
HETATM   24  C   UNL     1     -20.743  -4.112  -7.125  1.00  0.00     0.027 C 
BRANCH  24  25
HETATM   25  C   UNL     1     -19.651  -4.458  -8.127  1.00  0.00     0.002 C 
BRANCH  25  26
HETATM   26  C   UNL     1     -20.276  -4.852  -9.455  1.00  0.00     0.000 C 
BRANCH  26  27
HETATM   27  C   UNL     1     -20.457  -3.631 -10.341  1.00  0.00     0.000 C 
BRANCH  27  28
HETATM   28  C   UNL     1     -21.136  -4.026 -11.641  1.00  0.00     0.000 C 
BRANCH  28  29
HETATM   29  C   UNL     1     -22.443  -3.265 -11.805  1.00  0.00     0.000 C 
BRANCH  29  30
HETATM   30  C   UNL     1     -23.618  -4.147 -11.410  1.00  0.00    -0.000 C 
BRANCH  30  31
HETATM   31  C   UNL     1     -24.401  -3.517 -10.267  1.00  0.00    -0.005 C 
HETATM   32  C   UNL     1     -23.923  -4.059  -8.934  1.00  0.00     0.005 C 
ENDBRANCH  30  31
ENDBRANCH  29  30
ENDBRANCH  28  29
ENDBRANCH  27  28
ENDBRANCH  26  27
ENDBRANCH  25  26
ENDBRANCH  24  25
ENDBRANCH  23  24
ENDBRANCH  22  23
ENDBRANCH  20  22
ENDBRANCH   3  20
BRANCH   4  33
HETATM   33  C   UNL     1     -21.325  -6.988  -2.489  1.00  0.00     0.294 C 
HETATM   34  O   UNL     1     -21.318  -5.788  -2.660  1.00  0.00    -0.259 OA
BRANCH  33  35
HETATM   35  O   UNL     1     -22.233  -7.680  -1.744  1.00  0.00    -0.317 OA
BRANCH  35  36
HETATM   36  C   UNL     1     -22.495  -7.147  -0.421  1.00  0.00     0.179 C 
BRANCH  36  37
HETATM   37  C   UNL     1     -23.027  -8.230   0.514  1.00  0.00     0.027 C 
BRANCH  37  38
HETATM   38  C   UNL     1     -22.809  -9.614  -0.089  1.00  0.00     0.002 C 
BRANCH  38  39
HETATM   39  C   UNL     1     -24.071 -10.466  -0.021  1.00  0.00     0.000 C 
BRANCH  39  40
HETATM   40  C   UNL     1     -24.073 -11.483  -1.156  1.00  0.00     0.000 C 
BRANCH  40  41
HETATM   41  C   UNL     1     -23.023 -11.126  -2.196  1.00  0.00     0.000 C 
BRANCH  41  42
HETATM   42  C   UNL     1     -22.590 -12.369  -2.958  1.00  0.00     0.000 C 
BRANCH  42  43
HETATM   43  C   UNL     1     -21.465 -12.030  -3.923  1.00  0.00    -0.000 C 
BRANCH  43  44
HETATM   44  C   UNL     1     -21.881 -12.323  -5.359  1.00  0.00    -0.005 C 
HETATM   45  C   UNL     1     -21.083 -11.470  -6.327  1.00  0.00     0.005 C 
ENDBRANCH  43  44
ENDBRANCH  42  43
ENDBRANCH  41  42
ENDBRANCH  40  41
ENDBRANCH  39  40
ENDBRANCH  38  39
ENDBRANCH  37  38
ENDBRANCH  36  37
ENDBRANCH  35  36
ENDBRANCH  33  35
ENDBRANCH   4  33
TORSDOF 33
ENDMDL
MODEL 4
REMARK VINA RESULT:      -6.1      1.677      3.336
REMARK WARNING: 32 MAX_TORS EXCEEDED!!!
REMARK  33 active torsions:
REMARK  status: ('A' for Active; 'I' for Inactive)
REMARK    1  A    between atoms: C_2  and  C_3 
REMARK    2  A    between atoms: C_3  and  C_4 
REMARK    3  A    between atoms: C_4  and  C_5 
REMARK    4  A    between atoms: C_5  and  C_6 
REMARK    5  A    between atoms: C_6  and  C_7 
REMARK    6  A    between atoms: C_7  and  C_8 
REMARK    7  A    between atoms: C_8  and  C_9 
REMARK    8  A    between atoms: C_9  and  C_10 
REMARK    9  A    between atoms: C_10  and  O_11 
REMARK   10  A    between atoms: O_11  and  C_12 
REMARK   11  A    between atoms: C_12  and  C_14 
REMARK   12  A    between atoms: C_16  and  C_33 
REMARK   13  A    between atoms: C_17  and  C_20 
REMARK   14  A    between atoms: C_20  and  O_22 
REMARK   15  A    between atoms: O_22  and  C_23 
REMARK   16  A    between atoms: C_23  and  C_24 
REMARK   17  A    between atoms: C_24  and  C_25 
REMARK   18  A    between atoms: C_25  and  C_26 
REMARK   19  A    between atoms: C_26  and  C_27 
REMARK   20  A    between atoms: C_27  and  C_28 
REMARK   21  A    between atoms: C_28  and  C_29 
REMARK   22  A    between atoms: C_29  and  C_30 
REMARK   23  A    between atoms: C_30  and  C_31 
REMARK   24  A    between atoms: C_33  and  O_35 
REMARK   25  A    between atoms: O_35  and  C_36 
REMARK   26  A    between atoms: C_36  and  C_37 
REMARK   27  A    between atoms: C_37  and  C_38 
REMARK   28  A    between atoms: C_38  and  C_39 
REMARK   29  A    between atoms: C_39  and  C_40 
REMARK   30  A    between atoms: C_40  and  C_41 
REMARK   31  A    between atoms: C_41  and  C_42 
REMARK   32  A    between atoms: C_42  and  C_43 
REMARK   33  A    between atoms: C_43  and  C_44 
ROOT
HETATM    1  C   UNL     1     -21.225  -8.103  -3.320  1.00  0.00     0.040 A 
HETATM    2  C   UNL     1     -21.697  -9.179  -4.093  1.00  0.00     0.036 A 
HETATM    3  C   UNL     1     -21.128 -10.483  -3.970  1.00  0.00     0.056 A 
HETATM    4  C   UNL     1     -20.106 -10.726  -3.024  1.00  0.00     0.055 A 
HETATM    5  C   UNL     1     -19.646  -9.630  -2.266  1.00  0.00     0.020 A 
HETATM    6  C   UNL     1     -20.223  -8.348  -2.385  1.00  0.00     0.018 A 
ENDROOT
BRANCH   1   7
HETATM    7  C   UNL     1     -21.694  -6.677  -3.508  1.00  0.00     0.293 C 
HETATM    8  O   UNL     1     -21.964  -5.922  -2.604  1.00  0.00    -0.259 OA
BRANCH   7   9
HETATM    9  O   UNL     1     -21.787  -6.374  -4.835  1.00  0.00    -0.318 OA
BRANCH   9  10
HETATM   10  C   UNL     1     -20.812  -5.407  -5.279  1.00  0.00     0.179 C 
BRANCH  10  11
HETATM   11  C   UNL     1     -20.687  -5.396  -6.795  1.00  0.00     0.027 C 
BRANCH  11  12
HETATM   12  C   UNL     1     -20.846  -3.982  -7.359  1.00  0.00     0.002 C 
BRANCH  12  13
HETATM   13  C   UNL     1     -19.940  -3.772  -8.569  1.00  0.00     0.000 C 
BRANCH  13  14
HETATM   14  C   UNL     1     -20.234  -4.804  -9.652  1.00  0.00     0.000 C 
BRANCH  14  15
HETATM   15  C   UNL     1     -20.467  -4.121 -10.992  1.00  0.00     0.000 C 
BRANCH  15  16
HETATM   16  C   UNL     1     -21.829  -3.439 -11.011  1.00  0.00     0.000 C 
BRANCH  16  17
HETATM   17  C   UNL     1     -22.920  -4.447 -11.344  1.00  0.00    -0.000 C 
BRANCH  17  18
HETATM   18  C   UNL     1     -23.803  -4.702 -10.129  1.00  0.00    -0.005 C 
HETATM   19  C   UNL     1     -24.388  -3.400  -9.615  1.00  0.00     0.005 C 
ENDBRANCH  17  18
ENDBRANCH  16  17
ENDBRANCH  15  16
ENDBRANCH  14  15
ENDBRANCH  13  14
ENDBRANCH  12  13
ENDBRANCH  11  12
ENDBRANCH  10  11
ENDBRANCH   9  10
ENDBRANCH   7   9
ENDBRANCH   1   7
BRANCH   3  20
HETATM   20  C   UNL     1     -21.507 -11.496  -4.989  1.00  0.00     0.294 C 
HETATM   21  O   UNL     1     -22.412 -12.293  -4.794  1.00  0.00    -0.259 OA
BRANCH  20  22
HETATM   22  O   UNL     1     -20.697 -11.459  -6.074  1.00  0.00    -0.317 OA
BRANCH  22  23
HETATM   23  C   UNL     1     -21.004 -12.501  -7.007  1.00  0.00     0.179 C 
BRANCH  23  24
HETATM   24  C   UNL     1     -19.788 -12.890  -7.816  1.00  0.00     0.027 C 
BRANCH  24  25
HETATM   25  C   UNL     1     -18.631 -13.232  -6.888  1.00  0.00     0.002 C 
BRANCH  25  26
HETATM   26  C   UNL     1     -17.358 -12.569  -7.386  1.00  0.00     0.000 C 
BRANCH  26  27
HETATM   27  C   UNL     1     -16.826 -11.594  -6.350  1.00  0.00     0.000 C 
BRANCH  27  28
HETATM   28  C   UNL     1     -15.748 -12.260  -5.512  1.00  0.00     0.000 C 
BRANCH  28  29
HETATM   29  C   UNL     1     -15.095 -11.244  -4.588  1.00  0.00     0.000 C 
BRANCH  29  30
HETATM   30  C   UNL     1     -15.129 -11.741  -3.152  1.00  0.00    -0.000 C 
BRANCH  30  31
HETATM   31  C   UNL     1     -15.826 -10.731  -2.251  1.00  0.00    -0.005 C 
HETATM   32  C   UNL     1     -16.111  -9.450  -3.010  1.00  0.00     0.005 C 
ENDBRANCH  30  31
ENDBRANCH  29  30
ENDBRANCH  28  29
ENDBRANCH  27  28
ENDBRANCH  26  27
ENDBRANCH  25  26
ENDBRANCH  24  25
ENDBRANCH  23  24
ENDBRANCH  22  23
ENDBRANCH  20  22
ENDBRANCH   3  20
BRANCH   4  33
HETATM   33  C   UNL     1     -19.428 -12.057  -2.733  1.00  0.00     0.294 C 
HETATM   34  O   UNL     1     -18.571 -12.533  -3.446  1.00  0.00    -0.259 OA
BRANCH  33  35
HETATM   35  O   UNL     1     -19.864 -12.582  -1.553  1.00  0.00    -0.317 OA
BRANCH  35  36
HETATM   36  C   UNL     1     -19.881 -14.030  -1.480  1.00  0.00     0.179 C 
BRANCH  36  37
HETATM   37  C   UNL     1     -21.239 -14.543  -1.008  1.00  0.00     0.027 C 
BRANCH  37  38
HETATM   38  C   UNL     1     -21.534 -14.054   0.407  1.00  0.00     0.002 C 
BRANCH  38  39
HETATM   39  C   UNL     1     -23.032 -13.975   0.677  1.00  0.00     0.000 C 
BRANCH  39  40
HETATM   40  C   UNL     1     -23.475 -12.518   0.730  1.00  0.00     0.000 C 
BRANCH  40  41
HETATM   41  C   UNL     1     -24.084 -12.096  -0.598  1.00  0.00     0.000 C 
BRANCH  41  42
HETATM   42  C   UNL     1     -23.305 -10.932  -1.190  1.00  0.00     0.000 C 
BRANCH  42  43
HETATM   43  C   UNL     1     -22.489 -10.240  -0.108  1.00  0.00    -0.000 C 
BRANCH  43  44
HETATM   44  C   UNL     1     -22.997  -8.823   0.125  1.00  0.00    -0.005 C 
HETATM   45  C   UNL     1     -21.964  -8.007   0.880  1.00  0.00     0.005 C 
ENDBRANCH  43  44
ENDBRANCH  42  43
ENDBRANCH  41  42
ENDBRANCH  40  41
ENDBRANCH  39  40
ENDBRANCH  38  39
ENDBRANCH  37  38
ENDBRANCH  36  37
ENDBRANCH  35  36
ENDBRANCH  33  35
ENDBRANCH   4  33
TORSDOF 33
ENDMDL
MODEL 5
REMARK VINA RESULT:      -6.1      1.834      3.627
REMARK WARNING: 32 MAX_TORS EXCEEDED!!!
REMARK  33 active torsions:
REMARK  status: ('A' for Active; 'I' for Inactive)
REMARK    1  A    between atoms: C_2  and  C_3 
REMARK    2  A    between atoms: C_3  and  C_4 
REMARK    3  A    between atoms: C_4  and  C_5 
REMARK    4  A    between atoms: C_5  and  C_6 
REMARK    5  A    between atoms: C_6  and  C_7 
REMARK    6  A    between atoms: C_7  and  C_8 
REMARK    7  A    between atoms: C_8  and  C_9 
REMARK    8  A    between atoms: C_9  and  C_10 
REMARK    9  A    between atoms: C_10  and  O_11 
REMARK   10  A    between atoms: O_11  and  C_12 
REMARK   11  A    between atoms: C_12  and  C_14 
REMARK   12  A    between atoms: C_16  and  C_33 
REMARK   13  A    between atoms: C_17  and  C_20 
REMARK   14  A    between atoms: C_20  and  O_22 
REMARK   15  A    between atoms: O_22  and  C_23 
REMARK   16  A    between atoms: C_23  and  C_24 
REMARK   17  A    between atoms: C_24  and  C_25 
REMARK   18  A    between atoms: C_25  and  C_26 
REMARK   19  A    between atoms: C_26  and  C_27 
REMARK   20  A    between atoms: C_27  and  C_28 
REMARK   21  A    between atoms: C_28  and  C_29 
REMARK   22  A    between atoms: C_29  and  C_30 
REMARK   23  A    between atoms: C_30  and  C_31 
REMARK   24  A    between atoms: C_33  and  O_35 
REMARK   25  A    between atoms: O_35  and  C_36 
REMARK   26  A    between atoms: C_36  and  C_37 
REMARK   27  A    between atoms: C_37  and  C_38 
REMARK   28  A    between atoms: C_38  and  C_39 
REMARK   29  A    between atoms: C_39  and  C_40 
REMARK   30  A    between atoms: C_40  and  C_41 
REMARK   31  A    between atoms: C_41  and  C_42 
REMARK   32  A    between atoms: C_42  and  C_43 
REMARK   33  A    between atoms: C_43  and  C_44 
ROOT
HETATM    1  C   UNL     1     -21.360  -9.555  -4.908  1.00  0.00     0.040 A 
HETATM    2  C   UNL     1     -20.853 -10.412  -5.900  1.00  0.00     0.036 A 
HETATM    3  C   UNL     1     -21.123 -11.814  -5.876  1.00  0.00     0.056 A 
HETATM    4  C   UNL     1     -21.955 -12.360  -4.871  1.00  0.00     0.055 A 
HETATM    5  C   UNL     1     -22.446 -11.481  -3.884  1.00  0.00     0.020 A 
HETATM    6  C   UNL     1     -22.184 -10.095  -3.924  1.00  0.00     0.018 A 
ENDROOT
BRANCH   1   7
HETATM    7  C   UNL     1     -20.993  -8.091  -4.807  1.00  0.00     0.293 C 
HETATM    8  O   UNL     1     -20.745  -7.519  -3.772  1.00  0.00    -0.259 OA
BRANCH   7   9
HETATM    9  O   UNL     1     -21.000  -7.509  -6.042  1.00  0.00    -0.318 OA
BRANCH   9  10
HETATM   10  C   UNL     1     -21.368  -6.115  -6.024  1.00  0.00     0.179 C 
BRANCH  10  11
HETATM   11  C   UNL     1     -20.216  -5.227  -6.470  1.00  0.00     0.027 C 
BRANCH  11  12
HETATM   12  C   UNL     1     -20.719  -3.983  -7.205  1.00  0.00     0.002 C 
BRANCH  12  13
HETATM   13  C   UNL     1     -19.940  -3.762  -8.499  1.00  0.00     0.000 C 
BRANCH  13  14
HETATM   14  C   UNL     1     -20.398  -4.734  -9.580  1.00  0.00     0.000 C 
BRANCH  14  15
HETATM   15  C   UNL     1     -20.185  -4.134 -10.964  1.00  0.00     0.000 C 
BRANCH  15  16
HETATM   16  C   UNL     1     -21.473  -3.499 -11.471  1.00  0.00     0.000 C 
BRANCH  16  17
HETATM   17  C   UNL     1     -22.671  -4.357 -11.090  1.00  0.00    -0.000 C 
BRANCH  17  18
HETATM   18  C   UNL     1     -23.801  -3.491 -10.546  1.00  0.00    -0.005 C 
HETATM   19  C   UNL     1     -24.006  -3.756  -9.066  1.00  0.00     0.005 C 
ENDBRANCH  17  18
ENDBRANCH  16  17
ENDBRANCH  15  16
ENDBRANCH  14  15
ENDBRANCH  13  14
ENDBRANCH  12  13
ENDBRANCH  11  12
ENDBRANCH  10  11
ENDBRANCH   9  10
ENDBRANCH   7   9
ENDBRANCH   1   7
BRANCH   3  20
HETATM   20  C   UNL     1     -20.352 -12.678  -6.807  1.00  0.00     0.294 C 
HETATM   21  O   UNL     1     -20.823 -13.055  -7.870  1.00  0.00    -0.259 OA
BRANCH  20  22
HETATM   22  O   UNL     1     -19.147 -13.032  -6.300  1.00  0.00    -0.317 OA
BRANCH  22  23
HETATM   23  C   UNL     1     -18.111 -12.968  -7.286  1.00  0.00     0.179 C 
BRANCH  23  24
HETATM   24  C   UNL     1     -16.829 -12.422  -6.701  1.00  0.00     0.027 C 
BRANCH  24  25
HETATM   25  C   UNL     1     -17.066 -11.030  -6.132  1.00  0.00     0.002 C 
BRANCH  25  26
HETATM   26  C   UNL     1     -15.823 -10.555  -5.399  1.00  0.00     0.000 C 
BRANCH  26  27
HETATM   27  C   UNL     1     -16.205  -9.830  -4.119  1.00  0.00     0.000 C 
BRANCH  27  28
HETATM   28  C   UNL     1     -17.714  -9.676  -4.039  1.00  0.00     0.000 C 
BRANCH  28  29
HETATM   29  C   UNL     1     -18.155  -9.555  -2.588  1.00  0.00     0.000 C 
BRANCH  29  30
HETATM   30  C   UNL     1     -18.263 -10.933  -1.955  1.00  0.00    -0.000 C 
BRANCH  30  31
HETATM   31  C   UNL     1     -18.905 -11.919  -2.922  1.00  0.00    -0.005 C 
HETATM   32  C   UNL     1     -18.113 -13.211  -2.968  1.00  0.00     0.005 C 
ENDBRANCH  30  31
ENDBRANCH  29  30
ENDBRANCH  28  29
ENDBRANCH  27  28
ENDBRANCH  26  27
ENDBRANCH  25  26
ENDBRANCH  24  25
ENDBRANCH  23  24
ENDBRANCH  22  23
ENDBRANCH  20  22
ENDBRANCH   3  20
BRANCH   4  33
HETATM   33  C   UNL     1     -22.379 -13.814  -4.727  1.00  0.00     0.294 C 
HETATM   34  O   UNL     1     -23.362 -14.274  -5.266  1.00  0.00    -0.259 OA
BRANCH  33  35
HETATM   35  O   UNL     1     -21.477 -14.516  -3.982  1.00  0.00    -0.317 OA
BRANCH  35  36
HETATM   36  C   UNL     1     -21.696 -14.491  -2.549  1.00  0.00     0.179 C 
BRANCH  36  37
HETATM   37  C   UNL     1     -23.120 -14.919  -2.203  1.00  0.00     0.027 C 
BRANCH  37  38
HETATM   38  C   UNL     1     -23.792 -13.875  -1.315  1.00  0.00     0.002 C 
BRANCH  38  39
HETATM   39  C   UNL     1     -22.771 -13.052  -0.538  1.00  0.00     0.000 C 
BRANCH  39  40
HETATM   40  C   UNL     1     -23.475 -12.231   0.536  1.00  0.00     0.000 C 
BRANCH  40  41
HETATM   41  C   UNL     1     -24.143 -11.011  -0.076  1.00  0.00     0.000 C 
BRANCH  41  42
HETATM   42  C   UNL     1     -23.100  -9.963  -0.436  1.00  0.00     0.000 C 
BRANCH  42  43
HETATM   43  C   UNL     1     -23.313  -8.703   0.390  1.00  0.00    -0.000 C 
BRANCH  43  44
HETATM   44  C   UNL     1     -21.980  -8.047   0.723  1.00  0.00    -0.005 C 
HETATM   45  C   UNL     1     -21.001  -8.224  -0.422  1.00  0.00     0.005 C 
ENDBRANCH  43  44
ENDBRANCH  42  43
ENDBRANCH  41  42
ENDBRANCH  40  41
ENDBRANCH  39  40
ENDBRANCH  38  39
ENDBRANCH  37  38
ENDBRANCH  36  37
ENDBRANCH  35  36
ENDBRANCH  33  35
ENDBRANCH   4  33
TORSDOF 33
ENDMDL
MODEL 6
REMARK VINA RESULT:      -6.1      1.600      8.444
REMARK WARNING: 32 MAX_TORS EXCEEDED!!!
REMARK  33 active torsions:
REMARK  status: ('A' for Active; 'I' for Inactive)
REMARK    1  A    between atoms: C_2  and  C_3 
REMARK    2  A    between atoms: C_3  and  C_4 
REMARK    3  A    between atoms: C_4  and  C_5 
REMARK    4  A    between atoms: C_5  and  C_6 
REMARK    5  A    between atoms: C_6  and  C_7 
REMARK    6  A    between atoms: C_7  and  C_8 
REMARK    7  A    between atoms: C_8  and  C_9 
REMARK    8  A    between atoms: C_9  and  C_10 
REMARK    9  A    between atoms: C_10  and  O_11 
REMARK   10  A    between atoms: O_11  and  C_12 
REMARK   11  A    between atoms: C_12  and  C_14 
REMARK   12  A    between atoms: C_16  and  C_33 
REMARK   13  A    between atoms: C_17  and  C_20 
REMARK   14  A    between atoms: C_20  and  O_22 
REMARK   15  A    between atoms: O_22  and  C_23 
REMARK   16  A    between atoms: C_23  and  C_24 
REMARK   17  A    between atoms: C_24  and  C_25 
REMARK   18  A    between atoms: C_25  and  C_26 
REMARK   19  A    between atoms: C_26  and  C_27 
REMARK   20  A    between atoms: C_27  and  C_28 
REMARK   21  A    between atoms: C_28  and  C_29 
REMARK   22  A    between atoms: C_29  and  C_30 
REMARK   23  A    between atoms: C_30  and  C_31 
REMARK   24  A    between atoms: C_33  and  O_35 
REMARK   25  A    between atoms: O_35  and  C_36 
REMARK   26  A    between atoms: C_36  and  C_37 
REMARK   27  A    between atoms: C_37  and  C_38 
REMARK   28  A    between atoms: C_38  and  C_39 
REMARK   29  A    between atoms: C_39  and  C_40 
REMARK   30  A    between atoms: C_40  and  C_41 
REMARK   31  A    between atoms: C_41  and  C_42 
REMARK   32  A    between atoms: C_42  and  C_43 
REMARK   33  A    between atoms: C_43  and  C_44 
ROOT
HETATM    1  C   UNL     1     -18.146  -9.724  -4.391  1.00  0.00     0.040 A 
HETATM    2  C   UNL     1     -18.919  -8.884  -5.212  1.00  0.00     0.036 A 
HETATM    3  C   UNL     1     -19.940  -8.049  -4.663  1.00  0.00     0.056 A 
HETATM    4  C   UNL     1     -20.156  -8.016  -3.266  1.00  0.00     0.055 A 
HETATM    5  C   UNL     1     -19.373  -8.873  -2.466  1.00  0.00     0.020 A 
HETATM    6  C   UNL     1     -18.358  -9.685  -3.016  1.00  0.00     0.018 A 
ENDROOT
BRANCH   1   7
HETATM    7  C   UNL     1     -17.151 -10.727  -4.932  1.00  0.00     0.293 C 
HETATM    8  O   UNL     1     -15.988 -10.486  -5.150  1.00  0.00    -0.259 OA
BRANCH   7   9
HETATM    9  O   UNL     1     -17.757 -11.930  -5.155  1.00  0.00    -0.318 OA
BRANCH   9  10
HETATM   10  C   UNL     1     -17.074 -13.045  -4.547  1.00  0.00     0.179 C 
BRANCH  10  11
HETATM   11  C   UNL     1     -17.360 -13.129  -3.055  1.00  0.00     0.027 C 
BRANCH  11  12
HETATM   12  C   UNL     1     -18.340 -14.260  -2.736  1.00  0.00     0.002 C 
BRANCH  12  13
HETATM   13  C   UNL     1     -18.955 -14.827  -4.013  1.00  0.00     0.000 C 
BRANCH  13  14
HETATM   14  C   UNL     1     -20.455 -15.038  -3.845  1.00  0.00     0.000 C 
BRANCH  14  15
HETATM   15  C   UNL     1     -20.972 -14.261  -2.641  1.00  0.00     0.000 C 
BRANCH  15  16
HETATM   16  C   UNL     1     -22.054 -13.278  -3.068  1.00  0.00     0.000 C 
BRANCH  16  17
HETATM   17  C   UNL     1     -21.536 -11.850  -2.973  1.00  0.00    -0.000 C 
BRANCH  17  18
HETATM   18  C   UNL     1     -21.982 -11.036  -4.182  1.00  0.00    -0.005 C 
HETATM   19  C   UNL     1     -21.448 -11.651  -5.462  1.00  0.00     0.005 C 
ENDBRANCH  17  18
ENDBRANCH  16  17
ENDBRANCH  15  16
ENDBRANCH  14  15
ENDBRANCH  13  14
ENDBRANCH  12  13
ENDBRANCH  11  12
ENDBRANCH  10  11
ENDBRANCH   9  10
ENDBRANCH   7   9
ENDBRANCH   1   7
BRANCH   3  20
HETATM   20  C   UNL     1     -20.869  -7.386  -5.614  1.00  0.00     0.294 C 
HETATM   21  O   UNL     1     -22.069  -7.616  -5.602  1.00  0.00    -0.259 OA
BRANCH  20  22
HETATM   22  O   UNL     1     -20.218  -6.594  -6.499  1.00  0.00    -0.317 OA
BRANCH  22  23
HETATM   23  C   UNL     1     -20.029  -5.268  -5.992  1.00  0.00     0.179 C 
BRANCH  23  24
HETATM   24  C   UNL     1     -20.201  -4.235  -7.081  1.00  0.00     0.027 C 
BRANCH  24  25
HETATM   25  C   UNL     1     -21.668  -4.126  -7.471  1.00  0.00     0.002 C 
BRANCH  25  26
HETATM   26  C   UNL     1     -21.808  -4.217  -8.981  1.00  0.00     0.000 C 
BRANCH  26  27
HETATM   27  C   UNL     1     -20.457  -4.484  -9.624  1.00  0.00     0.000 C 
BRANCH  27  28
HETATM   28  C   UNL     1     -20.461  -4.002 -11.065  1.00  0.00     0.000 C 
BRANCH  28  29
HETATM   29  C   UNL     1     -21.881  -3.976 -11.608  1.00  0.00     0.000 C 
BRANCH  29  30
HETATM   30  C   UNL     1     -22.233  -2.579 -12.094  1.00  0.00    -0.000 C 
BRANCH  30  31
HETATM   31  C   UNL     1     -23.568  -2.586 -12.826  1.00  0.00    -0.005 C 
HETATM   32  C   UNL     1     -24.168  -3.978 -12.824  1.00  0.00     0.005 C 
ENDBRANCH  30  31
ENDBRANCH  29  30
ENDBRANCH  28  29
ENDBRANCH  27  28
ENDBRANCH  26  27
ENDBRANCH  25  26
ENDBRANCH  24  25
ENDBRANCH  23  24
ENDBRANCH  22  23
ENDBRANCH  20  22
ENDBRANCH   3  20
BRANCH   4  33
HETATM   33  C   UNL     1     -21.163  -7.155  -2.518  1.00  0.00     0.294 C 
HETATM   34  O   UNL     1     -21.240  -5.954  -2.657  1.00  0.00    -0.259 OA
BRANCH  33  35
HETATM   35  O   UNL     1     -21.986  -7.922  -1.746  1.00  0.00    -0.317 OA
BRANCH  35  36
HETATM   36  C   UNL     1     -22.461  -7.297  -0.527  1.00  0.00     0.179 C 
BRANCH  36  37
HETATM   37  C   UNL     1     -23.048  -8.333   0.429  1.00  0.00     0.027 C 
BRANCH  37  38
HETATM   38  C   UNL     1     -22.796  -9.745  -0.090  1.00  0.00     0.002 C 
BRANCH  38  39
HETATM   39  C   UNL     1     -24.067 -10.587  -0.079  1.00  0.00     0.000 C 
BRANCH  39  40
HETATM   40  C   UNL     1     -23.709 -12.068  -0.065  1.00  0.00     0.000 C 
BRANCH  40  41
HETATM   41  C   UNL     1     -22.400 -12.295   0.674  1.00  0.00     0.000 C 
BRANCH  41  42
HETATM   42  C   UNL     1     -22.411 -13.650   1.365  1.00  0.00     0.000 C 
BRANCH  42  43
HETATM   43  C   UNL     1     -23.713 -13.839   2.130  1.00  0.00    -0.000 C 
BRANCH  43  44
HETATM   44  C   UNL     1     -23.540 -14.870   3.239  1.00  0.00    -0.005 C 
HETATM   45  C   UNL     1     -22.073 -15.027   3.592  1.00  0.00     0.005 C 
ENDBRANCH  43  44
ENDBRANCH  42  43
ENDBRANCH  41  42
ENDBRANCH  40  41
ENDBRANCH  39  40
ENDBRANCH  38  39
ENDBRANCH  37  38
ENDBRANCH  36  37
ENDBRANCH  35  36
ENDBRANCH  33  35
ENDBRANCH   4  33
TORSDOF 33
ENDMDL
MODEL 7
REMARK VINA RESULT:      -5.9      1.470      7.877
REMARK WARNING: 32 MAX_TORS EXCEEDED!!!
REMARK  33 active torsions:
REMARK  status: ('A' for Active; 'I' for Inactive)
REMARK    1  A    between atoms: C_2  and  C_3 
REMARK    2  A    between atoms: C_3  and  C_4 
REMARK    3  A    between atoms: C_4  and  C_5 
REMARK    4  A    between atoms: C_5  and  C_6 
REMARK    5  A    between atoms: C_6  and  C_7 
REMARK    6  A    between atoms: C_7  and  C_8 
REMARK    7  A    between atoms: C_8  and  C_9 
REMARK    8  A    between atoms: C_9  and  C_10 
REMARK    9  A    between atoms: C_10  and  O_11 
REMARK   10  A    between atoms: O_11  and  C_12 
REMARK   11  A    between atoms: C_12  and  C_14 
REMARK   12  A    between atoms: C_16  and  C_33 
REMARK   13  A    between atoms: C_17  and  C_20 
REMARK   14  A    between atoms: C_20  and  O_22 
REMARK   15  A    between atoms: O_22  and  C_23 
REMARK   16  A    between atoms: C_23  and  C_24 
REMARK   17  A    between atoms: C_24  and  C_25 
REMARK   18  A    between atoms: C_25  and  C_26 
REMARK   19  A    between atoms: C_26  and  C_27 
REMARK   20  A    between atoms: C_27  and  C_28 
REMARK   21  A    between atoms: C_28  and  C_29 
REMARK   22  A    between atoms: C_29  and  C_30 
REMARK   23  A    between atoms: C_30  and  C_31 
REMARK   24  A    between atoms: C_33  and  O_35 
REMARK   25  A    between atoms: O_35  and  C_36 
REMARK   26  A    between atoms: C_36  and  C_37 
REMARK   27  A    between atoms: C_37  and  C_38 
REMARK   28  A    between atoms: C_38  and  C_39 
REMARK   29  A    between atoms: C_39  and  C_40 
REMARK   30  A    between atoms: C_40  and  C_41 
REMARK   31  A    between atoms: C_41  and  C_42 
REMARK   32  A    between atoms: C_42  and  C_43 
REMARK   33  A    between atoms: C_43  and  C_44 
ROOT
HETATM    1  C   UNL     1     -17.742  -9.785  -4.372  1.00  0.00     0.040 A 
HETATM    2  C   UNL     1     -18.733  -9.084  -5.081  1.00  0.00     0.036 A 
HETATM    3  C   UNL     1     -19.867  -8.528  -4.414  1.00  0.00     0.056 A 
HETATM    4  C   UNL     1     -19.985  -8.630  -3.009  1.00  0.00     0.055 A 
HETATM    5  C   UNL     1     -18.982  -9.344  -2.321  1.00  0.00     0.020 A 
HETATM    6  C   UNL     1     -17.859  -9.879  -2.987  1.00  0.00     0.018 A 
ENDROOT
BRANCH   1   7
HETATM    7  C   UNL     1     -16.597 -10.512  -5.043  1.00  0.00     0.293 C 
HETATM    8  O   UNL     1     -15.930 -10.053  -5.939  1.00  0.00    -0.259 OA
BRANCH   7   9
HETATM    9  O   UNL     1     -16.440 -11.757  -4.506  1.00  0.00    -0.318 OA
BRANCH   9  10
HETATM   10  C   UNL     1     -16.969 -12.815  -5.331  1.00  0.00     0.179 C 
BRANCH  10  11
HETATM   11  C   UNL     1     -18.280 -13.352  -4.778  1.00  0.00     0.027 C 
BRANCH  11  12
HETATM   12  C   UNL     1     -18.554 -14.775  -5.270  1.00  0.00     0.002 C 
BRANCH  12  13
HETATM   13  C   UNL     1     -19.291 -14.757  -6.607  1.00  0.00     0.000 C 
BRANCH  13  14
HETATM   14  C   UNL     1     -20.734 -15.219  -6.436  1.00  0.00     0.000 C 
BRANCH  14  15
HETATM   15  C   UNL     1     -21.700 -14.116  -6.848  1.00  0.00     0.000 C 
BRANCH  15  16
HETATM   16  C   UNL     1     -20.935 -12.861  -7.247  1.00  0.00     0.000 C 
BRANCH  16  17
HETATM   17  C   UNL     1     -21.338 -11.692  -6.361  1.00  0.00    -0.000 C 
BRANCH  17  18
HETATM   18  C   UNL     1     -22.170 -12.176  -5.179  1.00  0.00    -0.005 C 
HETATM   19  C   UNL     1     -21.467 -11.860  -3.872  1.00  0.00     0.005 C 
ENDBRANCH  17  18
ENDBRANCH  16  17
ENDBRANCH  15  16
ENDBRANCH  14  15
ENDBRANCH  13  14
ENDBRANCH  12  13
ENDBRANCH  11  12
ENDBRANCH  10  11
ENDBRANCH   9  10
ENDBRANCH   7   9
ENDBRANCH   1   7
BRANCH   3  20
HETATM   20  C   UNL     1     -20.982  -8.027  -5.258  1.00  0.00     0.294 C 
HETATM   21  O   UNL     1     -22.063  -8.595  -5.296  1.00  0.00    -0.259 OA
BRANCH  20  22
HETATM   22  O   UNL     1     -20.621  -6.951  -5.999  1.00  0.00    -0.317 OA
BRANCH  22  23
HETATM   23  C   UNL     1     -20.934  -5.719  -5.340  1.00  0.00     0.179 C 
BRANCH  23  24
HETATM   24  C   UNL     1     -20.216  -4.555  -5.983  1.00  0.00     0.027 C 
BRANCH  24  25
HETATM   25  C   UNL     1     -19.504  -5.016  -7.247  1.00  0.00     0.002 C 
BRANCH  25  26
HETATM   26  C   UNL     1     -19.774  -4.035  -8.376  1.00  0.00     0.000 C 
BRANCH  26  27
HETATM   27  C   UNL     1     -20.531  -4.718  -9.504  1.00  0.00     0.000 C 
BRANCH  27  28
HETATM   28  C   UNL     1     -20.294  -3.982 -10.811  1.00  0.00     0.000 C 
BRANCH  28  29
HETATM   29  C   UNL     1     -21.618  -3.694 -11.501  1.00  0.00     0.000 C 
BRANCH  29  30
HETATM   30  C   UNL     1     -22.777  -4.137 -10.621  1.00  0.00    -0.000 C 
BRANCH  30  31
HETATM   31  C   UNL     1     -24.021  -3.311 -10.916  1.00  0.00    -0.005 C 
HETATM   32  C   UNL     1     -24.932  -3.271  -9.704  1.00  0.00     0.005 C 
ENDBRANCH  30  31
ENDBRANCH  29  30
ENDBRANCH  28  29
ENDBRANCH  27  28
ENDBRANCH  26  27
ENDBRANCH  25  26
ENDBRANCH  24  25
ENDBRANCH  23  24
ENDBRANCH  22  23
ENDBRANCH  20  22
ENDBRANCH   3  20
BRANCH   4  33
HETATM   33  C   UNL     1     -21.097  -8.058  -2.142  1.00  0.00     0.294 C 
HETATM   34  O   UNL     1     -21.326  -6.871  -2.056  1.00  0.00    -0.259 OA
BRANCH  33  35
HETATM   35  O   UNL     1     -21.819  -9.053  -1.550  1.00  0.00    -0.317 OA
BRANCH  35  36
HETATM   36  C   UNL     1     -22.344  -8.747  -0.234  1.00  0.00     0.179 C 
BRANCH  36  37
HETATM   37  C   UNL     1     -23.544  -9.630   0.099  1.00  0.00     0.027 C 
BRANCH  37  38
HETATM   38  C   UNL     1     -23.666 -10.770  -0.907  1.00  0.00     0.002 C 
BRANCH  38  39
HETATM   39  C   UNL     1     -23.719 -12.129  -0.218  1.00  0.00     0.000 C 
BRANCH  39  40
HETATM   40  C   UNL     1     -22.371 -12.828  -0.345  1.00  0.00     0.000 C 
BRANCH  40  41
HETATM   41  C   UNL     1     -21.465 -12.458   0.819  1.00  0.00     0.000 C 
BRANCH  41  42
HETATM   42  C   UNL     1     -20.240 -11.709   0.317  1.00  0.00     0.000 C 
BRANCH  42  43
HETATM   43  C   UNL     1     -19.487 -12.553  -0.701  1.00  0.00    -0.000 C 
BRANCH  43  44
HETATM   44  C   UNL     1     -18.215 -13.126  -0.089  1.00  0.00    -0.005 C 
HETATM   45  C   UNL     1     -17.114 -12.082  -0.080  1.00  0.00     0.005 C 
ENDBRANCH  43  44
ENDBRANCH  42  43
ENDBRANCH  41  42
ENDBRANCH  40  41
ENDBRANCH  39  40
ENDBRANCH  38  39
ENDBRANCH  37  38
ENDBRANCH  36  37
ENDBRANCH  35  36
ENDBRANCH  33  35
ENDBRANCH   4  33
TORSDOF 33
ENDMDL
MODEL 8
REMARK VINA RESULT:      -5.9      2.375      6.586
REMARK WARNING: 32 MAX_TORS EXCEEDED!!!
REMARK  33 active torsions:
REMARK  status: ('A' for Active; 'I' for Inactive)
REMARK    1  A    between atoms: C_2  and  C_3 
REMARK    2  A    between atoms: C_3  and  C_4 
REMARK    3  A    between atoms: C_4  and  C_5 
REMARK    4  A    between atoms: C_5  and  C_6 
REMARK    5  A    between atoms: C_6  and  C_7 
REMARK    6  A    between atoms: C_7  and  C_8 
REMARK    7  A    between atoms: C_8  and  C_9 
REMARK    8  A    between atoms: C_9  and  C_10 
REMARK    9  A    between atoms: C_10  and  O_11 
REMARK   10  A    between atoms: O_11  and  C_12 
REMARK   11  A    between atoms: C_12  and  C_14 
REMARK   12  A    between atoms: C_16  and  C_33 
REMARK   13  A    between atoms: C_17  and  C_20 
REMARK   14  A    between atoms: C_20  and  O_22 
REMARK   15  A    between atoms: O_22  and  C_23 
REMARK   16  A    between atoms: C_23  and  C_24 
REMARK   17  A    between atoms: C_24  and  C_25 
REMARK   18  A    between atoms: C_25  and  C_26 
REMARK   19  A    between atoms: C_26  and  C_27 
REMARK   20  A    between atoms: C_27  and  C_28 
REMARK   21  A    between atoms: C_28  and  C_29 
REMARK   22  A    between atoms: C_29  and  C_30 
REMARK   23  A    between atoms: C_30  and  C_31 
REMARK   24  A    between atoms: C_33  and  O_35 
REMARK   25  A    between atoms: O_35  and  C_36 
REMARK   26  A    between atoms: C_36  and  C_37 
REMARK   27  A    between atoms: C_37  and  C_38 
REMARK   28  A    between atoms: C_38  and  C_39 
REMARK   29  A    between atoms: C_39  and  C_40 
REMARK   30  A    between atoms: C_40  and  C_41 
REMARK   31  A    between atoms: C_41  and  C_42 
REMARK   32  A    between atoms: C_42  and  C_43 
REMARK   33  A    between atoms: C_43  and  C_44 
ROOT
HETATM    1  C   UNL     1     -22.268  -9.475  -0.239  1.00  0.00     0.040 A 
HETATM    2  C   UNL     1     -21.077 -10.146  -0.572  1.00  0.00     0.036 A 
HETATM    3  C   UNL     1     -21.093 -11.502  -1.022  1.00  0.00     0.056 A 
HETATM    4  C   UNL     1     -22.323 -12.180  -1.190  1.00  0.00     0.055 A 
HETATM    5  C   UNL     1     -23.501 -11.488  -0.843  1.00  0.00     0.020 A 
HETATM    6  C   UNL     1     -23.476 -10.145  -0.411  1.00  0.00     0.018 A 
ENDROOT
BRANCH   1   7
HETATM    7  C   UNL     1     -22.298  -8.092   0.373  1.00  0.00     0.293 C 
HETATM    8  O   UNL     1     -21.849  -7.816   1.460  1.00  0.00    -0.259 OA
BRANCH   7   9
HETATM    9  O   UNL     1     -22.918  -7.211  -0.466  1.00  0.00    -0.318 OA
BRANCH   9  10
HETATM   10  C   UNL     1     -22.007  -6.348  -1.177  1.00  0.00     0.179 C 
BRANCH  10  11
HETATM   11  C   UNL     1     -22.145  -6.509  -2.683  1.00  0.00     0.027 C 
BRANCH  11  12
HETATM   12  C   UNL     1     -21.108  -7.489  -3.238  1.00  0.00     0.002 C 
BRANCH  12  13
HETATM   13  C   UNL     1     -21.579  -8.091  -4.559  1.00  0.00     0.000 C 
BRANCH  13  14
HETATM   14  C   UNL     1     -21.573  -7.041  -5.665  1.00  0.00     0.000 C 
BRANCH  14  15
HETATM   15  C   UNL     1     -20.155  -6.559  -5.937  1.00  0.00     0.000 C 
BRANCH  15  16
HETATM   16  C   UNL     1     -20.076  -5.044  -5.812  1.00  0.00     0.000 C 
BRANCH  16  17
HETATM   17  C   UNL     1     -20.158  -4.395  -7.186  1.00  0.00    -0.000 C 
BRANCH  17  18
HETATM   18  C   UNL     1     -21.492  -3.680  -7.363  1.00  0.00    -0.005 C 
HETATM   19  C   UNL     1     -22.249  -4.255  -8.546  1.00  0.00     0.005 C 
ENDBRANCH  17  18
ENDBRANCH  16  17
ENDBRANCH  15  16
ENDBRANCH  14  15
ENDBRANCH  13  14
ENDBRANCH  12  13
ENDBRANCH  11  12
ENDBRANCH  10  11
ENDBRANCH   9  10
ENDBRANCH   7   9
ENDBRANCH   1   7
BRANCH   3  20
HETATM   20  C   UNL     1     -19.790 -12.210  -1.113  1.00  0.00     0.294 C 
HETATM   21  O   UNL     1     -19.392 -12.686  -2.165  1.00  0.00    -0.259 OA
BRANCH  20  22
HETATM   22  O   UNL     1     -19.179 -12.314   0.092  1.00  0.00    -0.317 OA
BRANCH  22  23
HETATM   23  C   UNL     1     -17.877 -12.901  -0.018  1.00  0.00     0.179 C 
BRANCH  23  24
HETATM   24  C   UNL     1     -16.805 -11.952   0.466  1.00  0.00     0.027 C 
BRANCH  24  25
HETATM   25  C   UNL     1     -15.592 -12.023  -0.450  1.00  0.00     0.002 C 
BRANCH  25  26
HETATM   26  C   UNL     1     -16.011 -12.523  -1.822  1.00  0.00     0.000 C 
BRANCH  26  27
HETATM   27  C   UNL     1     -15.690 -11.486  -2.886  1.00  0.00     0.000 C 
BRANCH  27  28
HETATM   28  C   UNL     1     -15.962 -10.090  -2.352  1.00  0.00     0.000 C 
BRANCH  28  29
HETATM   29  C   UNL     1     -17.080  -9.431  -3.144  1.00  0.00     0.000 C 
BRANCH  29  30
HETATM   30  C   UNL     1     -17.849 -10.476  -3.938  1.00  0.00    -0.000 C 
BRANCH  30  31
HETATM   31  C   UNL     1     -18.495  -9.850  -5.165  1.00  0.00    -0.005 C 
HETATM   32  C   UNL     1     -17.438  -9.441  -6.172  1.00  0.00     0.005 C 
ENDBRANCH  30  31
ENDBRANCH  29  30
ENDBRANCH  28  29
ENDBRANCH  27  28
ENDBRANCH  26  27
ENDBRANCH  25  26
ENDBRANCH  24  25
ENDBRANCH  23  24
ENDBRANCH  22  23
ENDBRANCH  20  22
ENDBRANCH   3  20
BRANCH   4  33
HETATM   33  C   UNL     1     -22.520 -13.600  -1.701  1.00  0.00     0.294 C 
HETATM   34  O   UNL     1     -22.285 -14.583  -1.032  1.00  0.00    -0.259 OA
BRANCH  33  35
HETATM   35  O   UNL     1     -23.049 -13.599  -2.958  1.00  0.00    -0.317 OA
BRANCH  35  36
HETATM   36  C   UNL     1     -22.115 -13.317  -4.030  1.00  0.00     0.179 C 
BRANCH  36  37
HETATM   37  C   UNL     1     -22.373 -11.941  -4.639  1.00  0.00     0.027 C 
BRANCH  37  38
HETATM   38  C   UNL     1     -21.665 -11.807  -5.983  1.00  0.00     0.002 C 
BRANCH  38  39
HETATM   39  C   UNL     1     -20.560 -12.845  -6.146  1.00  0.00     0.000 C 
BRANCH  39  40
HETATM   40  C   UNL     1     -20.778 -13.639  -7.428  1.00  0.00     0.000 C 
BRANCH  40  41
HETATM   41  C   UNL     1     -19.742 -13.258  -8.474  1.00  0.00     0.000 C 
BRANCH  41  42
HETATM   42  C   UNL     1     -18.606 -12.476  -7.832  1.00  0.00     0.000 C 
BRANCH  42  43
HETATM   43  C   UNL     1     -17.329 -13.302  -7.837  1.00  0.00    -0.000 C 
BRANCH  43  44
HETATM   44  C   UNL     1     -16.460 -12.956  -6.635  1.00  0.00    -0.005 C 
HETATM   45  C   UNL     1     -16.882 -13.767  -5.425  1.00  0.00     0.005 C 
ENDBRANCH  43  44
ENDBRANCH  42  43
ENDBRANCH  41  42
ENDBRANCH  40  41
ENDBRANCH  39  40
ENDBRANCH  38  39
ENDBRANCH  37  38
ENDBRANCH  36  37
ENDBRANCH  35  36
ENDBRANCH  33  35
ENDBRANCH   4  33
TORSDOF 33
ENDMDL
MODEL 9
REMARK VINA RESULT:      -5.8      2.524      5.791
REMARK WARNING: 32 MAX_TORS EXCEEDED!!!
REMARK  33 active torsions:
REMARK  status: ('A' for Active; 'I' for Inactive)
REMARK    1  A    between atoms: C_2  and  C_3 
REMARK    2  A    between atoms: C_3  and  C_4 
REMARK    3  A    between atoms: C_4  and  C_5 
REMARK    4  A    between atoms: C_5  and  C_6 
REMARK    5  A    between atoms: C_6  and  C_7 
REMARK    6  A    between atoms: C_7  and  C_8 
REMARK    7  A    between atoms: C_8  and  C_9 
REMARK    8  A    between atoms: C_9  and  C_10 
REMARK    9  A    between atoms: C_10  and  O_11 
REMARK   10  A    between atoms: O_11  and  C_12 
REMARK   11  A    between atoms: C_12  and  C_14 
REMARK   12  A    between atoms: C_16  and  C_33 
REMARK   13  A    between atoms: C_17  and  C_20 
REMARK   14  A    between atoms: C_20  and  O_22 
REMARK   15  A    between atoms: O_22  and  C_23 
REMARK   16  A    between atoms: C_23  and  C_24 
REMARK   17  A    between atoms: C_24  and  C_25 
REMARK   18  A    between atoms: C_25  and  C_26 
REMARK   19  A    between atoms: C_26  and  C_27 
REMARK   20  A    between atoms: C_27  and  C_28 
REMARK   21  A    between atoms: C_28  and  C_29 
REMARK   22  A    between atoms: C_29  and  C_30 
REMARK   23  A    between atoms: C_30  and  C_31 
REMARK   24  A    between atoms: C_33  and  O_35 
REMARK   25  A    between atoms: O_35  and  C_36 
REMARK   26  A    between atoms: C_36  and  C_37 
REMARK   27  A    between atoms: C_37  and  C_38 
REMARK   28  A    between atoms: C_38  and  C_39 
REMARK   29  A    between atoms: C_39  and  C_40 
REMARK   30  A    between atoms: C_40  and  C_41 
REMARK   31  A    between atoms: C_41  and  C_42 
REMARK   32  A    between atoms: C_42  and  C_43 
REMARK   33  A    between atoms: C_43  and  C_44 
ROOT
HETATM    1  C   UNL     1     -21.988  -9.159  -0.630  1.00  0.00     0.040 A 
HETATM    2  C   UNL     1     -20.747  -9.793  -0.821  1.00  0.00     0.036 A 
HETATM    3  C   UNL     1     -20.572 -11.180  -0.528  1.00  0.00     0.056 A 
HETATM    4  C   UNL     1     -21.668 -11.957  -0.087  1.00  0.00     0.055 A 
HETATM    5  C   UNL     1     -22.900 -11.296   0.103  1.00  0.00     0.020 A 
HETATM    6  C   UNL     1     -23.066  -9.928  -0.201  1.00  0.00     0.018 A 
ENDROOT
BRANCH   1   7
HETATM    7  C   UNL     1     -22.192  -7.668  -0.791  1.00  0.00     0.293 C 
HETATM    8  O   UNL     1     -23.062  -7.036  -0.241  1.00  0.00    -0.259 OA
BRANCH   7   9
HETATM    9  O   UNL     1     -21.271  -7.149  -1.654  1.00  0.00    -0.318 OA
BRANCH   9  10
HETATM   10  C   UNL     1     -21.851  -6.373  -2.723  1.00  0.00     0.179 C 
BRANCH  10  11
HETATM   11  C   UNL     1     -21.067  -6.530  -4.016  1.00  0.00     0.027 C 
BRANCH  11  12
HETATM   12  C   UNL     1     -21.993  -6.557  -5.233  1.00  0.00     0.002 C 
BRANCH  12  13
HETATM   13  C   UNL     1     -21.739  -5.355  -6.139  1.00  0.00     0.000 C 
BRANCH  13  14
HETATM   14  C   UNL     1     -20.364  -4.755  -5.870  1.00  0.00     0.000 C 
BRANCH  14  15
HETATM   15  C   UNL     1     -19.465  -4.913  -7.089  1.00  0.00     0.000 C 
BRANCH  15  16
HETATM   16  C   UNL     1     -19.880  -3.941  -8.186  1.00  0.00     0.000 C 
BRANCH  16  17
HETATM   17  C   UNL     1     -20.141  -4.690  -9.484  1.00  0.00    -0.000 C 
BRANCH  17  18
HETATM   18  C   UNL     1     -21.261  -4.022 -10.273  1.00  0.00    -0.005 C 
HETATM   19  C   UNL     1     -22.445  -3.731  -9.370  1.00  0.00     0.005 C 
ENDBRANCH  17  18
ENDBRANCH  16  17
ENDBRANCH  15  16
ENDBRANCH  14  15
ENDBRANCH  13  14
ENDBRANCH  12  13
ENDBRANCH  11  12
ENDBRANCH  10  11
ENDBRANCH   9  10
ENDBRANCH   7   9
ENDBRANCH   1   7
BRANCH   3  20
HETATM   20  C   UNL     1     -19.184 -11.709  -0.517  1.00  0.00     0.294 C 
HETATM   21  O   UNL     1     -18.539 -11.794   0.517  1.00  0.00    -0.259 OA
BRANCH  20  22
HETATM   22  O   UNL     1     -18.735 -11.995  -1.763  1.00  0.00    -0.317 OA
BRANCH  22  23
HETATM   23  C   UNL     1     -17.348 -11.673  -1.919  1.00  0.00     0.179 C 
BRANCH  23  24
HETATM   24  C   UNL     1     -17.165 -10.241  -2.368  1.00  0.00     0.027 C 
BRANCH  24  25
HETATM   25  C   UNL     1     -15.898 -10.113  -3.201  1.00  0.00     0.002 C 
BRANCH  25  26
HETATM   26  C   UNL     1     -15.343 -11.494  -3.510  1.00  0.00     0.000 C 
BRANCH  26  27
HETATM   27  C   UNL     1     -14.873 -11.566  -4.954  1.00  0.00     0.000 C 
BRANCH  27  28
HETATM   28  C   UNL     1     -13.493 -12.198  -5.021  1.00  0.00     0.000 C 
BRANCH  28  29
HETATM   29  C   UNL     1     -13.591 -13.625  -5.537  1.00  0.00     0.000 C 
BRANCH  29  30
HETATM   30  C   UNL     1     -13.549 -14.608  -4.378  1.00  0.00    -0.000 C 
BRANCH  30  31
HETATM   31  C   UNL     1     -12.751 -14.034  -3.216  1.00  0.00    -0.005 C 
HETATM   32  C   UNL     1     -13.460 -14.297  -1.902  1.00  0.00     0.005 C 
ENDBRANCH  30  31
ENDBRANCH  29  30
ENDBRANCH  28  29
ENDBRANCH  27  28
ENDBRANCH  26  27
ENDBRANCH  25  26
ENDBRANCH  24  25
ENDBRANCH  23  24
ENDBRANCH  22  23
ENDBRANCH  20  22
ENDBRANCH   3  20
BRANCH   4  33
HETATM   33  C   UNL     1     -21.666 -13.446   0.223  1.00  0.00     0.294 C 
HETATM   34  O   UNL     1     -21.846 -13.892   1.335  1.00  0.00    -0.259 OA
BRANCH  33  35
HETATM   35  O   UNL     1     -21.508 -14.182  -0.915  1.00  0.00    -0.317 OA
BRANCH  35  36
HETATM   36  C   UNL     1     -22.731 -14.674  -1.517  1.00  0.00     0.179 C 
BRANCH  36  37
HETATM   37  C   UNL     1     -23.042 -13.932  -2.816  1.00  0.00     0.027 C 
BRANCH  37  38
HETATM   38  C   UNL     1     -21.828 -13.939  -3.740  1.00  0.00     0.002 C 
BRANCH  38  39
HETATM   39  C   UNL     1     -21.772 -12.687  -4.608  1.00  0.00     0.000 C 
BRANCH  39  40
HETATM   40  C   UNL     1     -22.413 -11.516  -3.874  1.00  0.00     0.000 C 
BRANCH  40  41
HETATM   41  C   UNL     1     -21.674 -10.223  -4.182  1.00  0.00     0.000 C 
BRANCH  41  42
HETATM   42  C   UNL     1     -20.551 -10.482  -5.175  1.00  0.00     0.000 C 
BRANCH  42  43
HETATM   43  C   UNL     1     -19.483  -9.404  -5.054  1.00  0.00    -0.000 C 
BRANCH  43  44
HETATM   44  C   UNL     1     -18.237  -9.791  -5.840  1.00  0.00    -0.005 C 
HETATM   45  C   UNL     1     -18.359 -11.211  -6.362  1.00  0.00     0.005 C 
ENDBRANCH  43  44
ENDBRANCH  42  43
ENDBRANCH  41  42
ENDBRANCH  40  41
ENDBRANCH  39  40
ENDBRANCH  38  39
ENDBRANCH  37  38
ENDBRANCH  36  37
ENDBRANCH  35  36
ENDBRANCH  33  35
ENDBRANCH   4  33
TORSDOF 33
ENDMDL
