MODEL 1
REMARK VINA RESULT:      -4.7      0.000      0.000
REMARK  0 active torsions:
REMARK  status: ('A' for Active; 'I' for Inactive)
ROOT
HETATM    1  C   UNL     1     -21.955  -3.806 -10.842  1.00  0.00     0.042 C 
HETATM    2  C   UNL     1     -22.750  -2.885 -11.746  1.00  0.00     0.154 C 
HETATM    3  C   UNL     1     -24.216  -3.194 -11.781  1.00  0.00     0.213 C 
HETATM    4  O   UNL     1     -24.597  -2.734 -13.066  1.00  0.00    -0.296 OA
HETATM    5  C   UNL     1     -23.479  -2.793 -13.850  1.00  0.00     0.406 C 
HETATM    6  O   UNL     1     -23.475  -2.634 -15.059  1.00  0.00    -0.229 OA
HETATM    7  O   UNL     1     -22.367  -3.058 -13.100  1.00  0.00    -0.291 OA
ENDROOT
TORSDOF 0
ENDMDL
MODEL 2
REMARK VINA RESULT:      -4.6     15.725     16.481
REMARK  0 active torsions:
REMARK  status: ('A' for Active; 'I' for Inactive)
ROOT
HETATM    1  C   UNL     1     -31.735 -15.689 -22.888  1.00  0.00     0.042 C 
HETATM    2  C   UNL     1     -30.622 -15.275 -21.946  1.00  0.00     0.154 C 
HETATM    3  C   UNL     1     -30.194 -16.359 -21.005  1.00  0.00     0.213 C 
HETATM    4  O   UNL     1     -29.714 -15.628 -19.890  1.00  0.00    -0.296 OA
HETATM    5  C   UNL     1     -30.363 -14.425 -19.902  1.00  0.00     0.406 C 
HETATM    6  O   UNL     1     -30.323 -13.611 -18.995  1.00  0.00    -0.229 OA
HETATM    7  O   UNL     1     -31.066 -14.258 -21.063  1.00  0.00    -0.291 OA
ENDROOT
TORSDOF 0
ENDMDL
MODEL 3
REMARK VINA RESULT:      -4.6      1.875      2.821
REMARK  0 active torsions:
REMARK  status: ('A' for Active; 'I' for Inactive)
ROOT
HETATM    1  C   UNL     1     -20.982  -3.467 -11.233  1.00  0.00     0.042 C 
HETATM    2  C   UNL     1     -22.444  -3.775 -11.491  1.00  0.00     0.154 C 
HETATM    3  C   UNL     1     -23.115  -2.789 -12.398  1.00  0.00     0.213 C 
HETATM    4  O   UNL     1     -24.467  -2.855 -11.978  1.00  0.00    -0.296 OA
HETATM    5  C   UNL     1     -24.451  -3.260 -10.672  1.00  0.00     0.406 C 
HETATM    6  O   UNL     1     -25.426  -3.262  -9.939  1.00  0.00    -0.229 OA
HETATM    7  O   UNL     1     -23.199  -3.658 -10.296  1.00  0.00    -0.291 OA
ENDROOT
TORSDOF 0
ENDMDL
MODEL 4
REMARK VINA RESULT:      -4.4      1.577      1.975
REMARK  0 active torsions:
REMARK  status: ('A' for Active; 'I' for Inactive)
ROOT
HETATM    1  C   UNL     1     -21.852  -4.373  -9.821  1.00  0.00     0.042 C 
HETATM    2  C   UNL     1     -22.924  -3.405 -10.278  1.00  0.00     0.154 C 
HETATM    3  C   UNL     1     -24.295  -3.745  -9.778  1.00  0.00     0.213 C 
HETATM    4  O   UNL     1     -25.133  -3.198 -10.781  1.00  0.00    -0.296 OA
HETATM    5  C   UNL     1     -24.398  -3.170 -11.933  1.00  0.00     0.406 C 
HETATM    6  O   UNL     1     -24.854  -2.919 -13.036  1.00  0.00    -0.229 OA
HETATM    7  O   UNL     1     -23.086  -3.465 -11.686  1.00  0.00    -0.291 OA
ENDROOT
TORSDOF 0
ENDMDL
MODEL 5
REMARK VINA RESULT:      -4.1     10.787     11.475
REMARK  0 active torsions:
REMARK  status: ('A' for Active; 'I' for Inactive)
ROOT
HETATM    1  C   UNL     1     -33.439  -2.598 -10.924  1.00  0.00     0.042 C 
HETATM    2  C   UNL     1     -33.474  -4.034 -11.410  1.00  0.00     0.154 C 
HETATM    3  C   UNL     1     -34.557  -4.305 -12.408  1.00  0.00     0.213 C 
HETATM    4  O   UNL     1     -34.824  -5.682 -12.207  1.00  0.00    -0.296 OA
HETATM    5  C   UNL     1     -34.472  -5.964 -10.916  1.00  0.00     0.406 C 
HETATM    6  O   UNL     1     -34.723  -7.012 -10.346  1.00  0.00    -0.229 OA
HETATM    7  O   UNL     1     -33.805  -4.914 -10.349  1.00  0.00    -0.291 OA
ENDROOT
TORSDOF 0
ENDMDL
MODEL 6
REMARK VINA RESULT:      -4.0     11.199     11.467
REMARK  0 active torsions:
REMARK  status: ('A' for Active; 'I' for Inactive)
ROOT
HETATM    1  C   UNL     1     -33.988  -4.689 -10.596  1.00  0.00     0.042 C 
HETATM    2  C   UNL     1     -34.774  -3.701 -11.434  1.00  0.00     0.154 C 
HETATM    3  C   UNL     1     -34.338  -3.645 -12.866  1.00  0.00     0.213 C 
HETATM    4  O   UNL     1     -34.675  -2.321 -13.240  1.00  0.00    -0.296 OA
HETATM    5  C   UNL     1     -34.661  -1.575 -12.095  1.00  0.00     0.406 C 
HETATM    6  O   UNL     1     -34.738  -0.359 -12.063  1.00  0.00    -0.229 OA
HETATM    7  O   UNL     1     -34.544  -2.373 -10.991  1.00  0.00    -0.291 OA
ENDROOT
TORSDOF 0
ENDMDL
MODEL 7
REMARK VINA RESULT:      -3.9     12.461     13.286
REMARK  0 active torsions:
REMARK  status: ('A' for Active; 'I' for Inactive)
ROOT
HETATM    1  C   UNL     1     -34.755   0.985 -14.305  1.00  0.00     0.042 C 
HETATM    2  C   UNL     1     -35.315  -0.103 -13.412  1.00  0.00     0.154 C 
HETATM    3  C   UNL     1     -36.806  -0.232 -13.482  1.00  0.00     0.213 C 
HETATM    4  O   UNL     1     -37.131  -0.749 -12.203  1.00  0.00    -0.296 OA
HETATM    5  C   UNL     1     -36.137  -0.349 -11.355  1.00  0.00     0.406 C 
HETATM    6  O   UNL     1     -36.176  -0.469 -10.142  1.00  0.00    -0.229 OA
HETATM    7  O   UNL     1     -35.097   0.208 -12.045  1.00  0.00    -0.291 OA
ENDROOT
TORSDOF 0
ENDMDL
MODEL 8
REMARK VINA RESULT:      -3.8     11.090     11.462
REMARK  0 active torsions:
REMARK  status: ('A' for Active; 'I' for Inactive)
ROOT
HETATM    1  C   UNL     1     -34.328  -6.042 -10.332  1.00  0.00     0.042 C 
HETATM    2  C   UNL     1     -34.229  -4.657 -10.940  1.00  0.00     0.154 C 
HETATM    3  C   UNL     1     -35.523  -3.901 -10.930  1.00  0.00     0.213 C 
HETATM    4  O   UNL     1     -35.384  -3.038 -12.045  1.00  0.00    -0.296 OA
HETATM    5  C   UNL     1     -34.515  -3.647 -12.906  1.00  0.00     0.406 C 
HETATM    6  O   UNL     1     -34.295  -3.270 -14.045  1.00  0.00    -0.229 OA
HETATM    7  O   UNL     1     -33.931  -4.737 -12.324  1.00  0.00    -0.291 OA
ENDROOT
TORSDOF 0
ENDMDL
MODEL 9
REMARK VINA RESULT:      -3.7     11.400     12.563
REMARK  0 active torsions:
REMARK  status: ('A' for Active; 'I' for Inactive)
ROOT
HETATM    1  C   UNL     1     -22.257  -8.043   1.161  1.00  0.00     0.042 C 
HETATM    2  C   UNL     1     -22.253  -8.061  -0.354  1.00  0.00     0.154 C 
HETATM    3  C   UNL     1     -20.884  -8.180  -0.951  1.00  0.00     0.213 C 
HETATM    4  O   UNL     1     -21.037  -7.537  -2.205  1.00  0.00    -0.296 OA
HETATM    5  C   UNL     1     -22.062  -6.644  -2.063  1.00  0.00     0.406 C 
HETATM    6  O   UNL     1     -22.358  -5.797  -2.890  1.00  0.00    -0.229 OA
HETATM    7  O   UNL     1     -22.707  -6.821  -0.872  1.00  0.00    -0.291 OA
ENDROOT
TORSDOF 0
ENDMDL
