MODEL 1
REMARK VINA RESULT:      -7.0      0.000      0.000
REMARK  6 active torsions:
REMARK  status: ('A' for Active; 'I' for Inactive)
REMARK    1  A    between atoms: CZ_3  and  OH_13 
REMARK    2  A    between atoms: CG_6  and  CB_7 
REMARK    3  A    between atoms: CB_7  and  CA_8 
REMARK    4  A    between atoms: CA_8  and  C_9 
REMARK    5  A    between atoms: CA_8  and  N_12 
REMARK    6  A    between atoms: C_9  and  OXT_11 
ROOT
ATOM      1  CB  TYR A   1     -22.589  -2.845 -12.501  1.00  0.00     0.085 C 
ENDROOT
BRANCH   1   2
ATOM      2  CG  TYR A   1     -22.863  -3.320 -11.090  1.00  0.00    -0.055 A 
ATOM      3  CD2 TYR A   1     -24.174  -3.266 -10.583  1.00  0.00     0.010 A 
ATOM      4  CE2 TYR A   1     -24.444  -3.633  -9.264  1.00  0.00     0.037 A 
ATOM      5  CZ  TYR A   1     -23.405  -4.063  -8.448  1.00  0.00     0.065 A 
ATOM      6  CE1 TYR A   1     -22.106  -4.142  -8.933  1.00  0.00     0.037 A 
ATOM      7  CD1 TYR A   1     -21.831  -3.758 -10.248  1.00  0.00     0.010 A 
BRANCH   5   8
ATOM      8  OH  TYR A   1     -23.618  -4.403  -7.146  1.00  0.00    -0.361 OA
ATOM      9  HH  TYR A   1     -22.915  -5.013  -6.865  1.00  0.00     0.217 HD
ENDBRANCH   5   8
ENDBRANCH   1   2
BRANCH   1  10
ATOM     10  CA  TYR A   1     -23.803  -2.810 -13.446  1.00  0.00     0.318 C 
BRANCH  10  11
ATOM     11  C   TYR A   1     -23.599  -1.844 -14.629  1.00  0.00     0.174 C 
ATOM     12  O   TYR A   1     -22.739  -1.999 -15.489  1.00  0.00    -0.648 OA
BRANCH  11  13
ATOM     13  OXT TYR A   1     -24.486  -0.826 -14.694  1.00  0.00    -0.775 OA
ATOM     14  HXT TYR A   1     -24.102   0.067 -14.608  1.00  0.00     0.167 HD
ENDBRANCH  11  13
ENDBRANCH  10  11
BRANCH  10  15
ATOM     15  N   TYR A   1     -24.011  -4.187 -13.975  1.00  0.00     0.093 N 
ATOM     16  H1  TYR A   1     -25.009  -4.410 -13.880  1.00  0.00     0.314 HD
ATOM     17  H2  TYR A   1     -23.578  -4.844 -13.321  1.00  0.00     0.314 HD
ENDBRANCH  10  15
ENDBRANCH   1  10
TORSDOF 6
ENDMDL
MODEL 2
REMARK VINA RESULT:      -7.0      0.163      1.350
REMARK  6 active torsions:
REMARK  status: ('A' for Active; 'I' for Inactive)
REMARK    1  A    between atoms: CZ_3  and  OH_13 
REMARK    2  A    between atoms: CG_6  and  CB_7 
REMARK    3  A    between atoms: CB_7  and  CA_8 
REMARK    4  A    between atoms: CA_8  and  C_9 
REMARK    5  A    between atoms: CA_8  and  N_12 
REMARK    6  A    between atoms: C_9  and  OXT_11 
ROOT
ATOM      1  CB  TYR A   1     -22.481  -3.077 -12.546  1.00  0.00     0.085 C 
ENDROOT
BRANCH   1   2
ATOM      2  CG  TYR A   1     -22.789  -3.369 -11.093  1.00  0.00    -0.055 A 
ATOM      3  CD2 TYR A   1     -21.761  -3.810 -10.241  1.00  0.00     0.010 A 
ATOM      4  CE2 TYR A   1     -22.030  -4.150  -8.915  1.00  0.00     0.037 A 
ATOM      5  CZ  TYR A   1     -23.328  -4.045  -8.433  1.00  0.00     0.065 A 
ATOM      6  CE1 TYR A   1     -24.357  -3.594  -9.251  1.00  0.00     0.037 A 
ATOM      7  CD1 TYR A   1     -24.092  -3.269 -10.584  1.00  0.00     0.010 A 
BRANCH   5   8
ATOM      8  OH  TYR A   1     -23.642  -4.394  -7.154  1.00  0.00    -0.361 OA
ATOM      9  HH  TYR A   1     -22.959  -4.040  -6.559  1.00  0.00     0.217 HD
ENDBRANCH   5   8
ENDBRANCH   1   2
BRANCH   1  10
ATOM     10  CA  TYR A   1     -23.698  -2.901 -13.470  1.00  0.00     0.318 C 
BRANCH  10  11
ATOM     11  C   TYR A   1     -23.406  -1.959 -14.654  1.00  0.00     0.174 C 
ATOM     12  O   TYR A   1     -22.560  -2.191 -15.511  1.00  0.00    -0.648 OA
BRANCH  11  13
ATOM     13  OXT TYR A   1     -24.200  -0.868 -14.725  1.00  0.00    -0.775 OA
ATOM     14  HXT TYR A   1     -24.790  -0.731 -13.959  1.00  0.00     0.167 HD
ENDBRANCH  11  13
ENDBRANCH  10  11
BRANCH  10  15
ATOM     15  N   TYR A   1     -24.071  -4.243 -13.997  1.00  0.00     0.093 N 
ATOM     16  H1  TYR A   1     -23.467  -4.937 -13.540  1.00  0.00     0.314 HD
ATOM     17  H2  TYR A   1     -23.763  -4.294 -14.971  1.00  0.00     0.314 HD
ENDBRANCH  10  15
ENDBRANCH   1  10
TORSDOF 6
ENDMDL
MODEL 3
REMARK VINA RESULT:      -6.8      1.877      2.392
REMARK  6 active torsions:
REMARK  status: ('A' for Active; 'I' for Inactive)
REMARK    1  A    between atoms: CZ_3  and  OH_13 
REMARK    2  A    between atoms: CG_6  and  CB_7 
REMARK    3  A    between atoms: CB_7  and  CA_8 
REMARK    4  A    between atoms: CA_8  and  C_9 
REMARK    5  A    between atoms: CA_8  and  N_12 
REMARK    6  A    between atoms: C_9  and  OXT_11 
ROOT
ATOM      1  CB  TYR A   1     -21.921  -2.828 -11.560  1.00  0.00     0.085 C 
ENDROOT
BRANCH   1   2
ATOM      2  CG  TYR A   1     -21.630  -3.652 -10.325  1.00  0.00    -0.055 A 
ATOM      3  CD2 TYR A   1     -22.593  -3.735  -9.304  1.00  0.00     0.010 A 
ATOM      4  CE2 TYR A   1     -22.325  -4.431  -8.125  1.00  0.00     0.037 A 
ATOM      5  CZ  TYR A   1     -21.094  -5.053  -7.964  1.00  0.00     0.065 A 
ATOM      6  CE1 TYR A   1     -20.133  -5.000  -8.966  1.00  0.00     0.037 A 
ATOM      7  CD1 TYR A   1     -20.394  -4.288 -10.141  1.00  0.00     0.010 A 
BRANCH   5   8
ATOM      8  OH  TYR A   1     -20.779  -5.719  -6.818  1.00  0.00    -0.361 OA
ATOM      9  HH  TYR A   1     -20.672  -5.070  -6.101  1.00  0.00     0.217 HD
ENDBRANCH   5   8
ENDBRANCH   1   2
BRANCH   1  10
ATOM     10  CA  TYR A   1     -22.870  -3.469 -12.588  1.00  0.00     0.318 C 
BRANCH  10  11
ATOM     11  C   TYR A   1     -24.294  -2.885 -12.517  1.00  0.00     0.174 C 
ATOM     12  O   TYR A   1     -25.070  -3.102 -11.592  1.00  0.00    -0.648 OA
BRANCH  11  13
ATOM     13  OXT TYR A   1     -24.621  -2.051 -13.529  1.00  0.00    -0.775 OA
ATOM     14  HXT TYR A   1     -24.133  -2.196 -14.363  1.00  0.00     0.167 HD
ENDBRANCH  11  13
ENDBRANCH  10  11
BRANCH  10  15
ATOM     15  N   TYR A   1     -22.311  -3.220 -13.945  1.00  0.00     0.093 N 
ATOM     16  H1  TYR A   1     -22.633  -3.978 -14.559  1.00  0.00     0.314 HD
ATOM     17  H2  TYR A   1     -21.302  -3.386 -13.905  1.00  0.00     0.314 HD
ENDBRANCH  10  15
ENDBRANCH   1  10
TORSDOF 6
ENDMDL
MODEL 4
REMARK VINA RESULT:      -6.6      2.394      3.539
REMARK  6 active torsions:
REMARK  status: ('A' for Active; 'I' for Inactive)
REMARK    1  A    between atoms: CZ_3  and  OH_13 
REMARK    2  A    between atoms: CG_6  and  CB_7 
REMARK    3  A    between atoms: CB_7  and  CA_8 
REMARK    4  A    between atoms: CA_8  and  C_9 
REMARK    5  A    between atoms: CA_8  and  N_12 
REMARK    6  A    between atoms: C_9  and  OXT_11 
ROOT
ATOM      1  CB  TYR A   1     -22.010  -4.014 -10.814  1.00  0.00     0.085 C 
ENDROOT
BRANCH   1   2
ATOM      2  CG  TYR A   1     -21.493  -4.111  -9.395  1.00  0.00    -0.055 A 
ATOM      3  CD2 TYR A   1     -20.108  -4.199  -9.167  1.00  0.00     0.010 A 
ATOM      4  CE2 TYR A   1     -19.607  -4.357  -7.874  1.00  0.00     0.037 A 
ATOM      5  CZ  TYR A   1     -20.488  -4.421  -6.803  1.00  0.00     0.065 A 
ATOM      6  CE1 TYR A   1     -21.859  -4.318  -7.003  1.00  0.00     0.037 A 
ATOM      7  CD1 TYR A   1     -22.364  -4.177  -8.298  1.00  0.00     0.010 A 
BRANCH   5   8
ATOM      8  OH  TYR A   1     -20.045  -4.604  -5.528  1.00  0.00    -0.361 OA
ATOM      9  HH  TYR A   1     -20.772  -4.406  -4.914  1.00  0.00     0.217 HD
ENDBRANCH   5   8
ENDBRANCH   1   2
BRANCH   1  10
ATOM     10  CA  TYR A   1     -23.454  -4.497 -11.038  1.00  0.00     0.318 C 
BRANCH  10  11
ATOM     11  C   TYR A   1     -24.459  -3.332 -11.110  1.00  0.00     0.174 C 
ATOM     12  O   TYR A   1     -25.318  -3.124 -10.258  1.00  0.00    -0.648 OA
BRANCH  11  13
ATOM     13  OXT TYR A   1     -24.294  -2.498 -12.161  1.00  0.00    -0.775 OA
ATOM     14  HXT TYR A   1     -24.470  -2.892 -13.037  1.00  0.00     0.167 HD
ENDBRANCH  11  13
ENDBRANCH  10  11
BRANCH  10  15
ATOM     15  N   TYR A   1     -23.491  -5.249 -12.323  1.00  0.00     0.093 N 
ATOM     16  H1  TYR A   1     -23.124  -4.632 -13.057  1.00  0.00     0.314 HD
ATOM     17  H2  TYR A   1     -24.470  -5.355 -12.597  1.00  0.00     0.314 HD
ENDBRANCH  10  15
ENDBRANCH   1  10
TORSDOF 6
ENDMDL
MODEL 5
REMARK VINA RESULT:      -6.5     10.802     11.621
REMARK  6 active torsions:
REMARK  status: ('A' for Active; 'I' for Inactive)
REMARK    1  A    between atoms: CZ_3  and  OH_13 
REMARK    2  A    between atoms: CG_6  and  CB_7 
REMARK    3  A    between atoms: CB_7  and  CA_8 
REMARK    4  A    between atoms: CA_8  and  C_9 
REMARK    5  A    between atoms: CA_8  and  N_12 
REMARK    6  A    between atoms: C_9  and  OXT_11 
ROOT
ATOM      1  CB  TYR A   1     -35.253  -1.631 -11.157  1.00  0.00     0.085 C 
ENDROOT
BRANCH   1   2
ATOM      2  CG  TYR A   1     -34.620  -3.004 -11.222  1.00  0.00    -0.055 A 
ATOM      3  CD2 TYR A   1     -35.357  -4.127 -10.805  1.00  0.00     0.010 A 
ATOM      4  CE2 TYR A   1     -34.776  -5.396 -10.791  1.00  0.00     0.037 A 
ATOM      5  CZ  TYR A   1     -33.457  -5.548 -11.199  1.00  0.00     0.065 A 
ATOM      6  CE1 TYR A   1     -32.716  -4.456 -11.632  1.00  0.00     0.037 A 
ATOM      7  CD1 TYR A   1     -33.291  -3.182 -11.631  1.00  0.00     0.010 A 
BRANCH   5   8
ATOM      8  OH  TYR A   1     -32.841  -6.763 -11.174  1.00  0.00    -0.361 OA
ATOM      9  HH  TYR A   1     -32.246  -6.794 -10.405  1.00  0.00     0.217 HD
ENDBRANCH   5   8
ENDBRANCH   1   2
BRANCH   1  10
ATOM     10  CA  TYR A   1     -34.931  -0.686 -12.328  1.00  0.00     0.318 C 
BRANCH  10  11
ATOM     11  C   TYR A   1     -35.657  -1.090 -13.626  1.00  0.00     0.174 C 
ATOM     12  O   TYR A   1     -35.095  -1.617 -14.580  1.00  0.00    -0.648 OA
BRANCH  11  13
ATOM     13  OXT TYR A   1     -36.991  -0.877 -13.624  1.00  0.00    -0.775 OA
ATOM     14  HXT TYR A   1     -37.533  -1.629 -13.931  1.00  0.00     0.167 HD
ENDBRANCH  11  13
ENDBRANCH  10  11
BRANCH  10  15
ATOM     15  N   TYR A   1     -35.360   0.686 -11.939  1.00  0.00     0.093 N 
ATOM     16  H1  TYR A   1     -34.815   0.961 -11.113  1.00  0.00     0.314 HD
ATOM     17  H2  TYR A   1     -36.309   0.625 -11.563  1.00  0.00     0.314 HD
ENDBRANCH  10  15
ENDBRANCH   1  10
TORSDOF 6
ENDMDL
MODEL 6
REMARK VINA RESULT:      -6.4     11.368     12.286
REMARK  6 active torsions:
REMARK  status: ('A' for Active; 'I' for Inactive)
REMARK    1  A    between atoms: CZ_3  and  OH_13 
REMARK    2  A    between atoms: CG_6  and  CB_7 
REMARK    3  A    between atoms: CB_7  and  CA_8 
REMARK    4  A    between atoms: CA_8  and  C_9 
REMARK    5  A    between atoms: CA_8  and  N_12 
REMARK    6  A    between atoms: C_9  and  OXT_11 
ROOT
ATOM      1  CB  TYR A   1     -35.656  -1.471 -11.102  1.00  0.00     0.085 C 
ENDROOT
BRANCH   1   2
ATOM      2  CG  TYR A   1     -34.893  -2.777 -11.103  1.00  0.00    -0.055 A 
ATOM      3  CD2 TYR A   1     -33.532  -2.785 -11.460  1.00  0.00     0.010 A 
ATOM      4  CE2 TYR A   1     -32.821  -3.983 -11.534  1.00  0.00     0.037 A 
ATOM      5  CZ  TYR A   1     -33.466  -5.179 -11.245  1.00  0.00     0.065 A 
ATOM      6  CE1 TYR A   1     -34.804  -5.194 -10.873  1.00  0.00     0.037 A 
ATOM      7  CD1 TYR A   1     -35.522  -3.996 -10.815  1.00  0.00     0.010 A 
BRANCH   5   8
ATOM      8  OH  TYR A   1     -32.818  -6.374 -11.334  1.00  0.00    -0.361 OA
ATOM      9  HH  TYR A   1     -31.892  -6.209 -11.577  1.00  0.00     0.217 HD
ENDBRANCH   5   8
ENDBRANCH   1   2
BRANCH   1  10
ATOM     10  CA  TYR A   1     -35.793  -0.771 -12.466  1.00  0.00     0.318 C 
BRANCH  10  11
ATOM     11  C   TYR A   1     -37.253  -0.402 -12.794  1.00  0.00     0.174 C 
ATOM     12  O   TYR A   1     -37.994   0.187 -12.013  1.00  0.00    -0.648 OA
BRANCH  11  13
ATOM     13  OXT TYR A   1     -37.655  -0.719 -14.044  1.00  0.00    -0.775 OA
ATOM     14  HXT TYR A   1     -37.018  -0.511 -14.753  1.00  0.00     0.167 HD
ENDBRANCH  11  13
ENDBRANCH  10  11
BRANCH  10  15
ATOM     15  N   TYR A   1     -34.975   0.473 -12.427  1.00  0.00     0.093 N 
ATOM     16  H1  TYR A   1     -34.763   0.676 -11.442  1.00  0.00     0.314 HD
ATOM     17  H2  TYR A   1     -35.580   1.255 -12.686  1.00  0.00     0.314 HD
ENDBRANCH  10  15
ENDBRANCH   1  10
TORSDOF 6
ENDMDL
MODEL 7
REMARK VINA RESULT:      -6.3      2.848      6.071
REMARK  6 active torsions:
REMARK  status: ('A' for Active; 'I' for Inactive)
REMARK    1  A    between atoms: CZ_3  and  OH_13 
REMARK    2  A    between atoms: CG_6  and  CB_7 
REMARK    3  A    between atoms: CB_7  and  CA_8 
REMARK    4  A    between atoms: CA_8  and  C_9 
REMARK    5  A    between atoms: CA_8  and  N_12 
REMARK    6  A    between atoms: C_9  and  OXT_11 
ROOT
ATOM      1  CB  TYR A   1     -20.998  -4.237  -9.364  1.00  0.00     0.085 C 
ENDROOT
BRANCH   1   2
ATOM      2  CG  TYR A   1     -22.051  -3.810 -10.364  1.00  0.00    -0.055 A 
ATOM      3  CD2 TYR A   1     -21.655  -3.328 -11.624  1.00  0.00     0.010 A 
ATOM      4  CE2 TYR A   1     -22.601  -2.865 -12.540  1.00  0.00     0.037 A 
ATOM      5  CZ  TYR A   1     -23.948  -2.887 -12.201  1.00  0.00     0.065 A 
ATOM      6  CE1 TYR A   1     -24.363  -3.375 -10.969  1.00  0.00     0.037 A 
ATOM      7  CD1 TYR A   1     -23.416  -3.824 -10.044  1.00  0.00     0.010 A 
BRANCH   5   8
ATOM      8  OH  TYR A   1     -24.902  -2.417 -13.052  1.00  0.00    -0.361 OA
ATOM      9  HH  TYR A   1     -25.547  -1.900 -12.541  1.00  0.00     0.217 HD
ENDBRANCH   5   8
ENDBRANCH   1   2
BRANCH   1  10
ATOM     10  CA  TYR A   1     -21.514  -4.621  -7.967  1.00  0.00     0.318 C 
BRANCH  10  11
ATOM     11  C   TYR A   1     -20.602  -5.646  -7.265  1.00  0.00     0.174 C 
ATOM     12  O   TYR A   1     -20.979  -6.759  -6.914  1.00  0.00    -0.648 OA
BRANCH  11  13
ATOM     13  OXT TYR A   1     -19.317  -5.258  -7.112  1.00  0.00    -0.775 OA
ATOM     14  HXT TYR A   1     -18.852  -5.023  -7.937  1.00  0.00     0.167 HD
ENDBRANCH  11  13
ENDBRANCH  10  11
BRANCH  10  15
ATOM     15  N   TYR A   1     -21.572  -3.381  -7.144  1.00  0.00     0.093 N 
ATOM     16  H1  TYR A   1     -21.980  -2.639  -7.726  1.00  0.00     0.314 HD
ATOM     17  H2  TYR A   1     -20.615  -3.049  -7.007  1.00  0.00     0.314 HD
ENDBRANCH  10  15
ENDBRANCH   1  10
TORSDOF 6
ENDMDL
MODEL 8
REMARK VINA RESULT:      -6.2     11.027     11.875
REMARK  6 active torsions:
REMARK  status: ('A' for Active; 'I' for Inactive)
REMARK    1  A    between atoms: CZ_3  and  OH_13 
REMARK    2  A    between atoms: CG_6  and  CB_7 
REMARK    3  A    between atoms: CB_7  and  CA_8 
REMARK    4  A    between atoms: CA_8  and  C_9 
REMARK    5  A    between atoms: CA_8  and  N_12 
REMARK    6  A    between atoms: C_9  and  OXT_11 
ROOT
ATOM      1  CB  TYR A   1     -34.326  -1.615 -11.639  1.00  0.00     0.085 C 
ENDROOT
BRANCH   1   2
ATOM      2  CG  TYR A   1     -34.141  -3.107 -11.462  1.00  0.00    -0.055 A 
ATOM      3  CD2 TYR A   1     -35.184  -3.874 -10.911  1.00  0.00     0.010 A 
ATOM      4  CE2 TYR A   1     -35.016  -5.239 -10.674  1.00  0.00     0.037 A 
ATOM      5  CZ  TYR A   1     -33.808  -5.845 -10.993  1.00  0.00     0.065 A 
ATOM      6  CE1 TYR A   1     -32.771  -5.111 -11.555  1.00  0.00     0.037 A 
ATOM      7  CD1 TYR A   1     -32.931  -3.740 -11.777  1.00  0.00     0.010 A 
BRANCH   5   8
ATOM      8  OH  TYR A   1     -33.591  -7.168 -10.752  1.00  0.00    -0.361 OA
ATOM      9  HH  TYR A   1     -34.069  -7.419  -9.944  1.00  0.00     0.217 HD
ENDBRANCH   5   8
ENDBRANCH   1   2
BRANCH   1  10
ATOM     10  CA  TYR A   1     -35.469  -1.186 -12.575  1.00  0.00     0.318 C 
BRANCH  10  11
ATOM     11  C   TYR A   1     -36.541  -0.349 -11.849  1.00  0.00     0.174 C 
ATOM     12  O   TYR A   1     -36.298   0.379 -10.893  1.00  0.00    -0.648 OA
BRANCH  11  13
ATOM     13  OXT TYR A   1     -37.780  -0.423 -12.382  1.00  0.00    -0.775 OA
ATOM     14  HXT TYR A   1     -38.218  -1.292 -12.300  1.00  0.00     0.167 HD
ENDBRANCH  11  13
ENDBRANCH  10  11
BRANCH  10  15
ATOM     15  N   TYR A   1     -34.879  -0.371 -13.673  1.00  0.00     0.093 N 
ATOM     16  H1  TYR A   1     -34.856   0.607 -13.358  1.00  0.00     0.314 HD
ATOM     17  H2  TYR A   1     -35.557  -0.337 -14.438  1.00  0.00     0.314 HD
ENDBRANCH  10  15
ENDBRANCH   1  10
TORSDOF 6
ENDMDL
MODEL 9
REMARK VINA RESULT:      -6.1      3.422      6.486
REMARK  6 active torsions:
REMARK  status: ('A' for Active; 'I' for Inactive)
REMARK    1  A    between atoms: CZ_3  and  OH_13 
REMARK    2  A    between atoms: CG_6  and  CB_7 
REMARK    3  A    between atoms: CB_7  and  CA_8 
REMARK    4  A    between atoms: CA_8  and  C_9 
REMARK    5  A    between atoms: CA_8  and  N_12 
REMARK    6  A    between atoms: C_9  and  OXT_11 
ROOT
ATOM      1  CB  TYR A   1     -21.892  -4.093  -7.430  1.00  0.00     0.085 C 
ENDROOT
BRANCH   1   2
ATOM      2  CG  TYR A   1     -21.833  -3.926  -8.933  1.00  0.00    -0.055 A 
ATOM      3  CD2 TYR A   1     -23.011  -3.633  -9.644  1.00  0.00     0.010 A 
ATOM      4  CE2 TYR A   1     -22.999  -3.540 -11.036  1.00  0.00     0.037 A 
ATOM      5  CZ  TYR A   1     -21.808  -3.735 -11.723  1.00  0.00     0.065 A 
ATOM      6  CE1 TYR A   1     -20.629  -4.008 -11.041  1.00  0.00     0.037 A 
ATOM      7  CD1 TYR A   1     -20.643  -4.118  -9.648  1.00  0.00     0.010 A 
BRANCH   5   8
ATOM      8  OH  TYR A   1     -21.756  -3.683 -13.084  1.00  0.00    -0.361 OA
ATOM      9  HH  TYR A   1     -20.981  -4.186 -13.385  1.00  0.00     0.217 HD
ENDBRANCH   5   8
ENDBRANCH   1   2
BRANCH   1  10
ATOM     10  CA  TYR A   1     -21.624  -5.513  -6.900  1.00  0.00     0.318 C 
BRANCH  10  11
ATOM     11  C   TYR A   1     -20.138  -5.746  -6.569  1.00  0.00     0.174 C 
ATOM     12  O   TYR A   1     -19.522  -6.757  -6.893  1.00  0.00    -0.648 OA
BRANCH  11  13
ATOM     13  OXT TYR A   1     -19.525  -4.720  -5.939  1.00  0.00    -0.775 OA
ATOM     14  HXT TYR A   1     -20.116  -4.009  -5.628  1.00  0.00     0.167 HD
ENDBRANCH  11  13
ENDBRANCH  10  11
BRANCH  10  15
ATOM     15  N   TYR A   1     -22.432  -5.699  -5.662  1.00  0.00     0.093 N 
ATOM     16  H1  TYR A   1     -22.619  -6.704  -5.560  1.00  0.00     0.314 HD
ATOM     17  H2  TYR A   1     -23.365  -5.319  -5.836  1.00  0.00     0.314 HD
ENDBRANCH  10  15
ENDBRANCH   1  10
TORSDOF 6
ENDMDL
