MODEL 1
REMARK VINA RESULT:      -6.4      0.000      0.000
REMARK  22 active torsions:
REMARK  status: ('A' for Active; 'I' for Inactive)
REMARK    1  A    between atoms: C_2  and  C_3 
REMARK    2  A    between atoms: C_3  and  C_4 
REMARK    3  A    between atoms: C_4  and  C_5 
REMARK    4  A    between atoms: C_5  and  C_6 
REMARK    5  A    between atoms: C_6  and  C_7 
REMARK    6  A    between atoms: C_7  and  C_8 
REMARK    7  A    between atoms: C_8  and  C_9 
REMARK    8  A    between atoms: C_9  and  C_10 
REMARK    9  A    between atoms: C_10  and  C_11 
REMARK   10  A    between atoms: C_11  and  C_12 
REMARK   11  A    between atoms: C_12  and  C_13 
REMARK   12  A    between atoms: C_13  and  C_14 
REMARK   13  A    between atoms: C_14  and  C_15 
REMARK   14  A    between atoms: C_15  and  C_16 
REMARK   15  A    between atoms: C_16  and  O_17 
REMARK   16  A    between atoms: O_17  and  C_18 
REMARK   17  A    between atoms: C_18  and  C_20 
REMARK   18  A    between atoms: C_20  and  C_21 
REMARK   19  A    between atoms: C_21  and  C_22 
REMARK   20  A    between atoms: C_22  and  C_23 
REMARK   21  A    between atoms: C_23  and  C_24 
REMARK   22  A    between atoms: C_24  and  C_25 
ROOT
HETATM    1  C   UNL     1     -22.390  -6.671  -1.486  1.00  0.00     0.002 C 
ENDROOT
BRANCH   1   2
HETATM    2  C   UNL     1     -22.403  -7.456  -0.180  1.00  0.00     0.000 C 
BRANCH   2   3
HETATM    3  C   UNL     1     -21.122  -8.263  -0.016  1.00  0.00     0.000 C 
BRANCH   3   4
HETATM    4  C   UNL     1     -21.310  -9.365   1.012  1.00  0.00     0.000 C 
BRANCH   4   5
HETATM    5  C   UNL     1     -20.790 -10.686   0.470  1.00  0.00     0.000 C 
BRANCH   5   6
HETATM    6  C   UNL     1     -20.603 -10.595  -1.035  1.00  0.00     0.000 C 
BRANCH   6   7
HETATM    7  C   UNL     1     -21.521 -11.581  -1.739  1.00  0.00     0.000 C 
BRANCH   7   8
HETATM    8  C   UNL     1     -22.908 -10.983  -1.900  1.00  0.00     0.000 C 
BRANCH   8   9
HETATM    9  C   UNL     1     -23.912 -11.760  -1.065  1.00  0.00     0.000 C 
BRANCH   9  10
HETATM   10  C   UNL     1     -23.833 -13.242  -1.392  1.00  0.00     0.000 C 
BRANCH  10  11
HETATM   11  C   UNL     1     -23.782 -14.066  -0.113  1.00  0.00     0.000 C 
BRANCH  11  12
HETATM   12  C   UNL     1     -23.462 -13.173   1.077  1.00  0.00    -0.000 C 
BRANCH  12  13
HETATM   13  C   UNL     1     -23.444 -13.977   2.370  1.00  0.00    -0.005 C 
HETATM   14  C   UNL     1     -22.043 -14.472   2.675  1.00  0.00     0.005 C 
ENDBRANCH  12  13
ENDBRANCH  11  12
ENDBRANCH  10  11
ENDBRANCH   9  10
ENDBRANCH   8   9
ENDBRANCH   7   8
ENDBRANCH   6   7
ENDBRANCH   5   6
ENDBRANCH   4   5
ENDBRANCH   3   4
ENDBRANCH   2   3
ENDBRANCH   1   2
BRANCH   1  15
HETATM   15  C   UNL     1     -21.230  -7.102  -2.374  1.00  0.00     0.027 C 
BRANCH  15  16
HETATM   16  C   UNL     1     -21.701  -7.333  -3.799  1.00  0.00     0.178 C 
BRANCH  16  17
HETATM   17  O   UNL     1     -21.808  -6.077  -4.476  1.00  0.00    -0.321 OA
BRANCH  17  18
HETATM   18  C   UNL     1     -21.115  -6.047  -5.654  1.00  0.00     0.258 C 
HETATM   19  O   UNL     1     -21.133  -6.914  -6.506  1.00  0.00    -0.265 OA
BRANCH  18  20
HETATM   20  C   UNL     1     -20.315  -4.772  -5.759  1.00  0.00     0.111 C 
BRANCH  20  21
HETATM   21  C   UNL     1     -20.702  -4.014  -7.023  1.00  0.00     0.010 C 
BRANCH  21  22
HETATM   22  C   UNL     1     -19.608  -4.062  -8.084  1.00  0.00     0.001 C 
BRANCH  22  23
HETATM   23  C   UNL     1     -20.235  -4.367  -9.443  1.00  0.00     0.000 C 
BRANCH  23  24
HETATM   24  C   UNL     1     -21.748  -4.551  -9.348  1.00  0.00     0.004 C 
BRANCH  24  25
HETATM   25  C   UNL     1     -22.513  -3.734 -10.404  1.00  0.00    -0.023 C 
HETATM   26  C   UNL     1     -21.791  -3.714 -11.755  1.00  0.00     0.009 C 
HETATM   27  C   UNL     1     -23.920  -4.305 -10.584  1.00  0.00     0.009 C 
ENDBRANCH  24  25
ENDBRANCH  23  24
ENDBRANCH  22  23
ENDBRANCH  21  22
ENDBRANCH  20  21
ENDBRANCH  18  20
ENDBRANCH  17  18
ENDBRANCH  16  17
ENDBRANCH  15  16
ENDBRANCH   1  15
TORSDOF 22
ENDMDL
MODEL 2
REMARK VINA RESULT:      -6.3      1.899      3.922
REMARK  22 active torsions:
REMARK  status: ('A' for Active; 'I' for Inactive)
REMARK    1  A    between atoms: C_2  and  C_3 
REMARK    2  A    between atoms: C_3  and  C_4 
REMARK    3  A    between atoms: C_4  and  C_5 
REMARK    4  A    between atoms: C_5  and  C_6 
REMARK    5  A    between atoms: C_6  and  C_7 
REMARK    6  A    between atoms: C_7  and  C_8 
REMARK    7  A    between atoms: C_8  and  C_9 
REMARK    8  A    between atoms: C_9  and  C_10 
REMARK    9  A    between atoms: C_10  and  C_11 
REMARK   10  A    between atoms: C_11  and  C_12 
REMARK   11  A    between atoms: C_12  and  C_13 
REMARK   12  A    between atoms: C_13  and  C_14 
REMARK   13  A    between atoms: C_14  and  C_15 
REMARK   14  A    between atoms: C_15  and  C_16 
REMARK   15  A    between atoms: C_16  and  O_17 
REMARK   16  A    between atoms: O_17  and  C_18 
REMARK   17  A    between atoms: C_18  and  C_20 
REMARK   18  A    between atoms: C_20  and  C_21 
REMARK   19  A    between atoms: C_21  and  C_22 
REMARK   20  A    between atoms: C_22  and  C_23 
REMARK   21  A    between atoms: C_23  and  C_24 
REMARK   22  A    between atoms: C_24  and  C_25 
ROOT
HETATM    1  C   UNL     1     -21.493  -7.878  -0.846  1.00  0.00     0.002 C 
ENDROOT
BRANCH   1   2
HETATM    2  C   UNL     1     -21.949  -8.433   0.496  1.00  0.00     0.000 C 
BRANCH   2   3
HETATM    3  C   UNL     1     -23.326  -9.076   0.380  1.00  0.00     0.000 C 
BRANCH   3   4
HETATM    4  C   UNL     1     -23.298 -10.225  -0.614  1.00  0.00     0.000 C 
BRANCH   4   5
HETATM    5  C   UNL     1     -23.871 -11.482   0.018  1.00  0.00     0.000 C 
BRANCH   5   6
HETATM    6  C   UNL     1     -22.761 -12.488   0.278  1.00  0.00     0.000 C 
BRANCH   6   7
HETATM    7  C   UNL     1     -21.546 -12.160  -0.574  1.00  0.00     0.000 C 
BRANCH   7   8
HETATM    8  C   UNL     1     -20.281 -12.234   0.264  1.00  0.00     0.000 C 
BRANCH   8   9
HETATM    9  C   UNL     1     -19.188 -11.383  -0.361  1.00  0.00     0.000 C 
BRANCH   9  10
HETATM   10  C   UNL     1     -19.336 -11.367  -1.874  1.00  0.00     0.000 C 
BRANCH  10  11
HETATM   11  C   UNL     1     -19.070  -9.971  -2.417  1.00  0.00     0.000 C 
BRANCH  11  12
HETATM   12  C   UNL     1     -17.942 -10.008  -3.438  1.00  0.00    -0.000 C 
BRANCH  12  13
HETATM   13  C   UNL     1     -16.647  -9.477  -2.836  1.00  0.00    -0.005 C 
HETATM   14  C   UNL     1     -15.773 -10.619  -2.354  1.00  0.00     0.005 C 
ENDBRANCH  12  13
ENDBRANCH  11  12
ENDBRANCH  10  11
ENDBRANCH   9  10
ENDBRANCH   8   9
ENDBRANCH   7   8
ENDBRANCH   6   7
ENDBRANCH   5   6
ENDBRANCH   4   5
ENDBRANCH   3   4
ENDBRANCH   2   3
ENDBRANCH   1   2
BRANCH   1  15
HETATM   15  C   UNL     1     -22.286  -6.634  -1.225  1.00  0.00     0.027 C 
BRANCH  15  16
HETATM   16  C   UNL     1     -21.620  -5.902  -2.378  1.00  0.00     0.178 C 
BRANCH  16  17
HETATM   17  O   UNL     1     -22.292  -6.225  -3.600  1.00  0.00    -0.321 OA
BRANCH  17  18
HETATM   18  C   UNL     1     -21.435  -6.615  -4.590  1.00  0.00     0.258 C 
HETATM   19  O   UNL     1     -20.674  -7.562  -4.533  1.00  0.00    -0.265 OA
BRANCH  18  20
HETATM   20  C   UNL     1     -21.565  -5.704  -5.786  1.00  0.00     0.111 C 
BRANCH  20  21
HETATM   21  C   UNL     1     -20.277  -4.915  -5.984  1.00  0.00     0.010 C 
BRANCH  21  22
HETATM   22  C   UNL     1     -19.658  -5.154  -7.356  1.00  0.00     0.001 C 
BRANCH  22  23
HETATM   23  C   UNL     1     -19.869  -3.918  -8.229  1.00  0.00     0.000 C 
BRANCH  23  24
HETATM   24  C   UNL     1     -20.323  -4.284  -9.641  1.00  0.00     0.004 C 
BRANCH  24  25
HETATM   25  C   UNL     1     -21.834  -4.566  -9.723  1.00  0.00    -0.023 C 
HETATM   26  C   UNL     1     -22.649  -3.619  -8.837  1.00  0.00     0.009 C 
HETATM   27  C   UNL     1     -22.306  -4.446 -11.172  1.00  0.00     0.009 C 
ENDBRANCH  24  25
ENDBRANCH  23  24
ENDBRANCH  22  23
ENDBRANCH  21  22
ENDBRANCH  20  21
ENDBRANCH  18  20
ENDBRANCH  17  18
ENDBRANCH  16  17
ENDBRANCH  15  16
ENDBRANCH   1  15
TORSDOF 22
ENDMDL
MODEL 3
REMARK VINA RESULT:      -6.2      1.272      2.560
REMARK  22 active torsions:
REMARK  status: ('A' for Active; 'I' for Inactive)
REMARK    1  A    between atoms: C_2  and  C_3 
REMARK    2  A    between atoms: C_3  and  C_4 
REMARK    3  A    between atoms: C_4  and  C_5 
REMARK    4  A    between atoms: C_5  and  C_6 
REMARK    5  A    between atoms: C_6  and  C_7 
REMARK    6  A    between atoms: C_7  and  C_8 
REMARK    7  A    between atoms: C_8  and  C_9 
REMARK    8  A    between atoms: C_9  and  C_10 
REMARK    9  A    between atoms: C_10  and  C_11 
REMARK   10  A    between atoms: C_11  and  C_12 
REMARK   11  A    between atoms: C_12  and  C_13 
REMARK   12  A    between atoms: C_13  and  C_14 
REMARK   13  A    between atoms: C_14  and  C_15 
REMARK   14  A    between atoms: C_15  and  C_16 
REMARK   15  A    between atoms: C_16  and  O_17 
REMARK   16  A    between atoms: O_17  and  C_18 
REMARK   17  A    between atoms: C_18  and  C_20 
REMARK   18  A    between atoms: C_20  and  C_21 
REMARK   19  A    between atoms: C_21  and  C_22 
REMARK   20  A    between atoms: C_22  and  C_23 
REMARK   21  A    between atoms: C_23  and  C_24 
REMARK   22  A    between atoms: C_24  and  C_25 
ROOT
HETATM    1  C   UNL     1     -20.623  -7.717  -3.178  1.00  0.00     0.002 C 
ENDROOT
BRANCH   1   2
HETATM    2  C   UNL     1     -20.658  -7.851  -1.662  1.00  0.00     0.000 C 
BRANCH   2   3
HETATM    3  C   UNL     1     -21.974  -7.329  -1.099  1.00  0.00     0.000 C 
BRANCH   3   4
HETATM    4  C   UNL     1     -22.113  -7.697   0.368  1.00  0.00     0.000 C 
BRANCH   4   5
HETATM    5  C   UNL     1     -23.285  -8.644   0.565  1.00  0.00     0.000 C 
BRANCH   5   6
HETATM    6  C   UNL     1     -23.269  -9.723  -0.506  1.00  0.00     0.000 C 
BRANCH   6   7
HETATM    7  C   UNL     1     -24.167 -10.880  -0.098  1.00  0.00     0.000 C 
BRANCH   7   8
HETATM    8  C   UNL     1     -23.949 -12.065  -1.023  1.00  0.00     0.000 C 
BRANCH   8   9
HETATM    9  C   UNL     1     -23.606 -13.304  -0.213  1.00  0.00     0.000 C 
BRANCH   9  10
HETATM   10  C   UNL     1     -22.782 -12.923   1.006  1.00  0.00     0.000 C 
BRANCH  10  11
HETATM   11  C   UNL     1     -21.296 -13.005   0.688  1.00  0.00     0.000 C 
BRANCH  11  12
HETATM   12  C   UNL     1     -20.645 -11.638   0.851  1.00  0.00    -0.000 C 
BRANCH  12  13
HETATM   13  C   UNL     1     -19.895 -11.240  -0.413  1.00  0.00    -0.005 C 
HETATM   14  C   UNL     1     -20.397 -12.031  -1.606  1.00  0.00     0.005 C 
ENDBRANCH  12  13
ENDBRANCH  11  12
ENDBRANCH  10  11
ENDBRANCH   9  10
ENDBRANCH   8   9
ENDBRANCH   7   8
ENDBRANCH   6   7
ENDBRANCH   5   6
ENDBRANCH   4   5
ENDBRANCH   3   4
ENDBRANCH   2   3
ENDBRANCH   1   2
BRANCH   1  15
HETATM   15  C   UNL     1     -21.524  -6.584  -3.651  1.00  0.00     0.027 C 
BRANCH  15  16
HETATM   16  C   UNL     1     -22.194  -6.944  -4.966  1.00  0.00     0.178 C 
BRANCH  16  17
HETATM   17  O   UNL     1     -21.343  -6.572  -6.054  1.00  0.00    -0.321 OA
BRANCH  17  18
HETATM   18  C   UNL     1     -21.606  -5.319  -6.531  1.00  0.00     0.258 C 
HETATM   19  O   UNL     1     -22.697  -4.782  -6.539  1.00  0.00    -0.265 OA
BRANCH  18  20
HETATM   20  C   UNL     1     -20.343  -4.679  -7.051  1.00  0.00     0.111 C 
BRANCH  20  21
HETATM   21  C   UNL     1     -20.133  -5.047  -8.514  1.00  0.00     0.010 C 
BRANCH  21  22
HETATM   22  C   UNL     1     -20.232  -3.836  -9.435  1.00  0.00     0.001 C 
BRANCH  22  23
HETATM   23  C   UNL     1     -20.636  -4.296 -10.834  1.00  0.00     0.000 C 
BRANCH  23  24
HETATM   24  C   UNL     1     -21.773  -3.454 -11.408  1.00  0.00     0.004 C 
BRANCH  24  25
HETATM   25  C   UNL     1     -23.061  -4.268 -11.628  1.00  0.00    -0.023 C 
HETATM   26  C   UNL     1     -23.612  -4.843 -10.320  1.00  0.00     0.009 C 
HETATM   27  C   UNL     1     -24.124  -3.390 -12.289  1.00  0.00     0.009 C 
ENDBRANCH  24  25
ENDBRANCH  23  24
ENDBRANCH  22  23
ENDBRANCH  21  22
ENDBRANCH  20  21
ENDBRANCH  18  20
ENDBRANCH  17  18
ENDBRANCH  16  17
ENDBRANCH  15  16
ENDBRANCH   1  15
TORSDOF 22
ENDMDL
MODEL 4
REMARK VINA RESULT:      -6.2      1.574      3.092
REMARK  22 active torsions:
REMARK  status: ('A' for Active; 'I' for Inactive)
REMARK    1  A    between atoms: C_2  and  C_3 
REMARK    2  A    between atoms: C_3  and  C_4 
REMARK    3  A    between atoms: C_4  and  C_5 
REMARK    4  A    between atoms: C_5  and  C_6 
REMARK    5  A    between atoms: C_6  and  C_7 
REMARK    6  A    between atoms: C_7  and  C_8 
REMARK    7  A    between atoms: C_8  and  C_9 
REMARK    8  A    between atoms: C_9  and  C_10 
REMARK    9  A    between atoms: C_10  and  C_11 
REMARK   10  A    between atoms: C_11  and  C_12 
REMARK   11  A    between atoms: C_12  and  C_13 
REMARK   12  A    between atoms: C_13  and  C_14 
REMARK   13  A    between atoms: C_14  and  C_15 
REMARK   14  A    between atoms: C_15  and  C_16 
REMARK   15  A    between atoms: C_16  and  O_17 
REMARK   16  A    between atoms: O_17  and  C_18 
REMARK   17  A    between atoms: C_18  and  C_20 
REMARK   18  A    between atoms: C_20  and  C_21 
REMARK   19  A    between atoms: C_21  and  C_22 
REMARK   20  A    between atoms: C_22  and  C_23 
REMARK   21  A    between atoms: C_23  and  C_24 
REMARK   22  A    between atoms: C_24  and  C_25 
ROOT
HETATM    1  C   UNL     1     -22.034  -6.443  -2.709  1.00  0.00     0.002 C 
ENDROOT
BRANCH   1   2
HETATM    2  C   UNL     1     -22.227  -6.420  -1.198  1.00  0.00     0.000 C 
BRANCH   2   3
HETATM    3  C   UNL     1     -21.836  -7.756  -0.578  1.00  0.00     0.000 C 
BRANCH   3   4
HETATM    4  C   UNL     1     -22.677  -8.041   0.655  1.00  0.00     0.000 C 
BRANCH   4   5
HETATM    5  C   UNL     1     -23.703  -9.120   0.354  1.00  0.00     0.000 C 
BRANCH   5   6
HETATM    6  C   UNL     1     -23.084 -10.201  -0.518  1.00  0.00     0.000 C 
BRANCH   6   7
HETATM    7  C   UNL     1     -23.137 -11.543   0.194  1.00  0.00     0.000 C 
BRANCH   7   8
HETATM    8  C   UNL     1     -21.790 -12.238   0.103  1.00  0.00     0.000 C 
BRANCH   8   9
HETATM    9  C   UNL     1     -20.668 -11.213   0.142  1.00  0.00     0.000 C 
BRANCH   9  10
HETATM   10  C   UNL     1     -19.654 -11.502  -0.953  1.00  0.00     0.000 C 
BRANCH  10  11
HETATM   11  C   UNL     1     -20.263 -12.410  -2.012  1.00  0.00     0.000 C 
BRANCH  11  12
HETATM   12  C   UNL     1     -20.472 -11.641  -3.309  1.00  0.00    -0.000 C 
BRANCH  12  13
HETATM   13  C   UNL     1     -21.956 -11.431  -3.583  1.00  0.00    -0.005 C 
HETATM   14  C   UNL     1     -22.379 -12.167  -4.840  1.00  0.00     0.005 C 
ENDBRANCH  12  13
ENDBRANCH  11  12
ENDBRANCH  10  11
ENDBRANCH   9  10
ENDBRANCH   8   9
ENDBRANCH   7   8
ENDBRANCH   6   7
ENDBRANCH   5   6
ENDBRANCH   4   5
ENDBRANCH   3   4
ENDBRANCH   2   3
ENDBRANCH   1   2
BRANCH   1  15
HETATM   15  C   UNL     1     -21.252  -7.676  -3.144  1.00  0.00     0.027 C 
BRANCH  15  16
HETATM   16  C   UNL     1     -21.482  -7.965  -4.618  1.00  0.00     0.178 C 
BRANCH  16  17
HETATM   17  O   UNL     1     -21.600  -6.732  -5.333  1.00  0.00    -0.321 OA
BRANCH  17  18
HETATM   18  C   UNL     1     -20.446  -6.376  -5.973  1.00  0.00     0.258 C 
HETATM   19  O   UNL     1     -19.714  -7.133  -6.581  1.00  0.00    -0.265 OA
BRANCH  18  20
HETATM   20  C   UNL     1     -20.200  -4.894  -5.826  1.00  0.00     0.111 C 
BRANCH  20  21
HETATM   21  C   UNL     1     -20.116  -4.239  -7.199  1.00  0.00     0.010 C 
BRANCH  21  22
HETATM   22  C   UNL     1     -21.467  -3.716  -7.674  1.00  0.00     0.001 C 
BRANCH  22  23
HETATM   23  C   UNL     1     -21.951  -4.561  -8.851  1.00  0.00     0.000 C 
BRANCH  23  24
HETATM   24  C   UNL     1     -22.613  -3.711  -9.933  1.00  0.00     0.004 C 
BRANCH  24  25
HETATM   25  C   UNL     1     -21.992  -3.932 -11.324  1.00  0.00    -0.023 C 
HETATM   26  C   UNL     1     -22.486  -2.906 -12.348  1.00  0.00     0.009 C 
HETATM   27  C   UNL     1     -20.468  -3.869 -11.229  1.00  0.00     0.009 C 
ENDBRANCH  24  25
ENDBRANCH  23  24
ENDBRANCH  22  23
ENDBRANCH  21  22
ENDBRANCH  20  21
ENDBRANCH  18  20
ENDBRANCH  17  18
ENDBRANCH  16  17
ENDBRANCH  15  16
ENDBRANCH   1  15
TORSDOF 22
ENDMDL
MODEL 5
REMARK VINA RESULT:      -6.2      1.773      2.905
REMARK  22 active torsions:
REMARK  status: ('A' for Active; 'I' for Inactive)
REMARK    1  A    between atoms: C_2  and  C_3 
REMARK    2  A    between atoms: C_3  and  C_4 
REMARK    3  A    between atoms: C_4  and  C_5 
REMARK    4  A    between atoms: C_5  and  C_6 
REMARK    5  A    between atoms: C_6  and  C_7 
REMARK    6  A    between atoms: C_7  and  C_8 
REMARK    7  A    between atoms: C_8  and  C_9 
REMARK    8  A    between atoms: C_9  and  C_10 
REMARK    9  A    between atoms: C_10  and  C_11 
REMARK   10  A    between atoms: C_11  and  C_12 
REMARK   11  A    between atoms: C_12  and  C_13 
REMARK   12  A    between atoms: C_13  and  C_14 
REMARK   13  A    between atoms: C_14  and  C_15 
REMARK   14  A    between atoms: C_15  and  C_16 
REMARK   15  A    between atoms: C_16  and  O_17 
REMARK   16  A    between atoms: O_17  and  C_18 
REMARK   17  A    between atoms: C_18  and  C_20 
REMARK   18  A    between atoms: C_20  and  C_21 
REMARK   19  A    between atoms: C_21  and  C_22 
REMARK   20  A    between atoms: C_22  and  C_23 
REMARK   21  A    between atoms: C_23  and  C_24 
REMARK   22  A    between atoms: C_24  and  C_25 
ROOT
HETATM    1  C   UNL     1     -21.311  -7.119  -1.653  1.00  0.00     0.002 C 
ENDROOT
BRANCH   1   2
HETATM    2  C   UNL     1     -22.440  -7.247  -0.637  1.00  0.00     0.000 C 
BRANCH   2   3
HETATM    3  C   UNL     1     -22.221  -8.451   0.271  1.00  0.00     0.000 C 
BRANCH   3   4
HETATM    4  C   UNL     1     -23.426  -9.375   0.234  1.00  0.00     0.000 C 
BRANCH   4   5
HETATM    5  C   UNL     1     -22.999 -10.782  -0.147  1.00  0.00     0.000 C 
BRANCH   5   6
HETATM    6  C   UNL     1     -23.846 -11.289  -1.304  1.00  0.00     0.000 C 
BRANCH   6   7
HETATM    7  C   UNL     1     -22.959 -11.658  -2.481  1.00  0.00     0.000 C 
BRANCH   7   8
HETATM    8  C   UNL     1     -22.294 -10.415  -3.047  1.00  0.00     0.000 C 
BRANCH   8   9
HETATM    9  C   UNL     1     -21.467 -10.776  -4.271  1.00  0.00     0.000 C 
BRANCH   9  10
HETATM   10  C   UNL     1     -20.029 -10.319  -4.085  1.00  0.00     0.000 C 
BRANCH  10  11
HETATM   11  C   UNL     1     -19.771  -9.959  -2.629  1.00  0.00     0.000 C 
BRANCH  11  12
HETATM   12  C   UNL     1     -18.798 -10.950  -2.005  1.00  0.00    -0.000 C 
BRANCH  12  13
HETATM   13  C   UNL     1     -19.435 -11.663  -0.820  1.00  0.00    -0.005 C 
HETATM   14  C   UNL     1     -18.378 -12.087   0.182  1.00  0.00     0.005 C 
ENDBRANCH  12  13
ENDBRANCH  11  12
ENDBRANCH  10  11
ENDBRANCH   9  10
ENDBRANCH   8   9
ENDBRANCH   7   8
ENDBRANCH   6   7
ENDBRANCH   5   6
ENDBRANCH   4   5
ENDBRANCH   3   4
ENDBRANCH   2   3
ENDBRANCH   1   2
BRANCH   1  15
HETATM   15  C   UNL     1     -21.646  -6.083  -2.718  1.00  0.00     0.027 C 
BRANCH  15  16
HETATM   16  C   UNL     1     -22.036  -6.760  -4.022  1.00  0.00     0.178 C 
BRANCH  16  17
HETATM   17  O   UNL     1     -22.023  -5.799  -5.081  1.00  0.00    -0.321 OA
BRANCH  17  18
HETATM   18  C   UNL     1     -21.023  -6.018  -5.986  1.00  0.00     0.258 C 
HETATM   19  O   UNL     1     -20.966  -6.952  -6.763  1.00  0.00    -0.265 OA
BRANCH  18  20
HETATM   20  C   UNL     1     -19.985  -4.927  -5.895  1.00  0.00     0.111 C 
BRANCH  20  21
HETATM   21  C   UNL     1     -19.310  -4.733  -7.247  1.00  0.00     0.010 C 
BRANCH  21  22
HETATM   22  C   UNL     1     -20.128  -3.849  -8.181  1.00  0.00     0.001 C 
BRANCH  22  23
HETATM   23  C   UNL     1     -20.250  -4.530  -9.543  1.00  0.00     0.000 C 
BRANCH  23  24
HETATM   24  C   UNL     1     -21.358  -3.913 -10.395  1.00  0.00     0.004 C 
BRANCH  24  25
HETATM   25  C   UNL     1     -22.730  -4.564 -10.143  1.00  0.00    -0.023 C 
HETATM   26  C   UNL     1     -23.613  -3.716  -9.222  1.00  0.00     0.009 C 
HETATM   27  C   UNL     1     -23.448  -4.792 -11.473  1.00  0.00     0.009 C 
ENDBRANCH  24  25
ENDBRANCH  23  24
ENDBRANCH  22  23
ENDBRANCH  21  22
ENDBRANCH  20  21
ENDBRANCH  18  20
ENDBRANCH  17  18
ENDBRANCH  16  17
ENDBRANCH  15  16
ENDBRANCH   1  15
TORSDOF 22
ENDMDL
MODEL 6
REMARK VINA RESULT:      -6.0      2.702      9.790
REMARK  22 active torsions:
REMARK  status: ('A' for Active; 'I' for Inactive)
REMARK    1  A    between atoms: C_2  and  C_3 
REMARK    2  A    between atoms: C_3  and  C_4 
REMARK    3  A    between atoms: C_4  and  C_5 
REMARK    4  A    between atoms: C_5  and  C_6 
REMARK    5  A    between atoms: C_6  and  C_7 
REMARK    6  A    between atoms: C_7  and  C_8 
REMARK    7  A    between atoms: C_8  and  C_9 
REMARK    8  A    between atoms: C_9  and  C_10 
REMARK    9  A    between atoms: C_10  and  C_11 
REMARK   10  A    between atoms: C_11  and  C_12 
REMARK   11  A    between atoms: C_12  and  C_13 
REMARK   12  A    between atoms: C_13  and  C_14 
REMARK   13  A    between atoms: C_14  and  C_15 
REMARK   14  A    between atoms: C_15  and  C_16 
REMARK   15  A    between atoms: C_16  and  O_17 
REMARK   16  A    between atoms: O_17  and  C_18 
REMARK   17  A    between atoms: C_18  and  C_20 
REMARK   18  A    between atoms: C_20  and  C_21 
REMARK   19  A    between atoms: C_21  and  C_22 
REMARK   20  A    between atoms: C_22  and  C_23 
REMARK   21  A    between atoms: C_23  and  C_24 
REMARK   22  A    between atoms: C_24  and  C_25 
ROOT
HETATM    1  C   UNL     1     -22.406  -6.994  -0.543  1.00  0.00     0.002 C 
ENDROOT
BRANCH   1   2
HETATM    2  C   UNL     1     -21.709  -7.451  -1.818  1.00  0.00     0.000 C 
BRANCH   2   3
HETATM    3  C   UNL     1     -21.505  -6.284  -2.775  1.00  0.00     0.000 C 
BRANCH   3   4
HETATM    4  C   UNL     1     -21.857  -6.688  -4.197  1.00  0.00     0.000 C 
BRANCH   4   5
HETATM    5  C   UNL     1     -20.609  -7.127  -4.944  1.00  0.00     0.000 C 
BRANCH   5   6
HETATM    6  C   UNL     1     -20.485  -6.359  -6.249  1.00  0.00     0.000 C 
BRANCH   6   7
HETATM    7  C   UNL     1     -20.126  -4.908  -5.971  1.00  0.00     0.000 C 
BRANCH   7   8
HETATM    8  C   UNL     1     -20.838  -3.994  -6.954  1.00  0.00     0.000 C 
BRANCH   8   9
HETATM    9  C   UNL     1     -21.482  -4.815  -8.060  1.00  0.00     0.000 C 
BRANCH   9  10
HETATM   10  C   UNL     1     -21.164  -4.209  -9.417  1.00  0.00     0.000 C 
BRANCH  10  11
HETATM   11  C   UNL     1     -22.426  -3.648 -10.056  1.00  0.00     0.000 C 
BRANCH  11  12
HETATM   12  C   UNL     1     -22.394  -3.860 -11.563  1.00  0.00    -0.000 C 
BRANCH  12  13
HETATM   13  C   UNL     1     -23.255  -2.825 -12.275  1.00  0.00    -0.005 C 
HETATM   14  C   UNL     1     -22.995  -2.848 -13.769  1.00  0.00     0.005 C 
ENDBRANCH  12  13
ENDBRANCH  11  12
ENDBRANCH  10  11
ENDBRANCH   9  10
ENDBRANCH   8   9
ENDBRANCH   7   8
ENDBRANCH   6   7
ENDBRANCH   5   6
ENDBRANCH   4   5
ENDBRANCH   3   4
ENDBRANCH   2   3
ENDBRANCH   1   2
BRANCH   1  15
HETATM   15  C   UNL     1     -22.527  -8.137   0.457  1.00  0.00     0.027 C 
BRANCH  15  16
HETATM   16  C   UNL     1     -22.289  -9.474  -0.224  1.00  0.00     0.178 C 
BRANCH  16  17
HETATM   17  O   UNL     1     -23.533 -10.169  -0.359  1.00  0.00    -0.321 OA
BRANCH  17  18
HETATM   18  C   UNL     1     -23.445 -11.263  -1.172  1.00  0.00     0.258 C 
HETATM   19  O   UNL     1     -24.197 -12.218  -1.155  1.00  0.00    -0.265 OA
BRANCH  18  20
HETATM   20  C   UNL     1     -22.273 -11.124  -2.114  1.00  0.00     0.111 C 
BRANCH  20  21
HETATM   21  C   UNL     1     -22.769 -10.910  -3.538  1.00  0.00     0.010 C 
BRANCH  21  22
HETATM   22  C   UNL     1     -21.624 -10.766  -4.533  1.00  0.00     0.001 C 
BRANCH  22  23
HETATM   23  C   UNL     1     -20.293 -10.804  -3.783  1.00  0.00     0.000 C 
BRANCH  23  24
HETATM   24  C   UNL     1     -19.112 -10.476  -4.693  1.00  0.00     0.004 C 
BRANCH  24  25
HETATM   25  C   UNL     1     -18.122  -9.490  -4.049  1.00  0.00    -0.023 C 
HETATM   26  C   UNL     1     -18.433  -9.240  -2.570  1.00  0.00     0.009 C 
HETATM   27  C   UNL     1     -16.695 -10.020  -4.190  1.00  0.00     0.009 C 
ENDBRANCH  24  25
ENDBRANCH  23  24
ENDBRANCH  22  23
ENDBRANCH  21  22
ENDBRANCH  20  21
ENDBRANCH  18  20
ENDBRANCH  17  18
ENDBRANCH  16  17
ENDBRANCH  15  16
ENDBRANCH   1  15
TORSDOF 22
ENDMDL
MODEL 7
REMARK VINA RESULT:      -6.0      1.897      3.622
REMARK  22 active torsions:
REMARK  status: ('A' for Active; 'I' for Inactive)
REMARK    1  A    between atoms: C_2  and  C_3 
REMARK    2  A    between atoms: C_3  and  C_4 
REMARK    3  A    between atoms: C_4  and  C_5 
REMARK    4  A    between atoms: C_5  and  C_6 
REMARK    5  A    between atoms: C_6  and  C_7 
REMARK    6  A    between atoms: C_7  and  C_8 
REMARK    7  A    between atoms: C_8  and  C_9 
REMARK    8  A    between atoms: C_9  and  C_10 
REMARK    9  A    between atoms: C_10  and  C_11 
REMARK   10  A    between atoms: C_11  and  C_12 
REMARK   11  A    between atoms: C_12  and  C_13 
REMARK   12  A    between atoms: C_13  and  C_14 
REMARK   13  A    between atoms: C_14  and  C_15 
REMARK   14  A    between atoms: C_15  and  C_16 
REMARK   15  A    between atoms: C_16  and  O_17 
REMARK   16  A    between atoms: O_17  and  C_18 
REMARK   17  A    between atoms: C_18  and  C_20 
REMARK   18  A    between atoms: C_20  and  C_21 
REMARK   19  A    between atoms: C_21  and  C_22 
REMARK   20  A    between atoms: C_22  and  C_23 
REMARK   21  A    between atoms: C_23  and  C_24 
REMARK   22  A    between atoms: C_24  and  C_25 
ROOT
HETATM    1  C   UNL     1     -21.221  -7.765  -2.933  1.00  0.00     0.002 C 
ENDROOT
BRANCH   1   2
HETATM    2  C   UNL     1     -20.941  -7.939  -1.446  1.00  0.00     0.000 C 
BRANCH   2   3
HETATM    3  C   UNL     1     -22.141  -7.509  -0.612  1.00  0.00     0.000 C 
BRANCH   3   4
HETATM    4  C   UNL     1     -22.447  -8.542   0.460  1.00  0.00     0.000 C 
BRANCH   4   5
HETATM    5  C   UNL     1     -23.433  -9.571  -0.067  1.00  0.00     0.000 C 
BRANCH   5   6
HETATM    6  C   UNL     1     -22.771 -10.937  -0.141  1.00  0.00     0.000 C 
BRANCH   6   7
HETATM    7  C   UNL     1     -23.275 -11.698  -1.357  1.00  0.00     0.000 C 
BRANCH   7   8
HETATM    8  C   UNL     1     -22.984 -10.914  -2.625  1.00  0.00     0.000 C 
BRANCH   8   9
HETATM    9  C   UNL     1     -22.081 -11.720  -3.544  1.00  0.00     0.000 C 
BRANCH   9  10
HETATM   10  C   UNL     1     -20.622 -11.467  -3.200  1.00  0.00     0.000 C 
BRANCH  10  11
HETATM   11  C   UNL     1     -19.726 -11.871  -4.362  1.00  0.00     0.000 C 
BRANCH  11  12
HETATM   12  C   UNL     1     -18.312 -11.352  -4.144  1.00  0.00    -0.000 C 
BRANCH  12  13
HETATM   13  C   UNL     1     -18.307  -9.836  -3.994  1.00  0.00    -0.005 C 
HETATM   14  C   UNL     1     -17.412  -9.415  -2.844  1.00  0.00     0.005 C 
ENDBRANCH  12  13
ENDBRANCH  11  12
ENDBRANCH  10  11
ENDBRANCH   9  10
ENDBRANCH   8   9
ENDBRANCH   7   8
ENDBRANCH   6   7
ENDBRANCH   5   6
ENDBRANCH   4   5
ENDBRANCH   3   4
ENDBRANCH   2   3
ENDBRANCH   1   2
BRANCH   1  15
HETATM   15  C   UNL     1     -21.394  -6.295  -3.292  1.00  0.00     0.027 C 
BRANCH  15  16
HETATM   16  C   UNL     1     -21.548  -6.122  -4.793  1.00  0.00     0.178 C 
BRANCH  16  17
HETATM   17  O   UNL     1     -20.471  -5.326  -5.296  1.00  0.00    -0.321 OA
BRANCH  17  18
HETATM   18  C   UNL     1     -19.945  -5.816  -6.458  1.00  0.00     0.258 C 
HETATM   19  O   UNL     1     -19.700  -6.986  -6.684  1.00  0.00    -0.265 OA
BRANCH  18  20
HETATM   20  C   UNL     1     -19.709  -4.696  -7.441  1.00  0.00     0.111 C 
BRANCH  20  21
HETATM   21  C   UNL     1     -20.835  -4.652  -8.465  1.00  0.00     0.010 C 
BRANCH  21  22
HETATM   22  C   UNL     1     -21.945  -3.687  -8.063  1.00  0.00     0.001 C 
BRANCH  22  23
HETATM   23  C   UNL     1     -23.273  -4.176  -8.637  1.00  0.00     0.000 C 
BRANCH  23  24
HETATM   24  C   UNL     1     -23.161  -4.535 -10.117  1.00  0.00     0.004 C 
BRANCH  24  25
HETATM   25  C   UNL     1     -23.072  -3.294 -11.023  1.00  0.00    -0.023 C 
HETATM   26  C   UNL     1     -21.790  -3.279 -11.861  1.00  0.00     0.009 C 
HETATM   27  C   UNL     1     -24.289  -3.237 -11.947  1.00  0.00     0.009 C 
ENDBRANCH  24  25
ENDBRANCH  23  24
ENDBRANCH  22  23
ENDBRANCH  21  22
ENDBRANCH  20  21
ENDBRANCH  18  20
ENDBRANCH  17  18
ENDBRANCH  16  17
ENDBRANCH  15  16
ENDBRANCH   1  15
TORSDOF 22
ENDMDL
MODEL 8
REMARK VINA RESULT:      -5.8      1.935     10.892
REMARK  22 active torsions:
REMARK  status: ('A' for Active; 'I' for Inactive)
REMARK    1  A    between atoms: C_2  and  C_3 
REMARK    2  A    between atoms: C_3  and  C_4 
REMARK    3  A    between atoms: C_4  and  C_5 
REMARK    4  A    between atoms: C_5  and  C_6 
REMARK    5  A    between atoms: C_6  and  C_7 
REMARK    6  A    between atoms: C_7  and  C_8 
REMARK    7  A    between atoms: C_8  and  C_9 
REMARK    8  A    between atoms: C_9  and  C_10 
REMARK    9  A    between atoms: C_10  and  C_11 
REMARK   10  A    between atoms: C_11  and  C_12 
REMARK   11  A    between atoms: C_12  and  C_13 
REMARK   12  A    between atoms: C_13  and  C_14 
REMARK   13  A    between atoms: C_14  and  C_15 
REMARK   14  A    between atoms: C_15  and  C_16 
REMARK   15  A    between atoms: C_16  and  O_17 
REMARK   16  A    between atoms: O_17  and  C_18 
REMARK   17  A    between atoms: C_18  and  C_20 
REMARK   18  A    between atoms: C_20  and  C_21 
REMARK   19  A    between atoms: C_21  and  C_22 
REMARK   20  A    between atoms: C_22  and  C_23 
REMARK   21  A    between atoms: C_23  and  C_24 
REMARK   22  A    between atoms: C_24  and  C_25 
ROOT
HETATM    1  C   UNL     1     -21.438  -7.939  -5.511  1.00  0.00     0.002 C 
ENDROOT
BRANCH   1   2
HETATM    2  C   UNL     1     -20.419  -6.968  -4.930  1.00  0.00     0.000 C 
BRANCH   2   3
HETATM    3  C   UNL     1     -20.777  -5.529  -5.279  1.00  0.00     0.000 C 
BRANCH   3   4
HETATM    4  C   UNL     1     -21.840  -5.489  -6.364  1.00  0.00     0.000 C 
BRANCH   4   5
HETATM    5  C   UNL     1     -21.191  -5.503  -7.738  1.00  0.00     0.000 C 
BRANCH   5   6
HETATM    6  C   UNL     1     -20.890  -4.083  -8.187  1.00  0.00     0.000 C 
BRANCH   6   7
HETATM    7  C   UNL     1     -19.907  -4.096  -9.346  1.00  0.00     0.000 C 
BRANCH   7   8
HETATM    8  C   UNL     1     -20.638  -4.350 -10.652  1.00  0.00     0.000 C 
BRANCH   8   9
HETATM    9  C   UNL     1     -21.158  -3.041 -11.224  1.00  0.00     0.000 C 
BRANCH   9  10
HETATM   10  C   UNL     1     -22.030  -3.308 -12.439  1.00  0.00     0.000 C 
BRANCH  10  11
HETATM   11  C   UNL     1     -23.237  -4.151 -12.050  1.00  0.00     0.000 C 
BRANCH  11  12
HETATM   12  C   UNL     1     -24.396  -3.255 -11.639  1.00  0.00    -0.000 C 
BRANCH  12  13
HETATM   13  C   UNL     1     -24.624  -3.319 -10.134  1.00  0.00    -0.005 C 
HETATM   14  C   UNL     1     -24.325  -4.709  -9.605  1.00  0.00     0.005 C 
ENDBRANCH  12  13
ENDBRANCH  11  12
ENDBRANCH  10  11
ENDBRANCH   9  10
ENDBRANCH   8   9
ENDBRANCH   7   8
ENDBRANCH   6   7
ENDBRANCH   5   6
ENDBRANCH   4   5
ENDBRANCH   3   4
ENDBRANCH   2   3
ENDBRANCH   1   2
BRANCH   1  15
HETATM   15  C   UNL     1     -21.052  -9.382  -5.216  1.00  0.00     0.027 C 
BRANCH  15  16
HETATM   16  C   UNL     1     -21.811  -9.906  -4.009  1.00  0.00     0.178 C 
BRANCH  16  17
HETATM   17  O   UNL     1     -20.888 -10.467  -3.071  1.00  0.00    -0.321 OA
BRANCH  17  18
HETATM   18  C   UNL     1     -20.263  -9.520  -2.309  1.00  0.00     0.258 C 
HETATM   19  O   UNL     1     -19.059  -9.396  -2.184  1.00  0.00    -0.265 OA
BRANCH  18  20
HETATM   20  C   UNL     1     -21.280  -8.633  -1.635  1.00  0.00     0.111 C 
BRANCH  20  21
HETATM   21  C   UNL     1     -21.051  -8.623  -0.129  1.00  0.00     0.010 C 
BRANCH  21  22
HETATM   22  C   UNL     1     -22.062  -9.487   0.615  1.00  0.00     0.001 C 
BRANCH  22  23
HETATM   23  C   UNL     1     -23.254  -9.772  -0.298  1.00  0.00     0.000 C 
BRANCH  23  24
HETATM   24  C   UNL     1     -23.787 -11.192  -0.118  1.00  0.00     0.004 C 
BRANCH  24  25
HETATM   25  C   UNL     1     -22.711 -12.170   0.386  1.00  0.00    -0.023 C 
HETATM   26  C   UNL     1     -23.292 -13.245   1.308  1.00  0.00     0.009 C 
HETATM   27  C   UNL     1     -22.015 -12.835  -0.802  1.00  0.00     0.009 C 
ENDBRANCH  24  25
ENDBRANCH  23  24
ENDBRANCH  22  23
ENDBRANCH  21  22
ENDBRANCH  20  21
ENDBRANCH  18  20
ENDBRANCH  17  18
ENDBRANCH  16  17
ENDBRANCH  15  16
ENDBRANCH   1  15
TORSDOF 22
ENDMDL
MODEL 9
REMARK VINA RESULT:      -5.7      3.115      8.703
REMARK  22 active torsions:
REMARK  status: ('A' for Active; 'I' for Inactive)
REMARK    1  A    between atoms: C_2  and  C_3 
REMARK    2  A    between atoms: C_3  and  C_4 
REMARK    3  A    between atoms: C_4  and  C_5 
REMARK    4  A    between atoms: C_5  and  C_6 
REMARK    5  A    between atoms: C_6  and  C_7 
REMARK    6  A    between atoms: C_7  and  C_8 
REMARK    7  A    between atoms: C_8  and  C_9 
REMARK    8  A    between atoms: C_9  and  C_10 
REMARK    9  A    between atoms: C_10  and  C_11 
REMARK   10  A    between atoms: C_11  and  C_12 
REMARK   11  A    between atoms: C_12  and  C_13 
REMARK   12  A    between atoms: C_13  and  C_14 
REMARK   13  A    between atoms: C_14  and  C_15 
REMARK   14  A    between atoms: C_15  and  C_16 
REMARK   15  A    between atoms: C_16  and  O_17 
REMARK   16  A    between atoms: O_17  and  C_18 
REMARK   17  A    between atoms: C_18  and  C_20 
REMARK   18  A    between atoms: C_20  and  C_21 
REMARK   19  A    between atoms: C_21  and  C_22 
REMARK   20  A    between atoms: C_22  and  C_23 
REMARK   21  A    between atoms: C_23  and  C_24 
REMARK   22  A    between atoms: C_24  and  C_25 
ROOT
HETATM    1  C   UNL     1     -22.681 -11.439   0.097  1.00  0.00     0.002 C 
ENDROOT
BRANCH   1   2
HETATM    2  C   UNL     1     -23.006 -10.178  -0.694  1.00  0.00     0.000 C 
BRANCH   2   3
HETATM    3  C   UNL     1     -22.586  -8.931   0.073  1.00  0.00     0.000 C 
BRANCH   3   4
HETATM    4  C   UNL     1     -21.695  -8.048  -0.785  1.00  0.00     0.000 C 
BRANCH   4   5
HETATM    5  C   UNL     1     -22.401  -6.741  -1.105  1.00  0.00     0.000 C 
BRANCH   5   6
HETATM    6  C   UNL     1     -21.806  -6.121  -2.359  1.00  0.00     0.000 C 
BRANCH   6   7
HETATM    7  C   UNL     1     -21.731  -7.154  -3.471  1.00  0.00     0.000 C 
BRANCH   7   8
HETATM    8  C   UNL     1     -21.835  -6.476  -4.826  1.00  0.00     0.000 C 
BRANCH   8   9
HETATM    9  C   UNL     1     -20.463  -6.390  -5.474  1.00  0.00     0.000 C 
BRANCH   9  10
HETATM   10  C   UNL     1     -20.111  -4.940  -5.767  1.00  0.00     0.000 C 
BRANCH  10  11
HETATM   11  C   UNL     1     -19.395  -4.829  -7.106  1.00  0.00     0.000 C 
BRANCH  11  12
HETATM   12  C   UNL     1     -20.378  -4.441  -8.200  1.00  0.00    -0.000 C 
BRANCH  12  13
HETATM   13  C   UNL     1     -21.567  -3.686  -7.620  1.00  0.00    -0.005 C 
HETATM   14  C   UNL     1     -22.866  -4.187  -8.222  1.00  0.00     0.005 C 
ENDBRANCH  12  13
ENDBRANCH  11  12
ENDBRANCH  10  11
ENDBRANCH   9  10
ENDBRANCH   8   9
ENDBRANCH   7   8
ENDBRANCH   6   7
ENDBRANCH   5   6
ENDBRANCH   4   5
ENDBRANCH   3   4
ENDBRANCH   2   3
ENDBRANCH   1   2
BRANCH   1  15
HETATM   15  C   UNL     1     -21.414 -12.103  -0.424  1.00  0.00     0.027 C 
BRANCH  15  16
HETATM   16  C   UNL     1     -21.755 -13.266  -1.340  1.00  0.00     0.178 C 
BRANCH  16  17
HETATM   17  O   UNL     1     -21.190 -13.037  -2.634  1.00  0.00    -0.321 OA
BRANCH  17  18
HETATM   18  C   UNL     1     -22.137 -12.844  -3.601  1.00  0.00     0.258 C 
HETATM   19  O   UNL     1     -22.830 -13.713  -4.093  1.00  0.00    -0.265 OA
BRANCH  18  20
HETATM   20  C   UNL     1     -22.212 -11.384  -3.977  1.00  0.00     0.111 C 
BRANCH  20  21
HETATM   21  C   UNL     1     -20.861 -10.907  -4.495  1.00  0.00     0.010 C 
BRANCH  21  22
HETATM   22  C   UNL     1     -20.090 -10.111  -3.449  1.00  0.00     0.001 C 
BRANCH  22  23
HETATM   23  C   UNL     1     -18.591 -10.334  -3.647  1.00  0.00     0.000 C 
BRANCH  23  24
HETATM   24  C   UNL     1     -17.753  -9.326  -2.864  1.00  0.00     0.004 C 
BRANCH  24  25
HETATM   25  C   UNL     1     -16.243  -9.606  -2.963  1.00  0.00    -0.023 C 
HETATM   26  C   UNL     1     -15.826 -10.827  -2.137  1.00  0.00     0.009 C 
HETATM   27  C   UNL     1     -15.848  -9.816  -4.424  1.00  0.00     0.009 C 
ENDBRANCH  24  25
ENDBRANCH  23  24
ENDBRANCH  22  23
ENDBRANCH  21  22
ENDBRANCH  20  21
ENDBRANCH  18  20
ENDBRANCH  17  18
ENDBRANCH  16  17
ENDBRANCH  15  16
ENDBRANCH   1  15
TORSDOF 22
ENDMDL
