MODEL 1
REMARK VINA RESULT:      -5.9      0.000      0.000
REMARK  32 active torsions:
REMARK  status: ('A' for Active; 'I' for Inactive)
REMARK    1  A    between atoms: C_2  and  C_3 
REMARK    2  A    between atoms: C_3  and  C_4 
REMARK    3  A    between atoms: C_4  and  C_5 
REMARK    4  A    between atoms: C_5  and  C_6 
REMARK    5  A    between atoms: C_6  and  C_7 
REMARK    6  A    between atoms: C_7  and  C_8 
REMARK    7  A    between atoms: C_8  and  C_9 
REMARK    8  A    between atoms: C_9  and  C_10 
REMARK    9  A    between atoms: C_10  and  C_11 
REMARK   10  A    between atoms: C_11  and  C_12 
REMARK   11  A    between atoms: C_12  and  O_13 
REMARK   12  A    between atoms: O_13  and  C_14 
REMARK   13  A    between atoms: C_14  and  C_15 
REMARK   14  A    between atoms: C_15  and  O_16 
REMARK   15  A    between atoms: O_16  and  C_17 
REMARK   16  A    between atoms: C_17  and  C_18 
REMARK   17  A    between atoms: C_18  and  O_19 
REMARK   18  A    between atoms: O_19  and  C_20 
REMARK   19  A    between atoms: C_20  and  C_21 
REMARK   20  A    between atoms: C_21  and  O_22 
REMARK   21  A    between atoms: O_22  and  C_23 
REMARK   22  A    between atoms: C_23  and  C_24 
REMARK   23  A    between atoms: C_24  and  O_25 
REMARK   24  A    between atoms: O_25  and  C_26 
REMARK   25  A    between atoms: C_26  and  C_27 
REMARK   26  A    between atoms: C_27  and  O_28 
REMARK   27  A    between atoms: O_28  and  C_29 
REMARK   28  A    between atoms: C_29  and  C_30 
REMARK   29  A    between atoms: C_30  and  O_31 
REMARK   30  A    between atoms: O_31  and  C_32 
REMARK   31  A    between atoms: C_32  and  C_33 
REMARK   32  A    between atoms: C_33  and  O_34 
ROOT
HETATM    1  C   UNL     1     -30.024  -6.309 -17.802  1.00  0.00     0.193 C 
ENDROOT
BRANCH   1   2
HETATM    2  C   UNL     1     -31.402  -5.976 -17.261  1.00  0.00     0.193 C 
BRANCH   2   3
HETATM    3  O   UNL     1     -31.356  -4.667 -16.692  1.00  0.00    -0.387 OA
BRANCH   3   4
HETATM    4  C   UNL     1     -32.112  -3.742 -17.461  1.00  0.00     0.193 C 
BRANCH   4   5
HETATM    5  C   UNL     1     -33.471  -3.583 -16.809  1.00  0.00     0.193 C 
BRANCH   5   6
HETATM    6  O   UNL     1     -33.941  -2.269 -17.065  1.00  0.00    -0.389 OA
BRANCH   6   7
HETATM    7  C   UNL     1     -35.202  -2.056 -16.444  1.00  0.00     0.167 C 
BRANCH   7   8
HETATM    8  C   UNL     1     -35.395  -0.566 -16.237  1.00  0.00     0.026 C 
BRANCH   8   9
HETATM    9  C   UNL     1     -36.125  -0.317 -14.927  1.00  0.00     0.002 C 
BRANCH   9  10
HETATM   10  C   UNL     1     -35.142  -0.142 -13.782  1.00  0.00     0.000 C 
BRANCH  10  11
HETATM   11  C   UNL     1     -35.882  -0.183 -12.452  1.00  0.00     0.000 C 
BRANCH  11  12
HETATM   12  C   UNL     1     -35.658  -1.521 -11.765  1.00  0.00     0.000 C 
BRANCH  12  13
HETATM   13  C   UNL     1     -34.411  -2.195 -12.316  1.00  0.00     0.000 C 
BRANCH  13  14
HETATM   14  C   UNL     1     -33.470  -2.571 -11.182  1.00  0.00     0.000 C 
BRANCH  14  15
HETATM   15  C   UNL     1     -33.207  -4.070 -11.186  1.00  0.00     0.000 C 
BRANCH  15  16
HETATM   16  C   UNL     1     -34.365  -4.814 -10.534  1.00  0.00    -0.000 C 
BRANCH  16  17
HETATM   17  C   UNL     1     -34.367  -6.282 -10.947  1.00  0.00    -0.005 C 
HETATM   18  C   UNL     1     -34.803  -7.164  -9.792  1.00  0.00     0.005 C 
ENDBRANCH  16  17
ENDBRANCH  15  16
ENDBRANCH  14  15
ENDBRANCH  13  14
ENDBRANCH  12  13
ENDBRANCH  11  12
ENDBRANCH  10  11
ENDBRANCH   9  10
ENDBRANCH   8   9
ENDBRANCH   7   8
ENDBRANCH   6   7
ENDBRANCH   5   6
ENDBRANCH   4   5
ENDBRANCH   3   4
ENDBRANCH   2   3
ENDBRANCH   1   2
BRANCH   1  19
HETATM   19  O   UNL     1     -29.074  -6.082 -16.764  1.00  0.00    -0.387 OA
BRANCH  19  20
HETATM   20  C   UNL     1     -27.763  -6.468 -17.176  1.00  0.00     0.193 C 
BRANCH  20  21
HETATM   21  C   UNL     1     -26.892  -6.657 -15.947  1.00  0.00     0.193 C 
BRANCH  21  22
HETATM   22  O   UNL     1     -25.783  -5.768 -16.031  1.00  0.00    -0.387 OA
BRANCH  22  23
HETATM   23  C   UNL     1     -24.830  -6.046 -15.012  1.00  0.00     0.193 C 
BRANCH  23  24
HETATM   24  C   UNL     1     -24.621  -4.788 -14.190  1.00  0.00     0.193 C 
BRANCH  24  25
HETATM   25  O   UNL     1     -23.894  -3.840 -14.970  1.00  0.00    -0.387 OA
BRANCH  25  26
HETATM   26  C   UNL     1     -23.285  -2.863 -14.138  1.00  0.00     0.193 C 
BRANCH  26  27
HETATM   27  C   UNL     1     -23.800  -3.050 -12.722  1.00  0.00     0.193 C 
BRANCH  27  28
HETATM   28  O   UNL     1     -22.818  -2.575 -11.802  1.00  0.00    -0.387 OA
BRANCH  28  29
HETATM   29  C   UNL     1     -21.695  -3.452 -11.744  1.00  0.00     0.193 C 
BRANCH  29  30
HETATM   30  C   UNL     1     -21.848  -4.370 -10.540  1.00  0.00     0.193 C 
BRANCH  30  31
HETATM   31  O   UNL     1     -22.007  -3.584  -9.359  1.00  0.00    -0.387 OA
BRANCH  31  32
HETATM   32  C   UNL     1     -22.997  -4.143  -8.493  1.00  0.00     0.193 C 
BRANCH  32  33
HETATM   33  C   UNL     1     -24.336  -4.109  -9.203  1.00  0.00     0.190 C 
BRANCH  33  34
HETATM   34  O   UNL     1     -24.784  -2.765  -9.335  1.00  0.00    -0.399 OA
HETATM   35  H   UNL     1     -25.485  -2.629  -8.673  1.00  0.00     0.209 HD
ENDBRANCH  33  34
ENDBRANCH  32  33
ENDBRANCH  31  32
ENDBRANCH  30  31
ENDBRANCH  29  30
ENDBRANCH  28  29
ENDBRANCH  27  28
ENDBRANCH  26  27
ENDBRANCH  25  26
ENDBRANCH  24  25
ENDBRANCH  23  24
ENDBRANCH  22  23
ENDBRANCH  21  22
ENDBRANCH  20  21
ENDBRANCH  19  20
ENDBRANCH   1  19
TORSDOF 32
ENDMDL
MODEL 2
REMARK VINA RESULT:      -5.8      2.156     11.249
REMARK  32 active torsions:
REMARK  status: ('A' for Active; 'I' for Inactive)
REMARK    1  A    between atoms: C_2  and  C_3 
REMARK    2  A    between atoms: C_3  and  C_4 
REMARK    3  A    between atoms: C_4  and  C_5 
REMARK    4  A    between atoms: C_5  and  C_6 
REMARK    5  A    between atoms: C_6  and  C_7 
REMARK    6  A    between atoms: C_7  and  C_8 
REMARK    7  A    between atoms: C_8  and  C_9 
REMARK    8  A    between atoms: C_9  and  C_10 
REMARK    9  A    between atoms: C_10  and  C_11 
REMARK   10  A    between atoms: C_11  and  C_12 
REMARK   11  A    between atoms: C_12  and  O_13 
REMARK   12  A    between atoms: O_13  and  C_14 
REMARK   13  A    between atoms: C_14  and  C_15 
REMARK   14  A    between atoms: C_15  and  O_16 
REMARK   15  A    between atoms: O_16  and  C_17 
REMARK   16  A    between atoms: C_17  and  C_18 
REMARK   17  A    between atoms: C_18  and  O_19 
REMARK   18  A    between atoms: O_19  and  C_20 
REMARK   19  A    between atoms: C_20  and  C_21 
REMARK   20  A    between atoms: C_21  and  O_22 
REMARK   21  A    between atoms: O_22  and  C_23 
REMARK   22  A    between atoms: C_23  and  C_24 
REMARK   23  A    between atoms: C_24  and  O_25 
REMARK   24  A    between atoms: O_25  and  C_26 
REMARK   25  A    between atoms: C_26  and  C_27 
REMARK   26  A    between atoms: C_27  and  O_28 
REMARK   27  A    between atoms: O_28  and  C_29 
REMARK   28  A    between atoms: C_29  and  C_30 
REMARK   29  A    between atoms: C_30  and  O_31 
REMARK   30  A    between atoms: O_31  and  C_32 
REMARK   31  A    between atoms: C_32  and  C_33 
REMARK   32  A    between atoms: C_33  and  O_34 
ROOT
HETATM    1  C   UNL     1     -29.147  -6.310 -15.744  1.00  0.00     0.193 C 
ENDROOT
BRANCH   1   2
HETATM    2  C   UNL     1     -27.760  -6.921 -15.809  1.00  0.00     0.193 C 
BRANCH   2   3
HETATM    3  O   UNL     1     -26.910  -6.028 -16.532  1.00  0.00    -0.387 OA
BRANCH   3   4
HETATM    4  C   UNL     1     -25.560  -6.469 -16.512  1.00  0.00     0.193 C 
BRANCH   4   5
HETATM    5  C   UNL     1     -25.013  -6.253 -15.114  1.00  0.00     0.193 C 
BRANCH   5   6
HETATM    6  O   UNL     1     -24.618  -4.895 -14.992  1.00  0.00    -0.389 OA
BRANCH   6   7
HETATM    7  C   UNL     1     -24.248  -4.599 -13.651  1.00  0.00     0.167 C 
BRANCH   7   8
HETATM    8  C   UNL     1     -23.553  -3.251 -13.627  1.00  0.00     0.026 C 
BRANCH   8   9
HETATM    9  C   UNL     1     -23.192  -2.882 -12.197  1.00  0.00     0.002 C 
BRANCH   9  10
HETATM   10  C   UNL     1     -24.302  -3.276 -11.237  1.00  0.00     0.000 C 
BRANCH  10  11
HETATM   11  C   UNL     1     -23.710  -3.665  -9.890  1.00  0.00     0.000 C 
BRANCH  11  12
HETATM   12  C   UNL     1     -22.191  -3.676  -9.966  1.00  0.00     0.000 C 
BRANCH  12  13
HETATM   13  C   UNL     1     -21.618  -4.623  -8.923  1.00  0.00     0.000 C 
BRANCH  13  14
HETATM   14  C   UNL     1     -20.102  -4.671  -9.031  1.00  0.00     0.000 C 
BRANCH  14  15
HETATM   15  C   UNL     1     -19.466  -4.518  -7.657  1.00  0.00     0.000 C 
BRANCH  15  16
HETATM   16  C   UNL     1     -20.540  -4.465  -6.579  1.00  0.00    -0.000 C 
BRANCH  16  17
HETATM   17  C   UNL     1     -20.447  -5.678  -5.661  1.00  0.00    -0.005 C 
HETATM   18  C   UNL     1     -21.831  -6.166  -5.272  1.00  0.00     0.005 C 
ENDBRANCH  16  17
ENDBRANCH  15  16
ENDBRANCH  14  15
ENDBRANCH  13  14
ENDBRANCH  12  13
ENDBRANCH  11  12
ENDBRANCH  10  11
ENDBRANCH   9  10
ENDBRANCH   8   9
ENDBRANCH   7   8
ENDBRANCH   6   7
ENDBRANCH   5   6
ENDBRANCH   4   5
ENDBRANCH   3   4
ENDBRANCH   2   3
ENDBRANCH   1   2
BRANCH   1  19
HETATM   19  O   UNL     1     -29.582  -6.057 -17.078  1.00  0.00    -0.387 OA
BRANCH  19  20
HETATM   20  C   UNL     1     -31.001  -5.907 -17.134  1.00  0.00     0.193 C 
BRANCH  20  21
HETATM   21  C   UNL     1     -31.369  -4.501 -16.698  1.00  0.00     0.193 C 
BRANCH  21  22
HETATM   22  O   UNL     1     -32.781  -4.432 -16.521  1.00  0.00    -0.387 OA
BRANCH  22  23
HETATM   23  C   UNL     1     -33.331  -3.337 -17.244  1.00  0.00     0.193 C 
BRANCH  23  24
HETATM   24  C   UNL     1     -34.577  -2.858 -16.521  1.00  0.00     0.193 C 
BRANCH  24  25
HETATM   25  O   UNL     1     -34.747  -1.463 -16.767  1.00  0.00    -0.387 OA
BRANCH  25  26
HETATM   26  C   UNL     1     -36.125  -1.121 -16.797  1.00  0.00     0.193 C 
BRANCH  26  27
HETATM   27  C   UNL     1     -36.384  -0.075 -15.726  1.00  0.00     0.193 C 
BRANCH  27  28
HETATM   28  O   UNL     1     -36.424  -0.715 -14.451  1.00  0.00    -0.387 OA
BRANCH  28  29
HETATM   29  C   UNL     1     -35.561  -0.068 -13.519  1.00  0.00     0.193 C 
BRANCH  29  30
HETATM   30  C   UNL     1     -35.343  -0.987 -12.326  1.00  0.00     0.193 C 
BRANCH  30  31
HETATM   31  O   UNL     1     -34.413  -2.011 -12.678  1.00  0.00    -0.387 OA
BRANCH  31  32
HETATM   32  C   UNL     1     -34.624  -3.193 -11.904  1.00  0.00     0.193 C 
BRANCH  32  33
HETATM   33  C   UNL     1     -34.409  -4.400 -12.797  1.00  0.00     0.190 C 
BRANCH  33  34
HETATM   34  O   UNL     1     -33.277  -4.192 -13.633  1.00  0.00    -0.399 OA
HETATM   35  H   UNL     1     -33.328  -4.845 -14.353  1.00  0.00     0.209 HD
ENDBRANCH  33  34
ENDBRANCH  32  33
ENDBRANCH  31  32
ENDBRANCH  30  31
ENDBRANCH  29  30
ENDBRANCH  28  29
ENDBRANCH  27  28
ENDBRANCH  26  27
ENDBRANCH  25  26
ENDBRANCH  24  25
ENDBRANCH  23  24
ENDBRANCH  22  23
ENDBRANCH  21  22
ENDBRANCH  20  21
ENDBRANCH  19  20
ENDBRANCH   1  19
TORSDOF 32
ENDMDL
MODEL 3
REMARK VINA RESULT:      -5.6      7.807     15.780
REMARK  32 active torsions:
REMARK  status: ('A' for Active; 'I' for Inactive)
REMARK    1  A    between atoms: C_2  and  C_3 
REMARK    2  A    between atoms: C_3  and  C_4 
REMARK    3  A    between atoms: C_4  and  C_5 
REMARK    4  A    between atoms: C_5  and  C_6 
REMARK    5  A    between atoms: C_6  and  C_7 
REMARK    6  A    between atoms: C_7  and  C_8 
REMARK    7  A    between atoms: C_8  and  C_9 
REMARK    8  A    between atoms: C_9  and  C_10 
REMARK    9  A    between atoms: C_10  and  C_11 
REMARK   10  A    between atoms: C_11  and  C_12 
REMARK   11  A    between atoms: C_12  and  O_13 
REMARK   12  A    between atoms: O_13  and  C_14 
REMARK   13  A    between atoms: C_14  and  C_15 
REMARK   14  A    between atoms: C_15  and  O_16 
REMARK   15  A    between atoms: O_16  and  C_17 
REMARK   16  A    between atoms: C_17  and  C_18 
REMARK   17  A    between atoms: C_18  and  O_19 
REMARK   18  A    between atoms: O_19  and  C_20 
REMARK   19  A    between atoms: C_20  and  C_21 
REMARK   20  A    between atoms: C_21  and  O_22 
REMARK   21  A    between atoms: O_22  and  C_23 
REMARK   22  A    between atoms: C_23  and  C_24 
REMARK   23  A    between atoms: C_24  and  O_25 
REMARK   24  A    between atoms: O_25  and  C_26 
REMARK   25  A    between atoms: C_26  and  C_27 
REMARK   26  A    between atoms: C_27  and  O_28 
REMARK   27  A    between atoms: O_28  and  C_29 
REMARK   28  A    between atoms: C_29  and  C_30 
REMARK   29  A    between atoms: C_30  and  O_31 
REMARK   30  A    between atoms: O_31  and  C_32 
REMARK   31  A    between atoms: C_32  and  C_33 
REMARK   32  A    between atoms: C_33  and  O_34 
ROOT
HETATM    1  C   UNL     1     -21.695  -6.854  -5.082  1.00  0.00     0.193 C 
ENDROOT
BRANCH   1   2
HETATM    2  C   UNL     1     -20.859  -7.279  -3.889  1.00  0.00     0.193 C 
BRANCH   2   3
HETATM    3  O   UNL     1     -21.013  -6.299  -2.861  1.00  0.00    -0.387 OA
BRANCH   3   4
HETATM    4  C   UNL     1     -22.297  -6.379  -2.259  1.00  0.00     0.193 C 
BRANCH   4   5
HETATM    5  C   UNL     1     -22.293  -7.544  -1.288  1.00  0.00     0.193 C 
BRANCH   5   6
HETATM    6  O   UNL     1     -22.992  -7.154  -0.116  1.00  0.00    -0.389 OA
BRANCH   6   7
HETATM    7  C   UNL     1     -22.735  -8.062   0.947  1.00  0.00     0.167 C 
BRANCH   7   8
HETATM    8  C   UNL     1     -21.276  -8.473   0.891  1.00  0.00     0.026 C 
BRANCH   8   9
HETATM    9  C   UNL     1     -21.166  -9.989   0.934  1.00  0.00     0.002 C 
BRANCH   9  10
HETATM   10  C   UNL     1     -20.313 -10.506  -0.212  1.00  0.00     0.000 C 
BRANCH  10  11
HETATM   11  C   UNL     1     -20.148 -12.015  -0.098  1.00  0.00     0.000 C 
BRANCH  11  12
HETATM   12  C   UNL     1     -19.577 -12.581  -1.389  1.00  0.00     0.000 C 
BRANCH  12  13
HETATM   13  C   UNL     1     -18.203 -11.990  -1.662  1.00  0.00     0.000 C 
BRANCH  13  14
HETATM   14  C   UNL     1     -18.136 -11.446  -3.080  1.00  0.00     0.000 C 
BRANCH  14  15
HETATM   15  C   UNL     1     -17.645 -10.005  -3.073  1.00  0.00     0.000 C 
BRANCH  15  16
HETATM   16  C   UNL     1     -16.159  -9.949  -3.401  1.00  0.00    -0.000 C 
BRANCH  16  17
HETATM   17  C   UNL     1     -15.939  -9.878  -4.908  1.00  0.00    -0.005 C 
HETATM   18  C   UNL     1     -15.054 -11.019  -5.377  1.00  0.00     0.005 C 
ENDBRANCH  16  17
ENDBRANCH  15  16
ENDBRANCH  14  15
ENDBRANCH  13  14
ENDBRANCH  12  13
ENDBRANCH  11  12
ENDBRANCH  10  11
ENDBRANCH   9  10
ENDBRANCH   8   9
ENDBRANCH   7   8
ENDBRANCH   6   7
ENDBRANCH   5   6
ENDBRANCH   4   5
ENDBRANCH   3   4
ENDBRANCH   2   3
ENDBRANCH   1   2
BRANCH   1  19
HETATM   19  O   UNL     1     -21.352  -5.509  -5.406  1.00  0.00    -0.387 OA
BRANCH  19  20
HETATM   20  C   UNL     1     -20.074  -5.445  -6.040  1.00  0.00     0.193 C 
BRANCH  20  21
HETATM   21  C   UNL     1     -20.228  -5.806  -7.506  1.00  0.00     0.193 C 
BRANCH  21  22
HETATM   22  O   UNL     1     -20.123  -4.616  -8.283  1.00  0.00    -0.387 OA
BRANCH  22  23
HETATM   23  C   UNL     1     -21.269  -4.445  -9.108  1.00  0.00     0.193 C 
BRANCH  23  24
HETATM   24  C   UNL     1     -22.307  -3.654  -8.334  1.00  0.00     0.193 C 
BRANCH  24  25
HETATM   25  O   UNL     1     -23.512  -4.415  -8.266  1.00  0.00    -0.387 OA
BRANCH  25  26
HETATM   26  C   UNL     1     -24.081  -4.577  -9.558  1.00  0.00     0.193 C 
BRANCH  26  27
HETATM   27  C   UNL     1     -24.828  -3.304  -9.916  1.00  0.00     0.193 C 
BRANCH  27  28
HETATM   28  O   UNL     1     -24.702  -3.068 -11.318  1.00  0.00    -0.387 OA
BRANCH  28  29
HETATM   29  C   UNL     1     -23.372  -2.686 -11.661  1.00  0.00     0.193 C 
BRANCH  29  30
HETATM   30  C   UNL     1     -22.993  -3.342 -12.981  1.00  0.00     0.193 C 
BRANCH  30  31
HETATM   31  O   UNL     1     -23.858  -2.868 -14.013  1.00  0.00    -0.387 OA
BRANCH  31  32
HETATM   32  C   UNL     1     -23.125  -2.190 -15.035  1.00  0.00     0.193 C 
BRANCH  32  33
HETATM   33  C   UNL     1     -23.632  -0.764 -15.129  1.00  0.00     0.190 C 
BRANCH  33  34
HETATM   34  O   UNL     1     -24.964  -0.687 -14.636  1.00  0.00    -0.399 OA
HETATM   35  H   UNL     1     -25.479  -1.380 -15.087  1.00  0.00     0.209 HD
ENDBRANCH  33  34
ENDBRANCH  32  33
ENDBRANCH  31  32
ENDBRANCH  30  31
ENDBRANCH  29  30
ENDBRANCH  28  29
ENDBRANCH  27  28
ENDBRANCH  26  27
ENDBRANCH  25  26
ENDBRANCH  24  25
ENDBRANCH  23  24
ENDBRANCH  22  23
ENDBRANCH  21  22
ENDBRANCH  20  21
ENDBRANCH  19  20
ENDBRANCH   1  19
TORSDOF 32
ENDMDL
MODEL 4
REMARK VINA RESULT:      -5.5      8.596     17.352
REMARK  32 active torsions:
REMARK  status: ('A' for Active; 'I' for Inactive)
REMARK    1  A    between atoms: C_2  and  C_3 
REMARK    2  A    between atoms: C_3  and  C_4 
REMARK    3  A    between atoms: C_4  and  C_5 
REMARK    4  A    between atoms: C_5  and  C_6 
REMARK    5  A    between atoms: C_6  and  C_7 
REMARK    6  A    between atoms: C_7  and  C_8 
REMARK    7  A    between atoms: C_8  and  C_9 
REMARK    8  A    between atoms: C_9  and  C_10 
REMARK    9  A    between atoms: C_10  and  C_11 
REMARK   10  A    between atoms: C_11  and  C_12 
REMARK   11  A    between atoms: C_12  and  O_13 
REMARK   12  A    between atoms: O_13  and  C_14 
REMARK   13  A    between atoms: C_14  and  C_15 
REMARK   14  A    between atoms: C_15  and  O_16 
REMARK   15  A    between atoms: O_16  and  C_17 
REMARK   16  A    between atoms: C_17  and  C_18 
REMARK   17  A    between atoms: C_18  and  O_19 
REMARK   18  A    between atoms: O_19  and  C_20 
REMARK   19  A    between atoms: C_20  and  C_21 
REMARK   20  A    between atoms: C_21  and  O_22 
REMARK   21  A    between atoms: O_22  and  C_23 
REMARK   22  A    between atoms: C_23  and  C_24 
REMARK   23  A    between atoms: C_24  and  O_25 
REMARK   24  A    between atoms: O_25  and  C_26 
REMARK   25  A    between atoms: C_26  and  C_27 
REMARK   26  A    between atoms: C_27  and  O_28 
REMARK   27  A    between atoms: O_28  and  C_29 
REMARK   28  A    between atoms: C_29  and  C_30 
REMARK   29  A    between atoms: C_30  and  O_31 
REMARK   30  A    between atoms: O_31  and  C_32 
REMARK   31  A    between atoms: C_32  and  C_33 
REMARK   32  A    between atoms: C_33  and  O_34 
ROOT
HETATM    1  C   UNL     1     -22.415  -7.344  -0.471  1.00  0.00     0.193 C 
ENDROOT
BRANCH   1   2
HETATM    2  C   UNL     1     -21.960  -8.240   0.665  1.00  0.00     0.193 C 
BRANCH   2   3
HETATM    3  O   UNL     1     -22.222  -9.596   0.299  1.00  0.00    -0.387 OA
BRANCH   3   4
HETATM    4  C   UNL     1     -21.135 -10.444   0.643  1.00  0.00     0.193 C 
BRANCH   4   5
HETATM    5  C   UNL     1     -21.386 -11.808   0.030  1.00  0.00     0.193 C 
BRANCH   5   6
HETATM    6  O   UNL     1     -20.316 -12.106  -0.853  1.00  0.00    -0.389 OA
BRANCH   6   7
HETATM    7  C   UNL     1     -19.117 -11.478  -0.419  1.00  0.00     0.167 C 
BRANCH   7   8
HETATM    8  C   UNL     1     -18.095 -12.554  -0.102  1.00  0.00     0.026 C 
BRANCH   8   9
HETATM    9  C   UNL     1     -16.692 -12.024  -0.358  1.00  0.00     0.002 C 
BRANCH   9  10
HETATM   10  C   UNL     1     -16.477 -11.750  -1.837  1.00  0.00     0.000 C 
BRANCH  10  11
HETATM   11  C   UNL     1     -15.601 -10.518  -2.015  1.00  0.00     0.000 C 
BRANCH  11  12
HETATM   12  C   UNL     1     -16.264  -9.533  -2.965  1.00  0.00     0.000 C 
BRANCH  12  13
HETATM   13  C   UNL     1     -17.509 -10.151  -3.582  1.00  0.00     0.000 C 
BRANCH  13  14
HETATM   14  C   UNL     1     -17.381 -10.193  -5.097  1.00  0.00     0.000 C 
BRANCH  14  15
HETATM   15  C   UNL     1     -15.954  -9.875  -5.518  1.00  0.00     0.000 C 
BRANCH  15  16
HETATM   16  C   UNL     1     -15.350 -11.051  -6.275  1.00  0.00    -0.000 C 
BRANCH  16  17
HETATM   17  C   UNL     1     -15.193 -12.261  -5.360  1.00  0.00    -0.005 C 
HETATM   18  C   UNL     1     -13.767 -12.369  -4.851  1.00  0.00     0.005 C 
ENDBRANCH  16  17
ENDBRANCH  15  16
ENDBRANCH  14  15
ENDBRANCH  13  14
ENDBRANCH  12  13
ENDBRANCH  11  12
ENDBRANCH  10  11
ENDBRANCH   9  10
ENDBRANCH   8   9
ENDBRANCH   7   8
ENDBRANCH   6   7
ENDBRANCH   5   6
ENDBRANCH   4   5
ENDBRANCH   3   4
ENDBRANCH   2   3
ENDBRANCH   1   2
BRANCH   1  19
HETATM   19  O   UNL     1     -21.648  -7.672  -1.628  1.00  0.00    -0.387 OA
BRANCH  19  20
HETATM   20  C   UNL     1     -21.359  -6.506  -2.399  1.00  0.00     0.193 C 
BRANCH  20  21
HETATM   21  C   UNL     1     -21.851  -6.715  -3.819  1.00  0.00     0.193 C 
BRANCH  21  22
HETATM   22  O   UNL     1     -21.519  -5.566  -4.592  1.00  0.00    -0.387 OA
BRANCH  22  23
HETATM   23  C   UNL     1     -21.560  -5.860  -5.984  1.00  0.00     0.193 C 
BRANCH  23  24
HETATM   24  C   UNL     1     -20.239  -6.492  -6.382  1.00  0.00     0.193 C 
BRANCH  24  25
HETATM   25  O   UNL     1     -19.892  -6.050  -7.694  1.00  0.00    -0.387 OA
BRANCH  25  26
HETATM   26  C   UNL     1     -19.508  -4.683  -7.681  1.00  0.00     0.193 C 
BRANCH  26  27
HETATM   27  C   UNL     1     -20.280  -3.957  -8.769  1.00  0.00     0.193 C 
BRANCH  27  28
HETATM   28  O   UNL     1     -20.260  -4.744  -9.959  1.00  0.00    -0.387 OA
BRANCH  28  29
HETATM   29  C   UNL     1     -20.671  -3.982 -11.092  1.00  0.00     0.193 C 
BRANCH  29  30
HETATM   30  C   UNL     1     -22.080  -3.460 -10.852  1.00  0.00     0.193 C 
BRANCH  30  31
HETATM   31  O   UNL     1     -23.029  -4.417 -11.320  1.00  0.00    -0.387 OA
BRANCH  31  32
HETATM   32  C   UNL     1     -23.979  -4.746 -10.304  1.00  0.00     0.193 C 
BRANCH  32  33
HETATM   33  C   UNL     1     -24.378  -3.472  -9.584  1.00  0.00     0.190 C 
BRANCH  33  34
HETATM   34  O   UNL     1     -25.769  -3.234  -9.752  1.00  0.00    -0.399 OA
HETATM   35  H   UNL     1     -25.864  -2.355 -10.162  1.00  0.00     0.209 HD
ENDBRANCH  33  34
ENDBRANCH  32  33
ENDBRANCH  31  32
ENDBRANCH  30  31
ENDBRANCH  29  30
ENDBRANCH  28  29
ENDBRANCH  27  28
ENDBRANCH  26  27
ENDBRANCH  25  26
ENDBRANCH  24  25
ENDBRANCH  23  24
ENDBRANCH  22  23
ENDBRANCH  21  22
ENDBRANCH  20  21
ENDBRANCH  19  20
ENDBRANCH   1  19
TORSDOF 32
ENDMDL
MODEL 5
REMARK VINA RESULT:      -5.3      5.707     13.971
REMARK  32 active torsions:
REMARK  status: ('A' for Active; 'I' for Inactive)
REMARK    1  A    between atoms: C_2  and  C_3 
REMARK    2  A    between atoms: C_3  and  C_4 
REMARK    3  A    between atoms: C_4  and  C_5 
REMARK    4  A    between atoms: C_5  and  C_6 
REMARK    5  A    between atoms: C_6  and  C_7 
REMARK    6  A    between atoms: C_7  and  C_8 
REMARK    7  A    between atoms: C_8  and  C_9 
REMARK    8  A    between atoms: C_9  and  C_10 
REMARK    9  A    between atoms: C_10  and  C_11 
REMARK   10  A    between atoms: C_11  and  C_12 
REMARK   11  A    between atoms: C_12  and  O_13 
REMARK   12  A    between atoms: O_13  and  C_14 
REMARK   13  A    between atoms: C_14  and  C_15 
REMARK   14  A    between atoms: C_15  and  O_16 
REMARK   15  A    between atoms: O_16  and  C_17 
REMARK   16  A    between atoms: C_17  and  C_18 
REMARK   17  A    between atoms: C_18  and  O_19 
REMARK   18  A    between atoms: O_19  and  C_20 
REMARK   19  A    between atoms: C_20  and  C_21 
REMARK   20  A    between atoms: C_21  and  O_22 
REMARK   21  A    between atoms: O_22  and  C_23 
REMARK   22  A    between atoms: C_23  and  C_24 
REMARK   23  A    between atoms: C_24  and  O_25 
REMARK   24  A    between atoms: O_25  and  C_26 
REMARK   25  A    between atoms: C_26  and  C_27 
REMARK   26  A    between atoms: C_27  and  O_28 
REMARK   27  A    between atoms: O_28  and  C_29 
REMARK   28  A    between atoms: C_29  and  C_30 
REMARK   29  A    between atoms: C_30  and  O_31 
REMARK   30  A    between atoms: O_31  and  C_32 
REMARK   31  A    between atoms: C_32  and  C_33 
REMARK   32  A    between atoms: C_33  and  O_34 
ROOT
HETATM    1  C   UNL     1     -20.822  -4.753  -8.844  1.00  0.00     0.193 C 
ENDROOT
BRANCH   1   2
HETATM    2  C   UNL     1     -21.572  -5.169  -7.593  1.00  0.00     0.193 C 
BRANCH   2   3
HETATM    3  O   UNL     1     -20.691  -5.032  -6.476  1.00  0.00    -0.387 OA
BRANCH   3   4
HETATM    4  C   UNL     1     -20.294  -6.299  -5.972  1.00  0.00     0.193 C 
BRANCH   4   5
HETATM    5  C   UNL     1     -21.541  -7.132  -5.749  1.00  0.00     0.193 C 
BRANCH   5   6
HETATM    6  O   UNL     1     -21.968  -6.951  -4.408  1.00  0.00    -0.389 OA
BRANCH   6   7
HETATM    7  C   UNL     1     -21.181  -5.959  -3.760  1.00  0.00     0.167 C 
BRANCH   7   8
HETATM    8  C   UNL     1     -21.163  -6.251  -2.272  1.00  0.00     0.026 C 
BRANCH   8   9
HETATM    9  C   UNL     1     -22.304  -7.191  -1.917  1.00  0.00     0.002 C 
BRANCH   9  10
HETATM   10  C   UNL     1     -22.472  -7.300  -0.412  1.00  0.00     0.000 C 
BRANCH  10  11
HETATM   11  C   UNL     1     -21.990  -8.662   0.068  1.00  0.00     0.000 C 
BRANCH  11  12
HETATM   12  C   UNL     1     -23.031  -9.727  -0.241  1.00  0.00     0.000 C 
BRANCH  12  13
HETATM   13  C   UNL     1     -22.413 -10.846  -1.064  1.00  0.00     0.000 C 
BRANCH  13  14
HETATM   14  C   UNL     1     -22.735 -10.655  -2.538  1.00  0.00     0.000 C 
BRANCH  14  15
HETATM   15  C   UNL     1     -21.457 -10.452  -3.339  1.00  0.00     0.000 C 
BRANCH  15  16
HETATM   16  C   UNL     1     -20.237 -10.746  -2.475  1.00  0.00    -0.000 C 
BRANCH  16  17
HETATM   17  C   UNL     1     -19.304  -9.542  -2.427  1.00  0.00    -0.005 C 
HETATM   18  C   UNL     1     -18.855  -9.153  -3.824  1.00  0.00     0.005 C 
ENDBRANCH  16  17
ENDBRANCH  15  16
ENDBRANCH  14  15
ENDBRANCH  13  14
ENDBRANCH  12  13
ENDBRANCH  11  12
ENDBRANCH  10  11
ENDBRANCH   9  10
ENDBRANCH   8   9
ENDBRANCH   7   8
ENDBRANCH   6   7
ENDBRANCH   5   6
ENDBRANCH   4   5
ENDBRANCH   3   4
ENDBRANCH   2   3
ENDBRANCH   1   2
BRANCH   1  19
HETATM   19  O   UNL     1     -21.753  -4.144  -9.736  1.00  0.00    -0.387 OA
BRANCH  19  20
HETATM   20  C   UNL     1     -22.931  -3.732  -9.044  1.00  0.00     0.193 C 
BRANCH  20  21
HETATM   21  C   UNL     1     -23.991  -3.342 -10.058  1.00  0.00     0.193 C 
BRANCH  21  22
HETATM   22  O   UNL     1     -23.674  -3.946 -11.308  1.00  0.00    -0.387 OA
BRANCH  22  23
HETATM   23  C   UNL     1     -24.421  -3.354 -12.364  1.00  0.00     0.193 C 
BRANCH  23  24
HETATM   24  C   UNL     1     -23.557  -3.328 -13.611  1.00  0.00     0.193 C 
BRANCH  24  25
HETATM   25  O   UNL     1     -24.219  -4.053 -14.647  1.00  0.00    -0.387 OA
BRANCH  25  26
HETATM   26  C   UNL     1     -24.621  -5.336 -14.187  1.00  0.00     0.193 C 
BRANCH  26  27
HETATM   27  C   UNL     1     -25.018  -6.174 -15.390  1.00  0.00     0.193 C 
BRANCH  27  28
HETATM   28  O   UNL     1     -26.378  -5.896 -15.722  1.00  0.00    -0.387 OA
BRANCH  28  29
HETATM   29  C   UNL     1     -27.163  -7.086 -15.731  1.00  0.00     0.193 C 
BRANCH  29  30
HETATM   30  C   UNL     1     -28.537  -6.769 -16.302  1.00  0.00     0.193 C 
BRANCH  30  31
HETATM   31  O   UNL     1     -28.392  -5.958 -17.468  1.00  0.00    -0.387 OA
BRANCH  31  32
HETATM   32  C   UNL     1     -28.725  -6.687 -18.651  1.00  0.00     0.193 C 
BRANCH  32  33
HETATM   33  C   UNL     1     -29.882  -7.615 -18.337  1.00  0.00     0.190 C 
BRANCH  33  34
HETATM   34  O   UNL     1     -29.770  -8.809 -19.101  1.00  0.00    -0.399 OA
HETATM   35  H   UNL     1     -29.131  -8.635 -19.815  1.00  0.00     0.209 HD
ENDBRANCH  33  34
ENDBRANCH  32  33
ENDBRANCH  31  32
ENDBRANCH  30  31
ENDBRANCH  29  30
ENDBRANCH  28  29
ENDBRANCH  27  28
ENDBRANCH  26  27
ENDBRANCH  25  26
ENDBRANCH  24  25
ENDBRANCH  23  24
ENDBRANCH  22  23
ENDBRANCH  21  22
ENDBRANCH  20  21
ENDBRANCH  19  20
ENDBRANCH   1  19
TORSDOF 32
ENDMDL
MODEL 6
REMARK VINA RESULT:      -5.2      6.766     14.238
REMARK  32 active torsions:
REMARK  status: ('A' for Active; 'I' for Inactive)
REMARK    1  A    between atoms: C_2  and  C_3 
REMARK    2  A    between atoms: C_3  and  C_4 
REMARK    3  A    between atoms: C_4  and  C_5 
REMARK    4  A    between atoms: C_5  and  C_6 
REMARK    5  A    between atoms: C_6  and  C_7 
REMARK    6  A    between atoms: C_7  and  C_8 
REMARK    7  A    between atoms: C_8  and  C_9 
REMARK    8  A    between atoms: C_9  and  C_10 
REMARK    9  A    between atoms: C_10  and  C_11 
REMARK   10  A    between atoms: C_11  and  C_12 
REMARK   11  A    between atoms: C_12  and  O_13 
REMARK   12  A    between atoms: O_13  and  C_14 
REMARK   13  A    between atoms: C_14  and  C_15 
REMARK   14  A    between atoms: C_15  and  O_16 
REMARK   15  A    between atoms: O_16  and  C_17 
REMARK   16  A    between atoms: C_17  and  C_18 
REMARK   17  A    between atoms: C_18  and  O_19 
REMARK   18  A    between atoms: O_19  and  C_20 
REMARK   19  A    between atoms: C_20  and  C_21 
REMARK   20  A    between atoms: C_21  and  O_22 
REMARK   21  A    between atoms: O_22  and  C_23 
REMARK   22  A    between atoms: C_23  and  C_24 
REMARK   23  A    between atoms: C_24  and  O_25 
REMARK   24  A    between atoms: O_25  and  C_26 
REMARK   25  A    between atoms: C_26  and  C_27 
REMARK   26  A    between atoms: C_27  and  O_28 
REMARK   27  A    between atoms: O_28  and  C_29 
REMARK   28  A    between atoms: C_29  and  C_30 
REMARK   29  A    between atoms: C_30  and  O_31 
REMARK   30  A    between atoms: O_31  and  C_32 
REMARK   31  A    between atoms: C_32  and  C_33 
REMARK   32  A    between atoms: C_33  and  O_34 
ROOT
HETATM    1  C   UNL     1     -20.005  -4.663  -9.138  1.00  0.00     0.193 C 
ENDROOT
BRANCH   1   2
HETATM    2  C   UNL     1     -20.378  -4.867  -7.681  1.00  0.00     0.193 C 
BRANCH   2   3
HETATM    3  O   UNL     1     -19.984  -6.186  -7.298  1.00  0.00    -0.387 OA
BRANCH   3   4
HETATM    4  C   UNL     1     -20.967  -6.802  -6.479  1.00  0.00     0.193 C 
BRANCH   4   5
HETATM    5  C   UNL     1     -20.768  -6.317  -5.056  1.00  0.00     0.193 C 
BRANCH   5   6
HETATM    6  O   UNL     1     -22.025  -5.901  -4.545  1.00  0.00    -0.389 OA
BRANCH   6   7
HETATM    7  C   UNL     1     -22.472  -6.787  -3.527  1.00  0.00     0.167 C 
BRANCH   7   8
HETATM    8  C   UNL     1     -22.148  -6.177  -2.177  1.00  0.00     0.026 C 
BRANCH   8   9
HETATM    9  C   UNL     1     -21.567  -7.239  -1.257  1.00  0.00     0.002 C 
BRANCH   9  10
HETATM   10  C   UNL     1     -22.563  -7.628  -0.178  1.00  0.00     0.000 C 
BRANCH  10  11
HETATM   11  C   UNL     1     -21.830  -8.219   1.017  1.00  0.00     0.000 C 
BRANCH  11  12
HETATM   12  C   UNL     1     -21.419  -9.654   0.726  1.00  0.00     0.000 C 
BRANCH  12  13
HETATM   13  C   UNL     1     -22.564 -10.408   0.068  1.00  0.00     0.000 C 
BRANCH  13  14
HETATM   14  C   UNL     1     -22.221 -11.885  -0.056  1.00  0.00     0.000 C 
BRANCH  14  15
HETATM   15  C   UNL     1     -23.453 -12.684  -0.453  1.00  0.00     0.000 C 
BRANCH  15  16
HETATM   16  C   UNL     1     -23.596 -13.915   0.434  1.00  0.00    -0.000 C 
BRANCH  16  17
HETATM   17  C   UNL     1     -23.285 -13.575   1.886  1.00  0.00    -0.005 C 
HETATM   18  C   UNL     1     -22.887 -14.821   2.657  1.00  0.00     0.005 C 
ENDBRANCH  16  17
ENDBRANCH  15  16
ENDBRANCH  14  15
ENDBRANCH  13  14
ENDBRANCH  12  13
ENDBRANCH  11  12
ENDBRANCH  10  11
ENDBRANCH   9  10
ENDBRANCH   8   9
ENDBRANCH   7   8
ENDBRANCH   6   7
ENDBRANCH   5   6
ENDBRANCH   4   5
ENDBRANCH   3   4
ENDBRANCH   2   3
ENDBRANCH   1   2
BRANCH   1  19
HETATM   19  O   UNL     1     -20.961  -3.780  -9.720  1.00  0.00    -0.387 OA
BRANCH  19  20
HETATM   20  C   UNL     1     -22.289  -4.138  -9.337  1.00  0.00     0.193 C 
BRANCH  20  21
HETATM   21  C   UNL     1     -23.263  -3.623 -10.380  1.00  0.00     0.193 C 
BRANCH  21  22
HETATM   22  O   UNL     1     -22.539  -2.869 -11.349  1.00  0.00    -0.387 OA
BRANCH  22  23
HETATM   23  C   UNL     1     -23.388  -2.468 -12.418  1.00  0.00     0.193 C 
BRANCH  23  24
HETATM   24  C   UNL     1     -22.721  -2.841 -13.729  1.00  0.00     0.193 C 
BRANCH  24  25
HETATM   25  O   UNL     1     -23.710  -3.345 -14.625  1.00  0.00    -0.387 OA
BRANCH  25  26
HETATM   26  C   UNL     1     -24.732  -4.029 -13.915  1.00  0.00     0.193 C 
BRANCH  26  27
HETATM   27  C   UNL     1     -24.694  -5.495 -14.312  1.00  0.00     0.193 C 
BRANCH  27  28
HETATM   28  O   UNL     1     -25.020  -5.611 -15.696  1.00  0.00    -0.387 OA
BRANCH  28  29
HETATM   29  C   UNL     1     -25.523  -6.909 -16.004  1.00  0.00     0.193 C 
BRANCH  29  30
HETATM   30  C   UNL     1     -27.044  -6.867 -15.984  1.00  0.00     0.193 C 
BRANCH  30  31
HETATM   31  O   UNL     1     -27.505  -5.874 -16.899  1.00  0.00    -0.387 OA
BRANCH  31  32
HETATM   32  C   UNL     1     -28.184  -6.465 -18.009  1.00  0.00     0.193 C 
BRANCH  32  33
HETATM   33  C   UNL     1     -29.539  -6.959 -17.540  1.00  0.00     0.190 C 
BRANCH  33  34
HETATM   34  O   UNL     1     -29.681  -8.343 -17.831  1.00  0.00    -0.399 OA
HETATM   35  H   UNL     1     -28.957  -8.586 -18.436  1.00  0.00     0.209 HD
ENDBRANCH  33  34
ENDBRANCH  32  33
ENDBRANCH  31  32
ENDBRANCH  30  31
ENDBRANCH  29  30
ENDBRANCH  28  29
ENDBRANCH  27  28
ENDBRANCH  26  27
ENDBRANCH  25  26
ENDBRANCH  24  25
ENDBRANCH  23  24
ENDBRANCH  22  23
ENDBRANCH  21  22
ENDBRANCH  20  21
ENDBRANCH  19  20
ENDBRANCH   1  19
TORSDOF 32
ENDMDL
MODEL 7
REMARK VINA RESULT:      -5.2      8.349     16.379
REMARK  32 active torsions:
REMARK  status: ('A' for Active; 'I' for Inactive)
REMARK    1  A    between atoms: C_2  and  C_3 
REMARK    2  A    between atoms: C_3  and  C_4 
REMARK    3  A    between atoms: C_4  and  C_5 
REMARK    4  A    between atoms: C_5  and  C_6 
REMARK    5  A    between atoms: C_6  and  C_7 
REMARK    6  A    between atoms: C_7  and  C_8 
REMARK    7  A    between atoms: C_8  and  C_9 
REMARK    8  A    between atoms: C_9  and  C_10 
REMARK    9  A    between atoms: C_10  and  C_11 
REMARK   10  A    between atoms: C_11  and  C_12 
REMARK   11  A    between atoms: C_12  and  O_13 
REMARK   12  A    between atoms: O_13  and  C_14 
REMARK   13  A    between atoms: C_14  and  C_15 
REMARK   14  A    between atoms: C_15  and  O_16 
REMARK   15  A    between atoms: O_16  and  C_17 
REMARK   16  A    between atoms: C_17  and  C_18 
REMARK   17  A    between atoms: C_18  and  O_19 
REMARK   18  A    between atoms: O_19  and  C_20 
REMARK   19  A    between atoms: C_20  and  C_21 
REMARK   20  A    between atoms: C_21  and  O_22 
REMARK   21  A    between atoms: O_22  and  C_23 
REMARK   22  A    between atoms: C_23  and  C_24 
REMARK   23  A    between atoms: C_24  and  O_25 
REMARK   24  A    between atoms: O_25  and  C_26 
REMARK   25  A    between atoms: C_26  and  C_27 
REMARK   26  A    between atoms: C_27  and  O_28 
REMARK   27  A    between atoms: O_28  and  C_29 
REMARK   28  A    between atoms: C_29  and  C_30 
REMARK   29  A    between atoms: C_30  and  O_31 
REMARK   30  A    between atoms: O_31  and  C_32 
REMARK   31  A    between atoms: C_32  and  C_33 
REMARK   32  A    between atoms: C_33  and  O_34 
ROOT
HETATM    1  C   UNL     1     -17.579 -10.599  -5.934  1.00  0.00     0.193 C 
ENDROOT
BRANCH   1   2
HETATM    2  C   UNL     1     -16.253  -9.886  -5.747  1.00  0.00     0.193 C 
BRANCH   2   3
HETATM    3  O   UNL     1     -15.235 -10.872  -5.564  1.00  0.00    -0.387 OA
BRANCH   3   4
HETATM    4  C   UNL     1     -15.716 -11.979  -4.815  1.00  0.00     0.193 C 
BRANCH   4   5
HETATM    5  C   UNL     1     -15.176 -11.866  -3.403  1.00  0.00     0.193 C 
BRANCH   5   6
HETATM    6  O   UNL     1     -16.176 -11.278  -2.586  1.00  0.00    -0.389 OA
BRANCH   6   7
HETATM    7  C   UNL     1     -17.077 -12.267  -2.104  1.00  0.00     0.167 C 
BRANCH   7   8
HETATM    8  C   UNL     1     -17.857 -11.686  -0.940  1.00  0.00     0.026 C 
BRANCH   8   9
HETATM    9  C   UNL     1     -19.049 -12.576  -0.623  1.00  0.00     0.002 C 
BRANCH   9  10
HETATM   10  C   UNL     1     -20.334 -11.979  -1.170  1.00  0.00     0.000 C 
BRANCH  10  11
HETATM   11  C   UNL     1     -21.352 -13.081  -1.426  1.00  0.00     0.000 C 
BRANCH  11  12
HETATM   12  C   UNL     1     -22.489 -12.992  -0.420  1.00  0.00     0.000 C 
BRANCH  12  13
HETATM   13  C   UNL     1     -22.469 -11.642   0.280  1.00  0.00     0.000 C 
BRANCH  13  14
HETATM   14  C   UNL     1     -23.729 -10.857  -0.054  1.00  0.00     0.000 C 
BRANCH  14  15
HETATM   15  C   UNL     1     -23.453  -9.362   0.001  1.00  0.00     0.000 C 
BRANCH  15  16
HETATM   16  C   UNL     1     -22.000  -9.104   0.376  1.00  0.00    -0.000 C 
BRANCH  16  17
HETATM   17  C   UNL     1     -21.302  -8.276  -0.697  1.00  0.00    -0.005 C 
HETATM   18  C   UNL     1     -22.109  -7.033  -1.026  1.00  0.00     0.005 C 
ENDBRANCH  16  17
ENDBRANCH  15  16
ENDBRANCH  14  15
ENDBRANCH  13  14
ENDBRANCH  12  13
ENDBRANCH  11  12
ENDBRANCH  10  11
ENDBRANCH   9  10
ENDBRANCH   8   9
ENDBRANCH   7   8
ENDBRANCH   6   7
ENDBRANCH   5   6
ENDBRANCH   4   5
ENDBRANCH   3   4
ENDBRANCH   2   3
ENDBRANCH   1   2
BRANCH   1  19
HETATM   19  O   UNL     1     -18.581  -9.615  -6.177  1.00  0.00    -0.387 OA
BRANCH  19  20
HETATM   20  C   UNL     1     -19.092  -9.091  -4.951  1.00  0.00     0.193 C 
BRANCH  20  21
HETATM   21  C   UNL     1     -20.609  -9.111  -4.997  1.00  0.00     0.193 C 
BRANCH  21  22
HETATM   22  O   UNL     1     -21.050  -8.169  -5.970  1.00  0.00    -0.387 OA
BRANCH  22  23
HETATM   23  C   UNL     1     -21.453  -6.952  -5.352  1.00  0.00     0.193 C 
BRANCH  23  24
HETATM   24  C   UNL     1     -20.866  -5.794  -6.138  1.00  0.00     0.193 C 
BRANCH  24  25
HETATM   25  O   UNL     1     -20.990  -6.070  -7.532  1.00  0.00    -0.387 OA
BRANCH  25  26
HETATM   26  C   UNL     1     -20.357  -5.061  -8.305  1.00  0.00     0.193 C 
BRANCH  26  27
HETATM   27  C   UNL     1     -21.403  -4.407  -9.190  1.00  0.00     0.193 C 
BRANCH  27  28
HETATM   28  O   UNL     1     -22.383  -3.778  -8.365  1.00  0.00    -0.387 OA
BRANCH  28  29
HETATM   29  C   UNL     1     -23.668  -3.793  -8.983  1.00  0.00     0.193 C 
BRANCH  29  30
HETATM   30  C   UNL     1     -23.491  -3.934 -10.488  1.00  0.00     0.193 C 
BRANCH  30  31
HETATM   31  O   UNL     1     -24.373  -3.033 -11.157  1.00  0.00    -0.387 OA
BRANCH  31  32
HETATM   32  C   UNL     1     -24.175  -3.068 -12.572  1.00  0.00     0.193 C 
BRANCH  32  33
HETATM   33  C   UNL     1     -22.685  -3.028 -12.853  1.00  0.00     0.190 C 
BRANCH  33  34
HETATM   34  O   UNL     1     -22.450  -3.137 -14.251  1.00  0.00    -0.399 OA
HETATM   35  H   UNL     1     -22.145  -4.045 -14.422  1.00  0.00     0.209 HD
ENDBRANCH  33  34
ENDBRANCH  32  33
ENDBRANCH  31  32
ENDBRANCH  30  31
ENDBRANCH  29  30
ENDBRANCH  28  29
ENDBRANCH  27  28
ENDBRANCH  26  27
ENDBRANCH  25  26
ENDBRANCH  24  25
ENDBRANCH  23  24
ENDBRANCH  22  23
ENDBRANCH  21  22
ENDBRANCH  20  21
ENDBRANCH  19  20
ENDBRANCH   1  19
TORSDOF 32
ENDMDL
MODEL 8
REMARK VINA RESULT:      -5.2      8.798     16.613
REMARK  32 active torsions:
REMARK  status: ('A' for Active; 'I' for Inactive)
REMARK    1  A    between atoms: C_2  and  C_3 
REMARK    2  A    between atoms: C_3  and  C_4 
REMARK    3  A    between atoms: C_4  and  C_5 
REMARK    4  A    between atoms: C_5  and  C_6 
REMARK    5  A    between atoms: C_6  and  C_7 
REMARK    6  A    between atoms: C_7  and  C_8 
REMARK    7  A    between atoms: C_8  and  C_9 
REMARK    8  A    between atoms: C_9  and  C_10 
REMARK    9  A    between atoms: C_10  and  C_11 
REMARK   10  A    between atoms: C_11  and  C_12 
REMARK   11  A    between atoms: C_12  and  O_13 
REMARK   12  A    between atoms: O_13  and  C_14 
REMARK   13  A    between atoms: C_14  and  C_15 
REMARK   14  A    between atoms: C_15  and  O_16 
REMARK   15  A    between atoms: O_16  and  C_17 
REMARK   16  A    between atoms: C_17  and  C_18 
REMARK   17  A    between atoms: C_18  and  O_19 
REMARK   18  A    between atoms: O_19  and  C_20 
REMARK   19  A    between atoms: C_20  and  C_21 
REMARK   20  A    between atoms: C_21  and  O_22 
REMARK   21  A    between atoms: O_22  and  C_23 
REMARK   22  A    between atoms: C_23  and  C_24 
REMARK   23  A    between atoms: C_24  and  O_25 
REMARK   24  A    between atoms: O_25  and  C_26 
REMARK   25  A    between atoms: C_26  and  C_27 
REMARK   26  A    between atoms: C_27  and  O_28 
REMARK   27  A    between atoms: O_28  and  C_29 
REMARK   28  A    between atoms: C_29  and  C_30 
REMARK   29  A    between atoms: C_30  and  O_31 
REMARK   30  A    between atoms: O_31  and  C_32 
REMARK   31  A    between atoms: C_32  and  C_33 
REMARK   32  A    between atoms: C_33  and  O_34 
ROOT
HETATM    1  C   UNL     1     -17.677 -10.838  -5.167  1.00  0.00     0.193 C 
ENDROOT
BRANCH   1   2
HETATM    2  C   UNL     1     -16.430 -10.335  -5.870  1.00  0.00     0.193 C 
BRANCH   2   3
HETATM    3  O   UNL     1     -15.289 -10.829  -5.165  1.00  0.00    -0.387 OA
BRANCH   3   4
HETATM    4  C   UNL     1     -15.486 -12.169  -4.736  1.00  0.00     0.193 C 
BRANCH   4   5
HETATM    5  C   UNL     1     -14.743 -12.361  -3.429  1.00  0.00     0.193 C 
BRANCH   5   6
HETATM    6  O   UNL     1     -15.371 -11.566  -2.435  1.00  0.00    -0.389 OA
BRANCH   6   7
HETATM    7  C   UNL     1     -16.513 -12.230  -1.908  1.00  0.00     0.167 C 
BRANCH   7   8
HETATM    8  C   UNL     1     -16.581 -11.965  -0.416  1.00  0.00     0.026 C 
BRANCH   8   9
HETATM    9  C   UNL     1     -17.872 -12.536   0.150  1.00  0.00     0.002 C 
BRANCH   9  10
HETATM   10  C   UNL     1     -19.083 -11.840  -0.449  1.00  0.00     0.000 C 
BRANCH  10  11
HETATM   11  C   UNL     1     -20.286 -12.012   0.467  1.00  0.00     0.000 C 
BRANCH  11  12
HETATM   12  C   UNL     1     -20.862 -10.655   0.841  1.00  0.00     0.000 C 
BRANCH  12  13
HETATM   13  C   UNL     1     -21.393  -9.948  -0.396  1.00  0.00     0.000 C 
BRANCH  13  14
HETATM   14  C   UNL     1     -22.767  -9.359  -0.117  1.00  0.00     0.000 C 
BRANCH  14  15
HETATM   15  C   UNL     1     -23.788 -10.470   0.087  1.00  0.00     0.000 C 
BRANCH  15  16
HETATM   16  C   UNL     1     -23.961 -11.274  -1.195  1.00  0.00    -0.000 C 
BRANCH  16  17
HETATM   17  C   UNL     1     -24.048 -12.765  -0.892  1.00  0.00    -0.005 C 
HETATM   18  C   UNL     1     -23.663 -13.044   0.550  1.00  0.00     0.005 C 
ENDBRANCH  16  17
ENDBRANCH  15  16
ENDBRANCH  14  15
ENDBRANCH  13  14
ENDBRANCH  12  13
ENDBRANCH  11  12
ENDBRANCH  10  11
ENDBRANCH   9  10
ENDBRANCH   8   9
ENDBRANCH   7   8
ENDBRANCH   6   7
ENDBRANCH   5   6
ENDBRANCH   4   5
ENDBRANCH   3   4
ENDBRANCH   2   3
ENDBRANCH   1   2
BRANCH   1  19
HETATM   19  O   UNL     1     -18.812 -10.286  -5.831  1.00  0.00    -0.387 OA
BRANCH  19  20
HETATM   20  C   UNL     1     -19.527  -9.399  -4.970  1.00  0.00     0.193 C 
BRANCH  20  21
HETATM   21  C   UNL     1     -20.985  -9.368  -5.390  1.00  0.00     0.193 C 
BRANCH  21  22
HETATM   22  O   UNL     1     -21.245  -8.133  -6.050  1.00  0.00    -0.387 OA
BRANCH  22  23
HETATM   23  C   UNL     1     -21.007  -7.032  -5.181  1.00  0.00     0.193 C 
BRANCH  23  24
HETATM   24  C   UNL     1     -20.541  -5.852  -6.012  1.00  0.00     0.193 C 
BRANCH  24  25
HETATM   25  O   UNL     1     -20.789  -6.129  -7.390  1.00  0.00    -0.387 OA
BRANCH  25  26
HETATM   26  C   UNL     1     -19.988  -5.304  -8.223  1.00  0.00     0.193 C 
BRANCH  26  27
HETATM   27  C   UNL     1     -20.900  -4.570  -9.191  1.00  0.00     0.193 C 
BRANCH  27  28
HETATM   28  O   UNL     1     -20.149  -4.195 -10.345  1.00  0.00    -0.387 OA
BRANCH  28  29
HETATM   29  C   UNL     1     -21.001  -3.718 -11.385  1.00  0.00     0.193 C 
BRANCH  29  30
HETATM   30  C   UNL     1     -22.364  -4.381 -11.251  1.00  0.00     0.193 C 
BRANCH  30  31
HETATM   31  O   UNL     1     -23.224  -3.913 -12.289  1.00  0.00    -0.387 OA
BRANCH  31  32
HETATM   32  C   UNL     1     -24.390  -3.285 -11.754  1.00  0.00     0.193 C 
BRANCH  32  33
HETATM   33  C   UNL     1     -24.511  -3.658 -10.289  1.00  0.00     0.190 C 
BRANCH  33  34
HETATM   34  O   UNL     1     -25.779  -3.257  -9.787  1.00  0.00    -0.399 OA
HETATM   35  H   UNL     1     -26.098  -3.971  -9.207  1.00  0.00     0.209 HD
ENDBRANCH  33  34
ENDBRANCH  32  33
ENDBRANCH  31  32
ENDBRANCH  30  31
ENDBRANCH  29  30
ENDBRANCH  28  29
ENDBRANCH  27  28
ENDBRANCH  26  27
ENDBRANCH  25  26
ENDBRANCH  24  25
ENDBRANCH  23  24
ENDBRANCH  22  23
ENDBRANCH  21  22
ENDBRANCH  20  21
ENDBRANCH  19  20
ENDBRANCH   1  19
TORSDOF 32
ENDMDL
MODEL 9
REMARK VINA RESULT:      -5.2      2.598     11.003
REMARK  32 active torsions:
REMARK  status: ('A' for Active; 'I' for Inactive)
REMARK    1  A    between atoms: C_2  and  C_3 
REMARK    2  A    between atoms: C_3  and  C_4 
REMARK    3  A    between atoms: C_4  and  C_5 
REMARK    4  A    between atoms: C_5  and  C_6 
REMARK    5  A    between atoms: C_6  and  C_7 
REMARK    6  A    between atoms: C_7  and  C_8 
REMARK    7  A    between atoms: C_8  and  C_9 
REMARK    8  A    between atoms: C_9  and  C_10 
REMARK    9  A    between atoms: C_10  and  C_11 
REMARK   10  A    between atoms: C_11  and  C_12 
REMARK   11  A    between atoms: C_12  and  O_13 
REMARK   12  A    between atoms: O_13  and  C_14 
REMARK   13  A    between atoms: C_14  and  C_15 
REMARK   14  A    between atoms: C_15  and  O_16 
REMARK   15  A    between atoms: O_16  and  C_17 
REMARK   16  A    between atoms: C_17  and  C_18 
REMARK   17  A    between atoms: C_18  and  O_19 
REMARK   18  A    between atoms: O_19  and  C_20 
REMARK   19  A    between atoms: C_20  and  C_21 
REMARK   20  A    between atoms: C_21  and  O_22 
REMARK   21  A    between atoms: O_22  and  C_23 
REMARK   22  A    between atoms: C_23  and  C_24 
REMARK   23  A    between atoms: C_24  and  O_25 
REMARK   24  A    between atoms: O_25  and  C_26 
REMARK   25  A    between atoms: C_26  and  C_27 
REMARK   26  A    between atoms: C_27  and  O_28 
REMARK   27  A    between atoms: O_28  and  C_29 
REMARK   28  A    between atoms: C_29  and  C_30 
REMARK   29  A    between atoms: C_30  and  O_31 
REMARK   30  A    between atoms: O_31  and  C_32 
REMARK   31  A    between atoms: C_32  and  C_33 
REMARK   32  A    between atoms: C_33  and  O_34 
ROOT
HETATM    1  C   UNL     1     -30.790  -5.804 -17.395  1.00  0.00     0.193 C 
ENDROOT
BRANCH   1   2
HETATM    2  C   UNL     1     -29.501  -6.428 -16.893  1.00  0.00     0.193 C 
BRANCH   2   3
HETATM    3  O   UNL     1     -28.430  -5.973 -17.722  1.00  0.00    -0.387 OA
BRANCH   3   4
HETATM    4  C   UNL     1     -27.183  -6.498 -17.290  1.00  0.00     0.193 C 
BRANCH   4   5
HETATM    5  C   UNL     1     -27.306  -6.867 -15.825  1.00  0.00     0.193 C 
BRANCH   5   6
HETATM    6  O   UNL     1     -26.017  -7.210 -15.339  1.00  0.00    -0.389 OA
BRANCH   6   7
HETATM    7  C   UNL     1     -25.117  -6.120 -15.490  1.00  0.00     0.167 C 
BRANCH   7   8
HETATM    8  C   UNL     1     -24.621  -5.708 -14.117  1.00  0.00     0.026 C 
BRANCH   8   9
HETATM    9  C   UNL     1     -24.355  -4.211 -14.093  1.00  0.00     0.002 C 
BRANCH   9  10
HETATM   10  C   UNL     1     -23.966  -3.750 -12.699  1.00  0.00     0.000 C 
BRANCH  10  11
HETATM   11  C   UNL     1     -22.470  -3.476 -12.640  1.00  0.00     0.000 C 
BRANCH  11  12
HETATM   12  C   UNL     1     -22.007  -3.387 -11.194  1.00  0.00     0.000 C 
BRANCH  12  13
HETATM   13  C   UNL     1     -20.631  -4.018 -11.042  1.00  0.00     0.000 C 
BRANCH  13  14
HETATM   14  C   UNL     1     -20.229  -4.056  -9.575  1.00  0.00     0.000 C 
BRANCH  14  15
HETATM   15  C   UNL     1     -21.331  -4.690  -8.739  1.00  0.00     0.000 C 
BRANCH  15  16
HETATM   16  C   UNL     1     -21.526  -3.915  -7.442  1.00  0.00    -0.000 C 
BRANCH  16  17
HETATM   17  C   UNL     1     -20.542  -4.384  -6.377  1.00  0.00    -0.005 C 
HETATM   18  C   UNL     1     -20.353  -5.889  -6.445  1.00  0.00     0.005 C 
ENDBRANCH  16  17
ENDBRANCH  15  16
ENDBRANCH  14  15
ENDBRANCH  13  14
ENDBRANCH  12  13
ENDBRANCH  11  12
ENDBRANCH  10  11
ENDBRANCH   9  10
ENDBRANCH   8   9
ENDBRANCH   7   8
ENDBRANCH   6   7
ENDBRANCH   5   6
ENDBRANCH   4   5
ENDBRANCH   3   4
ENDBRANCH   2   3
ENDBRANCH   1   2
BRANCH   1  19
HETATM   19  O   UNL     1     -31.207  -4.826 -16.444  1.00  0.00    -0.387 OA
BRANCH  19  20
HETATM   20  C   UNL     1     -32.352  -4.114 -16.911  1.00  0.00     0.193 C 
BRANCH  20  21
HETATM   21  C   UNL     1     -33.559  -4.516 -16.084  1.00  0.00     0.193 C 
BRANCH  21  22
HETATM   22  O   UNL     1     -34.303  -3.346 -15.761  1.00  0.00    -0.387 OA
BRANCH  22  23
HETATM   23  C   UNL     1     -34.524  -2.548 -16.917  1.00  0.00     0.193 C 
BRANCH  23  24
HETATM   24  C   UNL     1     -35.421  -1.384 -16.538  1.00  0.00     0.193 C 
BRANCH  24  25
HETATM   25  O   UNL     1     -34.770  -0.607 -15.534  1.00  0.00    -0.387 OA
BRANCH  25  26
HETATM   26  C   UNL     1     -35.631  -0.391 -14.426  1.00  0.00     0.193 C 
BRANCH  26  27
HETATM   27  C   UNL     1     -34.884   0.431 -13.390  1.00  0.00     0.193 C 
BRANCH  27  28
HETATM   28  O   UNL     1     -35.220  -0.045 -12.087  1.00  0.00    -0.387 OA
BRANCH  28  29
HETATM   29  C   UNL     1     -34.481  -1.220 -11.758  1.00  0.00     0.193 C 
BRANCH  29  30
HETATM   30  C   UNL     1     -35.402  -2.202 -11.050  1.00  0.00     0.193 C 
BRANCH  30  31
HETATM   31  O   UNL     1     -34.642  -3.317 -10.586  1.00  0.00    -0.387 OA
BRANCH  31  32
HETATM   32  C   UNL     1     -34.842  -4.463 -11.416  1.00  0.00     0.193 C 
BRANCH  32  33
HETATM   33  C   UNL     1     -34.470  -5.703 -10.625  1.00  0.00     0.190 C 
BRANCH  33  34
HETATM   34  O   UNL     1     -33.378  -6.368 -11.247  1.00  0.00    -0.399 OA
HETATM   35  H   UNL     1     -33.005  -6.984 -10.592  1.00  0.00     0.209 HD
ENDBRANCH  33  34
ENDBRANCH  32  33
ENDBRANCH  31  32
ENDBRANCH  30  31
ENDBRANCH  29  30
ENDBRANCH  28  29
ENDBRANCH  27  28
ENDBRANCH  26  27
ENDBRANCH  25  26
ENDBRANCH  24  25
ENDBRANCH  23  24
ENDBRANCH  22  23
ENDBRANCH  21  22
ENDBRANCH  20  21
ENDBRANCH  19  20
ENDBRANCH   1  19
TORSDOF 32
ENDMDL
