MODEL 1
REMARK VINA RESULT:      -5.8      0.000      0.000
REMARK  13 active torsions:
REMARK  status: ('A' for Active; 'I' for Inactive)
REMARK    1  A    between atoms: C_1  and  C_2 
REMARK    2  A    between atoms: C_1  and  O_23 
REMARK    3  A    between atoms: C_3  and  O_22 
REMARK    4  A    between atoms: C_4  and  O_21 
REMARK    5  A    between atoms: C_5  and  O_20 
REMARK    6  A    between atoms: C_6  and  O_8 
REMARK    7  A    between atoms: O_8  and  C_9 
REMARK    8  A    between atoms: C_9  and  C_18 
REMARK    9  A    between atoms: C_10  and  O_17 
REMARK   10  A    between atoms: C_11  and  O_16 
REMARK   11  A    between atoms: C_12  and  C_14 
REMARK   12  A    between atoms: C_14  and  O_15 
REMARK   13  A    between atoms: C_18  and  O_19 
ROOT
HETATM    1  O   UNL     1     -20.876  -6.746  -6.901  1.00  0.00    -0.318 OA
ENDROOT
BRANCH   1   2
HETATM    2  C   UNL     1     -20.708  -6.847  -5.486  1.00  0.00     0.295 C 
HETATM    3  C   UNL     1     -19.944  -8.179  -5.295  1.00  0.00     0.204 C 
HETATM    4  C   UNL     1     -19.790  -8.515  -3.814  1.00  0.00     0.183 C 
HETATM    5  C   UNL     1     -21.161  -8.508  -3.121  1.00  0.00     0.180 C 
HETATM    6  C   UNL     1     -21.945  -7.212  -3.427  1.00  0.00     0.179 C 
HETATM    7  O   UNL     1     -21.972  -6.908  -4.837  1.00  0.00    -0.348 OA
BRANCH   3   8
HETATM    8  O   UNL     1     -20.689  -9.258  -5.924  1.00  0.00    -0.388 OA
HETATM    9  H   UNL     1     -21.630  -9.016  -5.790  1.00  0.00     0.210 HD
ENDBRANCH   3   8
BRANCH   4  10
HETATM   10  O   UNL     1     -19.169  -9.798  -3.666  1.00  0.00    -0.390 OA
HETATM   11  H   UNL     1     -18.908  -9.852  -2.724  1.00  0.00     0.210 HD
ENDBRANCH   4  10
BRANCH   5  12
HETATM   12  O   UNL     1     -21.942  -9.632  -3.577  1.00  0.00    -0.390 OA
HETATM   13  H   UNL     1     -21.727 -10.385  -2.987  1.00  0.00     0.210 HD
ENDBRANCH   5  12
BRANCH   6  14
HETATM   14  C   UNL     1     -21.479  -6.003  -2.602  1.00  0.00     0.198 C 
BRANCH  14  15
HETATM   15  O   UNL     1     -22.439  -5.604  -1.629  1.00  0.00    -0.398 OA
HETATM   16  H   UNL     1     -22.368  -6.216  -0.873  1.00  0.00     0.209 HD
ENDBRANCH  14  15
ENDBRANCH   6  14
ENDBRANCH   1   2
BRANCH   1  17
HETATM   17  C   UNL     1     -20.769  -5.470  -7.538  1.00  0.00     0.217 C 
HETATM   18  C   UNL     1     -22.102  -4.680  -7.668  1.00  0.00     0.214 C 
HETATM   19  C   UNL     1     -22.365  -4.657  -9.166  1.00  0.00     0.183 C 
HETATM   20  C   UNL     1     -20.990  -4.838  -9.796  1.00  0.00     0.180 C 
HETATM   21  O   UNL     1     -20.186  -5.572  -8.852  1.00  0.00    -0.341 OA
BRANCH  18  22
HETATM   22  O   UNL     1     -22.092  -3.316  -7.205  1.00  0.00    -0.387 OA
HETATM   23  H   UNL     1     -21.636  -3.275  -6.338  1.00  0.00     0.210 HD
ENDBRANCH  18  22
BRANCH  19  24
HETATM   24  O   UNL     1     -23.034  -3.473  -9.585  1.00  0.00    -0.390 OA
HETATM   25  H   UNL     1     -23.705  -3.285  -8.887  1.00  0.00     0.210 HD
ENDBRANCH  19  24
BRANCH  20  26
HETATM   26  C   UNL     1     -20.281  -3.536 -10.198  1.00  0.00     0.198 C 
BRANCH  26  27
HETATM   27  O   UNL     1     -20.644  -3.149 -11.527  1.00  0.00    -0.398 OA
HETATM   28  H   UNL     1     -19.892  -3.349 -12.110  1.00  0.00     0.209 HD
ENDBRANCH  26  27
ENDBRANCH  20  26
BRANCH  17  29
HETATM   29  C   UNL     1     -19.721  -4.738  -6.658  1.00  0.00     0.235 C 
BRANCH  29  30
HETATM   30  O   UNL     1     -18.523  -4.422  -7.369  1.00  0.00    -0.395 OA
HETATM   31  H   UNL     1     -17.827  -4.315  -6.687  1.00  0.00     0.209 HD
ENDBRANCH  29  30
ENDBRANCH  17  29
ENDBRANCH   1  17
TORSDOF 13
ENDMDL
MODEL 2
REMARK VINA RESULT:      -5.6      2.528      4.865
REMARK  13 active torsions:
REMARK  status: ('A' for Active; 'I' for Inactive)
REMARK    1  A    between atoms: C_1  and  C_2 
REMARK    2  A    between atoms: C_1  and  O_23 
REMARK    3  A    between atoms: C_3  and  O_22 
REMARK    4  A    between atoms: C_4  and  O_21 
REMARK    5  A    between atoms: C_5  and  O_20 
REMARK    6  A    between atoms: C_6  and  O_8 
REMARK    7  A    between atoms: O_8  and  C_9 
REMARK    8  A    between atoms: C_9  and  C_18 
REMARK    9  A    between atoms: C_10  and  O_17 
REMARK   10  A    between atoms: C_11  and  O_16 
REMARK   11  A    between atoms: C_12  and  C_14 
REMARK   12  A    between atoms: C_14  and  O_15 
REMARK   13  A    between atoms: C_18  and  O_19 
ROOT
HETATM    1  O   UNL     1     -22.741  -3.696  -8.690  1.00  0.00    -0.318 OA
ENDROOT
BRANCH   1   2
HETATM    2  C   UNL     1     -21.545  -4.375  -8.302  1.00  0.00     0.295 C 
HETATM    3  C   UNL     1     -22.053  -5.602  -7.509  1.00  0.00     0.204 C 
HETATM    4  C   UNL     1     -20.890  -6.382  -6.901  1.00  0.00     0.183 C 
HETATM    5  C   UNL     1     -20.008  -5.449  -6.057  1.00  0.00     0.180 C 
HETATM    6  C   UNL     1     -19.614  -4.177  -6.841  1.00  0.00     0.179 C 
HETATM    7  O   UNL     1     -20.749  -3.544  -7.465  1.00  0.00    -0.348 OA
BRANCH   3   8
HETATM    8  O   UNL     1     -22.910  -5.155  -6.423  1.00  0.00    -0.388 OA
HETATM    9  H   UNL     1     -22.473  -4.346  -6.084  1.00  0.00     0.210 HD
ENDBRANCH   3   8
BRANCH   4  10
HETATM   10  O   UNL     1     -21.390  -7.454  -6.092  1.00  0.00    -0.390 OA
HETATM   11  H   UNL     1     -21.378  -8.243  -6.672  1.00  0.00     0.210 HD
ENDBRANCH   4  10
BRANCH   5  12
HETATM   12  O   UNL     1     -20.722  -5.049  -4.869  1.00  0.00    -0.390 OA
HETATM   13  H   UNL     1     -20.869  -4.082  -4.937  1.00  0.00     0.210 HD
ENDBRANCH   5  12
BRANCH   6  14
HETATM   14  C   UNL     1     -18.476  -4.405  -7.849  1.00  0.00     0.198 C 
BRANCH  14  15
HETATM   15  O   UNL     1     -17.198  -4.087  -7.308  1.00  0.00    -0.398 OA
HETATM   16  H   UNL     1     -16.962  -4.786  -6.670  1.00  0.00     0.209 HD
ENDBRANCH  14  15
ENDBRANCH   6  14
ENDBRANCH   1   2
BRANCH   1  17
HETATM   17  C   UNL     1     -23.244  -3.850 -10.020  1.00  0.00     0.217 C 
HETATM   18  C   UNL     1     -22.219  -4.392 -11.057  1.00  0.00     0.214 C 
HETATM   19  C   UNL     1     -21.998  -3.215 -11.996  1.00  0.00     0.183 C 
HETATM   20  C   UNL     1     -23.260  -2.374 -11.855  1.00  0.00     0.180 C 
HETATM   21  O   UNL     1     -23.787  -2.620 -10.537  1.00  0.00    -0.341 OA
BRANCH  18  22
HETATM   22  O   UNL     1     -22.640  -5.514 -11.856  1.00  0.00    -0.387 OA
HETATM   23  H   UNL     1     -22.884  -6.256 -11.262  1.00  0.00     0.210 HD
ENDBRANCH  18  22
BRANCH  19  24
HETATM   24  O   UNL     1     -21.730  -3.625 -13.332  1.00  0.00    -0.390 OA
HETATM   25  H   UNL     1     -20.774  -3.868 -13.350  1.00  0.00     0.210 HD
ENDBRANCH  19  24
BRANCH  20  26
HETATM   26  C   UNL     1     -24.340  -2.638 -12.915  1.00  0.00     0.198 C 
BRANCH  26  27
HETATM   27  O   UNL     1     -24.202  -1.735 -14.017  1.00  0.00    -0.398 OA
HETATM   28  H   UNL     1     -24.336  -2.244 -14.835  1.00  0.00     0.209 HD
ENDBRANCH  26  27
ENDBRANCH  20  26
BRANCH  17  29
HETATM   29  C   UNL     1     -24.452  -4.802  -9.819  1.00  0.00     0.235 C 
BRANCH  29  30
HETATM   30  O   UNL     1     -25.680  -4.103  -9.611  1.00  0.00    -0.395 OA
HETATM   31  H   UNL     1     -25.629  -3.736  -8.703  1.00  0.00     0.209 HD
ENDBRANCH  29  30
ENDBRANCH  17  29
ENDBRANCH   1  17
TORSDOF 13
ENDMDL
MODEL 3
REMARK VINA RESULT:      -4.8      2.457      4.460
REMARK  13 active torsions:
REMARK  status: ('A' for Active; 'I' for Inactive)
REMARK    1  A    between atoms: C_1  and  C_2 
REMARK    2  A    between atoms: C_1  and  O_23 
REMARK    3  A    between atoms: C_3  and  O_22 
REMARK    4  A    between atoms: C_4  and  O_21 
REMARK    5  A    between atoms: C_5  and  O_20 
REMARK    6  A    between atoms: C_6  and  O_8 
REMARK    7  A    between atoms: O_8  and  C_9 
REMARK    8  A    between atoms: C_9  and  C_18 
REMARK    9  A    between atoms: C_10  and  O_17 
REMARK   10  A    between atoms: C_11  and  O_16 
REMARK   11  A    between atoms: C_12  and  C_14 
REMARK   12  A    between atoms: C_14  and  O_15 
REMARK   13  A    between atoms: C_18  and  O_19 
ROOT
HETATM    1  O   UNL     1     -21.738  -3.624  -9.235  1.00  0.00    -0.318 OA
ENDROOT
BRANCH   1   2
HETATM    2  C   UNL     1     -21.727  -4.168  -7.914  1.00  0.00     0.295 C 
HETATM    3  C   UNL     1     -20.291  -3.894  -7.409  1.00  0.00     0.204 C 
HETATM    4  C   UNL     1     -20.059  -4.532  -6.042  1.00  0.00     0.183 C 
HETATM    5  C   UNL     1     -20.400  -6.029  -6.089  1.00  0.00     0.180 C 
HETATM    6  C   UNL     1     -21.795  -6.275  -6.706  1.00  0.00     0.179 C 
HETATM    7  O   UNL     1     -21.976  -5.569  -7.950  1.00  0.00    -0.348 OA
BRANCH   3   8
HETATM    8  O   UNL     1     -19.333  -4.468  -8.339  1.00  0.00    -0.388 OA
HETATM    9  H   UNL     1     -19.822  -4.530  -9.187  1.00  0.00     0.210 HD
ENDBRANCH   3   8
BRANCH   4  10
HETATM   10  O   UNL     1     -18.696  -4.348  -5.641  1.00  0.00    -0.390 OA
HETATM   11  H   UNL     1     -18.409  -5.217  -5.293  1.00  0.00     0.210 HD
ENDBRANCH   4  10
BRANCH   5  12
HETATM   12  O   UNL     1     -19.419  -6.725  -6.886  1.00  0.00    -0.390 OA
HETATM   13  H   UNL     1     -18.881  -6.040  -7.338  1.00  0.00     0.210 HD
ENDBRANCH   5  12
BRANCH   6  14
HETATM   14  C   UNL     1     -22.953  -6.003  -5.734  1.00  0.00     0.198 C 
BRANCH  14  15
HETATM   15  O   UNL     1     -22.591  -6.236  -4.376  1.00  0.00    -0.398 OA
HETATM   16  H   UNL     1     -23.129  -6.979  -4.047  1.00  0.00     0.209 HD
ENDBRANCH  14  15
ENDBRANCH   6  14
ENDBRANCH   1   2
BRANCH   1  17
HETATM   17  C   UNL     1     -22.943  -3.657 -10.005  1.00  0.00     0.217 C 
HETATM   18  C   UNL     1     -23.303  -5.043 -10.611  1.00  0.00     0.214 C 
HETATM   19  C   UNL     1     -23.144  -4.836 -12.110  1.00  0.00     0.183 C 
HETATM   20  C   UNL     1     -23.323  -3.336 -12.306  1.00  0.00     0.180 C 
HETATM   21  O   UNL     1     -22.922  -2.697 -11.079  1.00  0.00    -0.341 OA
BRANCH  18  22
HETATM   22  O   UNL     1     -24.641  -5.523 -10.376  1.00  0.00    -0.387 OA
HETATM   23  H   UNL     1     -25.165  -5.427 -11.200  1.00  0.00     0.210 HD
ENDBRANCH  18  22
BRANCH  19  24
HETATM   24  O   UNL     1     -24.052  -5.625 -12.870  1.00  0.00    -0.390 OA
HETATM   25  H   UNL     1     -23.490  -6.208 -13.434  1.00  0.00     0.210 HD
ENDBRANCH  19  24
BRANCH  20  26
HETATM   26  C   UNL     1     -24.743  -2.895 -12.694  1.00  0.00     0.198 C 
BRANCH  26  27
HETATM   27  O   UNL     1     -24.703  -1.874 -13.696  1.00  0.00    -0.398 OA
HETATM   28  H   UNL     1     -25.212  -2.190 -14.462  1.00  0.00     0.209 HD
ENDBRANCH  26  27
ENDBRANCH  20  26
BRANCH  17  29
HETATM   29  C   UNL     1     -24.006  -3.150  -8.996  1.00  0.00     0.235 C 
BRANCH  29  30
HETATM   30  O   UNL     1     -25.307  -3.031  -9.573  1.00  0.00    -0.395 OA
HETATM   31  H   UNL     1     -25.542  -2.081  -9.511  1.00  0.00     0.209 HD
ENDBRANCH  29  30
ENDBRANCH  17  29
ENDBRANCH   1  17
TORSDOF 13
ENDMDL
MODEL 4
REMARK VINA RESULT:      -4.7      4.135      8.172
REMARK  13 active torsions:
REMARK  status: ('A' for Active; 'I' for Inactive)
REMARK    1  A    between atoms: C_1  and  C_2 
REMARK    2  A    between atoms: C_1  and  O_23 
REMARK    3  A    between atoms: C_3  and  O_22 
REMARK    4  A    between atoms: C_4  and  O_21 
REMARK    5  A    between atoms: C_5  and  O_20 
REMARK    6  A    between atoms: C_6  and  O_8 
REMARK    7  A    between atoms: O_8  and  C_9 
REMARK    8  A    between atoms: C_9  and  C_18 
REMARK    9  A    between atoms: C_10  and  O_17 
REMARK   10  A    between atoms: C_11  and  O_16 
REMARK   11  A    between atoms: C_12  and  C_14 
REMARK   12  A    between atoms: C_14  and  O_15 
REMARK   13  A    between atoms: C_18  and  O_19 
ROOT
HETATM    1  O   UNL     1     -21.003 -10.685  -2.467  1.00  0.00    -0.318 OA
ENDROOT
BRANCH   1   2
HETATM    2  C   UNL     1     -19.883  -9.999  -3.029  1.00  0.00     0.295 C 
HETATM    3  C   UNL     1     -20.491  -9.183  -4.195  1.00  0.00     0.204 C 
HETATM    4  C   UNL     1     -19.401  -8.480  -4.999  1.00  0.00     0.183 C 
HETATM    5  C   UNL     1     -18.346  -9.494  -5.466  1.00  0.00     0.180 C 
HETATM    6  C   UNL     1     -17.844 -10.371  -4.297  1.00  0.00     0.179 C 
HETATM    7  O   UNL     1     -18.927 -10.929  -3.526  1.00  0.00    -0.348 OA
BRANCH   3   8
HETATM    8  O   UNL     1     -21.202 -10.079  -5.092  1.00  0.00    -0.388 OA
HETATM    9  H   UNL     1     -22.055  -9.627  -5.265  1.00  0.00     0.210 HD
ENDBRANCH   3   8
BRANCH   4  10
HETATM   10  O   UNL     1     -19.979  -7.813  -6.127  1.00  0.00    -0.390 OA
HETATM   11  H   UNL     1     -19.388  -8.019  -6.881  1.00  0.00     0.210 HD
ENDBRANCH   4  10
BRANCH   5  12
HETATM   12  O   UNL     1     -18.914 -10.357  -6.472  1.00  0.00    -0.390 OA
HETATM   13  H   UNL     1     -18.934 -11.262  -6.093  1.00  0.00     0.210 HD
ENDBRANCH   5  12
BRANCH   6  14
HETATM   14  C   UNL     1     -16.821  -9.664  -3.394  1.00  0.00     0.198 C 
BRANCH  14  15
HETATM   15  O   UNL     1     -16.318 -10.516  -2.370  1.00  0.00    -0.398 OA
HETATM   16  H   UNL     1     -16.154 -11.393  -2.766  1.00  0.00     0.209 HD
ENDBRANCH  14  15
ENDBRANCH   6  14
ENDBRANCH   1   2
BRANCH   1  17
HETATM   17  C   UNL     1     -21.380 -10.435  -1.110  1.00  0.00     0.217 C 
HETATM   18  C   UNL     1     -22.808  -9.852  -0.916  1.00  0.00     0.214 C 
HETATM   19  C   UNL     1     -22.557  -8.442  -0.401  1.00  0.00     0.183 C 
HETATM   20  C   UNL     1     -21.172  -8.510   0.229  1.00  0.00     0.180 C 
HETATM   21  O   UNL     1     -20.450  -9.558  -0.446  1.00  0.00    -0.341 OA
BRANCH  18  22
HETATM   22  O   UNL     1     -23.654 -10.521   0.039  1.00  0.00    -0.387 OA
HETATM   23  H   UNL     1     -24.322  -9.887   0.374  1.00  0.00     0.210 HD
ENDBRANCH  18  22
BRANCH  19  24
HETATM   24  O   UNL     1     -23.571  -7.998   0.493  1.00  0.00    -0.390 OA
HETATM   25  H   UNL     1     -24.410  -8.402   0.165  1.00  0.00     0.210 HD
ENDBRANCH  19  24
BRANCH  20  26
HETATM   26  C   UNL     1     -21.158  -8.750   1.747  1.00  0.00     0.198 C 
BRANCH  26  27
HETATM   27  O   UNL     1     -20.110  -9.655   2.109  1.00  0.00    -0.398 OA
HETATM   28  H   UNL     1     -19.405  -9.136   2.533  1.00  0.00     0.209 HD
ENDBRANCH  26  27
ENDBRANCH  20  26
BRANCH  17  29
HETATM   29  C   UNL     1     -21.205 -11.828  -0.447  1.00  0.00     0.235 C 
BRANCH  29  30
HETATM   30  O   UNL     1     -21.461 -11.809   0.958  1.00  0.00    -0.395 OA
HETATM   31  H   UNL     1     -21.907 -10.953   1.137  1.00  0.00     0.209 HD
ENDBRANCH  29  30
ENDBRANCH  17  29
ENDBRANCH   1  17
TORSDOF 13
ENDMDL
MODEL 5
REMARK VINA RESULT:      -4.7      4.797      7.259
REMARK  13 active torsions:
REMARK  status: ('A' for Active; 'I' for Inactive)
REMARK    1  A    between atoms: C_1  and  C_2 
REMARK    2  A    between atoms: C_1  and  O_23 
REMARK    3  A    between atoms: C_3  and  O_22 
REMARK    4  A    between atoms: C_4  and  O_21 
REMARK    5  A    between atoms: C_5  and  O_20 
REMARK    6  A    between atoms: C_6  and  O_8 
REMARK    7  A    between atoms: O_8  and  C_9 
REMARK    8  A    between atoms: C_9  and  C_18 
REMARK    9  A    between atoms: C_10  and  O_17 
REMARK   10  A    between atoms: C_11  and  O_16 
REMARK   11  A    between atoms: C_12  and  C_14 
REMARK   12  A    between atoms: C_14  and  O_15 
REMARK   13  A    between atoms: C_18  and  O_19 
ROOT
HETATM    1  O   UNL     1     -18.914  -8.923  -2.781  1.00  0.00    -0.318 OA
ENDROOT
BRANCH   1   2
HETATM    2  C   UNL     1     -18.426 -10.000  -3.582  1.00  0.00     0.295 C 
HETATM    3  C   UNL     1     -17.103 -10.409  -2.893  1.00  0.00     0.204 C 
HETATM    4  C   UNL     1     -16.371 -11.477  -3.701  1.00  0.00     0.183 C 
HETATM    5  C   UNL     1     -16.168 -11.003  -5.148  1.00  0.00     0.180 C 
HETATM    6  C   UNL     1     -17.488 -10.493  -5.769  1.00  0.00     0.179 C 
HETATM    7  O   UNL     1     -18.171  -9.557  -4.911  1.00  0.00    -0.348 OA
BRANCH   3   8
HETATM    8  O   UNL     1     -16.232  -9.249  -2.791  1.00  0.00    -0.388 OA
HETATM    9  H   UNL     1     -15.652  -9.445  -2.025  1.00  0.00     0.210 HD
ENDBRANCH   3   8
BRANCH   4  10
HETATM   10  O   UNL     1     -15.105 -11.767  -3.094  1.00  0.00    -0.390 OA
HETATM   11  H   UNL     1     -14.734 -12.511  -3.612  1.00  0.00     0.210 HD
ENDBRANCH   4  10
BRANCH   5  12
HETATM   12  O   UNL     1     -15.205  -9.929  -5.177  1.00  0.00    -0.390 OA
HETATM   13  H   UNL     1     -15.670  -9.122  -4.870  1.00  0.00     0.210 HD
ENDBRANCH   5  12
BRANCH   6  14
HETATM   14  C   UNL     1     -18.426 -11.620  -6.228  1.00  0.00     0.198 C 
BRANCH  14  15
HETATM   15  O   UNL     1     -18.896 -11.429  -7.559  1.00  0.00    -0.398 OA
HETATM   16  H   UNL     1     -18.121 -11.259  -8.127  1.00  0.00     0.209 HD
ENDBRANCH  14  15
ENDBRANCH   6  14
ENDBRANCH   1   2
BRANCH   1  17
HETATM   17  C   UNL     1     -20.310  -8.839  -2.480  1.00  0.00     0.217 C 
HETATM   18  C   UNL     1     -21.029  -7.572  -3.023  1.00  0.00     0.214 C 
HETATM   19  C   UNL     1     -21.396  -6.797  -1.766  1.00  0.00     0.183 C 
HETATM   20  C   UNL     1     -21.451  -7.854  -0.671  1.00  0.00     0.180 C 
HETATM   21  O   UNL     1     -20.561  -8.917  -1.063  1.00  0.00    -0.341 OA
BRANCH  18  22
HETATM   22  O   UNL     1     -22.240  -7.788  -3.772  1.00  0.00    -0.387 OA
HETATM   23  H   UNL     1     -22.600  -8.673  -3.551  1.00  0.00     0.210 HD
ENDBRANCH  18  22
BRANCH  19  24
HETATM   24  O   UNL     1     -22.606  -6.061  -1.911  1.00  0.00    -0.390 OA
HETATM   25  H   UNL     1     -22.523  -5.289  -1.302  1.00  0.00     0.210 HD
ENDBRANCH  19  24
BRANCH  20  26
HETATM   26  C   UNL     1     -22.851  -8.417  -0.379  1.00  0.00     0.198 C 
BRANCH  26  27
HETATM   27  O   UNL     1     -23.596  -7.520   0.450  1.00  0.00    -0.398 OA
HETATM   28  H   UNL     1     -23.608  -6.652   0.012  1.00  0.00     0.209 HD
ENDBRANCH  26  27
ENDBRANCH  20  26
BRANCH  17  29
HETATM   29  C   UNL     1     -20.868 -10.152  -3.089  1.00  0.00     0.235 C 
BRANCH  29  30
HETATM   30  O   UNL     1     -22.264 -10.329  -2.841  1.00  0.00    -0.395 OA
HETATM   31  H   UNL     1     -22.374 -11.271  -2.593  1.00  0.00     0.209 HD
ENDBRANCH  29  30
ENDBRANCH  17  29
ENDBRANCH   1  17
TORSDOF 13
ENDMDL
MODEL 6
REMARK VINA RESULT:      -4.7      4.754      7.560
REMARK  13 active torsions:
REMARK  status: ('A' for Active; 'I' for Inactive)
REMARK    1  A    between atoms: C_1  and  C_2 
REMARK    2  A    between atoms: C_1  and  O_23 
REMARK    3  A    between atoms: C_3  and  O_22 
REMARK    4  A    between atoms: C_4  and  O_21 
REMARK    5  A    between atoms: C_5  and  O_20 
REMARK    6  A    between atoms: C_6  and  O_8 
REMARK    7  A    between atoms: O_8  and  C_9 
REMARK    8  A    between atoms: C_9  and  C_18 
REMARK    9  A    between atoms: C_10  and  O_17 
REMARK   10  A    between atoms: C_11  and  O_16 
REMARK   11  A    between atoms: C_12  and  C_14 
REMARK   12  A    between atoms: C_14  and  O_15 
REMARK   13  A    between atoms: C_18  and  O_19 
ROOT
HETATM    1  O   UNL     1     -19.293  -8.856  -2.602  1.00  0.00    -0.318 OA
ENDROOT
BRANCH   1   2
HETATM    2  C   UNL     1     -18.818  -9.896  -3.457  1.00  0.00     0.295 C 
HETATM    3  C   UNL     1     -17.486 -10.338  -2.805  1.00  0.00     0.204 C 
HETATM    4  C   UNL     1     -16.767 -11.370  -3.671  1.00  0.00     0.183 C 
HETATM    5  C   UNL     1     -16.584 -10.831  -5.098  1.00  0.00     0.180 C 
HETATM    6  C   UNL     1     -17.910 -10.292  -5.677  1.00  0.00     0.179 C 
HETATM    7  O   UNL     1     -18.580  -9.394  -4.768  1.00  0.00    -0.348 OA
BRANCH   3   8
HETATM    8  O   UNL     1     -16.613  -9.185  -2.662  1.00  0.00    -0.388 OA
HETATM    9  H   UNL     1     -17.204  -8.465  -2.358  1.00  0.00     0.210 HD
ENDBRANCH   3   8
BRANCH   4  10
HETATM   10  O   UNL     1     -15.494 -11.688  -3.095  1.00  0.00    -0.390 OA
HETATM   11  H   UNL     1     -15.697 -12.212  -2.293  1.00  0.00     0.210 HD
ENDBRANCH   4  10
BRANCH   5  12
HETATM   12  O   UNL     1     -15.619  -9.758  -5.091  1.00  0.00    -0.390 OA
HETATM   13  H   UNL     1     -15.997  -9.039  -4.542  1.00  0.00     0.210 HD
ENDBRANCH   5  12
BRANCH   6  14
HETATM   14  C   UNL     1     -18.857 -11.395  -6.174  1.00  0.00     0.198 C 
BRANCH  14  15
HETATM   15  O   UNL     1     -18.892 -11.482  -7.595  1.00  0.00    -0.398 OA
HETATM   16  H   UNL     1     -17.979 -11.381  -7.922  1.00  0.00     0.209 HD
ENDBRANCH  14  15
ENDBRANCH   6  14
ENDBRANCH   1   2
BRANCH   1  17
HETATM   17  C   UNL     1     -20.650  -8.874  -2.150  1.00  0.00     0.217 C 
HETATM   18  C   UNL     1     -21.009  -7.796  -1.089  1.00  0.00     0.214 C 
HETATM   19  C   UNL     1     -21.285  -8.605   0.170  1.00  0.00     0.183 C 
HETATM   20  C   UNL     1     -21.671  -9.986  -0.343  1.00  0.00     0.180 C 
HETATM   21  O   UNL     1     -21.024 -10.160  -1.619  1.00  0.00    -0.341 OA
BRANCH  18  22
HETATM   22  O   UNL     1     -22.174  -6.991  -1.354  1.00  0.00    -0.387 OA
HETATM   23  H   UNL     1     -21.892  -6.070  -1.534  1.00  0.00     0.210 HD
ENDBRANCH  18  22
BRANCH  19  24
HETATM   24  O   UNL     1     -22.274  -8.006   0.999  1.00  0.00    -0.390 OA
HETATM   25  H   UNL     1     -23.083  -8.561   0.893  1.00  0.00     0.210 HD
ENDBRANCH  19  24
BRANCH  20  26
HETATM   26  C   UNL     1     -23.182 -10.232  -0.477  1.00  0.00     0.198 C 
BRANCH  26  27
HETATM   27  O   UNL     1     -23.468 -11.014  -1.641  1.00  0.00    -0.398 OA
HETATM   28  H   UNL     1     -24.421 -11.213  -1.637  1.00  0.00     0.209 HD
ENDBRANCH  26  27
ENDBRANCH  20  26
BRANCH  17  29
HETATM   29  C   UNL     1     -21.449  -8.706  -3.470  1.00  0.00     0.235 C 
BRANCH  29  30
HETATM   30  O   UNL     1     -21.109  -7.511  -4.175  1.00  0.00    -0.395 OA
HETATM   31  H   UNL     1     -20.410  -7.076  -3.643  1.00  0.00     0.209 HD
ENDBRANCH  29  30
ENDBRANCH  17  29
ENDBRANCH   1  17
TORSDOF 13
ENDMDL
MODEL 7
REMARK VINA RESULT:      -4.6      4.359      6.363
REMARK  13 active torsions:
REMARK  status: ('A' for Active; 'I' for Inactive)
REMARK    1  A    between atoms: C_1  and  C_2 
REMARK    2  A    between atoms: C_1  and  O_23 
REMARK    3  A    between atoms: C_3  and  O_22 
REMARK    4  A    between atoms: C_4  and  O_21 
REMARK    5  A    between atoms: C_5  and  O_20 
REMARK    6  A    between atoms: C_6  and  O_8 
REMARK    7  A    between atoms: O_8  and  C_9 
REMARK    8  A    between atoms: C_9  and  C_18 
REMARK    9  A    between atoms: C_10  and  O_17 
REMARK   10  A    between atoms: C_11  and  O_16 
REMARK   11  A    between atoms: C_12  and  C_14 
REMARK   12  A    between atoms: C_14  and  O_15 
REMARK   13  A    between atoms: C_18  and  O_19 
ROOT
HETATM    1  O   UNL     1     -20.228 -10.401  -3.501  1.00  0.00    -0.318 OA
ENDROOT
BRANCH   1   2
HETATM    2  C   UNL     1     -20.534  -9.538  -2.405  1.00  0.00     0.295 C 
HETATM    3  C   UNL     1     -20.404 -10.451  -1.163  1.00  0.00     0.204 C 
HETATM    4  C   UNL     1     -20.827  -9.714   0.106  1.00  0.00     0.183 C 
HETATM    5  C   UNL     1     -22.239  -9.133  -0.063  1.00  0.00     0.180 C 
HETATM    6  C   UNL     1     -22.366  -8.322  -1.372  1.00  0.00     0.179 C 
HETATM    7  O   UNL     1     -21.864  -9.044  -2.515  1.00  0.00    -0.348 OA
BRANCH   3   8
HETATM    8  O   UNL     1     -21.270 -11.607  -1.320  1.00  0.00    -0.388 OA
HETATM    9  H   UNL     1     -22.121 -11.235  -1.635  1.00  0.00     0.210 HD
ENDBRANCH   3   8
BRANCH   4  10
HETATM   10  O   UNL     1     -20.791 -10.609   1.225  1.00  0.00    -0.390 OA
HETATM   11  H   UNL     1     -19.846 -10.837   1.344  1.00  0.00     0.210 HD
ENDBRANCH   4  10
BRANCH   5  12
HETATM   12  O   UNL     1     -23.205 -10.204  -0.094  1.00  0.00    -0.390 OA
HETATM   13  H   UNL     1     -22.732 -11.004  -0.407  1.00  0.00     0.210 HD
ENDBRANCH   5  12
BRANCH   6  14
HETATM   14  C   UNL     1     -21.756  -6.915  -1.285  1.00  0.00     0.198 C 
BRANCH  14  15
HETATM   15  O   UNL     1     -22.576  -5.926  -1.899  1.00  0.00    -0.398 OA
HETATM   16  H   UNL     1     -23.293  -5.706  -1.276  1.00  0.00     0.209 HD
ENDBRANCH  14  15
ENDBRANCH   6  14
ENDBRANCH   1   2
BRANCH   1  17
HETATM   17  C   UNL     1     -19.077 -10.141  -4.309  1.00  0.00     0.217 C 
HETATM   18  C   UNL     1     -18.767 -11.218  -5.387  1.00  0.00     0.214 C 
HETATM   19  C   UNL     1     -17.462 -11.841  -4.911  1.00  0.00     0.183 C 
HETATM   20  C   UNL     1     -16.822 -10.765  -4.045  1.00  0.00     0.180 C 
HETATM   21  O   UNL     1     -17.890  -9.958  -3.512  1.00  0.00    -0.341 OA
BRANCH  18  22
HETATM   22  O   UNL     1     -18.560 -10.746  -6.732  1.00  0.00    -0.387 OA
HETATM   23  H   UNL     1     -18.124  -9.868  -6.699  1.00  0.00     0.210 HD
ENDBRANCH  18  22
BRANCH  19  24
HETATM   24  O   UNL     1     -16.639 -12.273  -5.988  1.00  0.00    -0.390 OA
HETATM   25  H   UNL     1     -17.053 -13.104  -6.323  1.00  0.00     0.210 HD
ENDBRANCH  19  24
BRANCH  20  26
HETATM   26  C   UNL     1     -15.794  -9.877  -4.762  1.00  0.00     0.198 C 
BRANCH  26  27
HETATM   27  O   UNL     1     -16.207  -9.605  -6.106  1.00  0.00    -0.398 OA
HETATM   28  H   UNL     1     -15.432  -9.722  -6.683  1.00  0.00     0.209 HD
ENDBRANCH  26  27
ENDBRANCH  20  26
BRANCH  17  29
HETATM   29  C   UNL     1     -19.399  -8.753  -4.924  1.00  0.00     0.235 C 
BRANCH  29  30
HETATM   30  O   UNL     1     -20.548  -8.777  -5.773  1.00  0.00    -0.395 OA
HETATM   31  H   UNL     1     -20.287  -8.300  -6.589  1.00  0.00     0.209 HD
ENDBRANCH  29  30
ENDBRANCH  17  29
ENDBRANCH   1  17
TORSDOF 13
ENDMDL
MODEL 8
REMARK VINA RESULT:      -4.5      4.679      6.456
REMARK  13 active torsions:
REMARK  status: ('A' for Active; 'I' for Inactive)
REMARK    1  A    between atoms: C_1  and  C_2 
REMARK    2  A    between atoms: C_1  and  O_23 
REMARK    3  A    between atoms: C_3  and  O_22 
REMARK    4  A    between atoms: C_4  and  O_21 
REMARK    5  A    between atoms: C_5  and  O_20 
REMARK    6  A    between atoms: C_6  and  O_8 
REMARK    7  A    between atoms: O_8  and  C_9 
REMARK    8  A    between atoms: C_9  and  C_18 
REMARK    9  A    between atoms: C_10  and  O_17 
REMARK   10  A    between atoms: C_11  and  O_16 
REMARK   11  A    between atoms: C_12  and  C_14 
REMARK   12  A    between atoms: C_14  and  O_15 
REMARK   13  A    between atoms: C_18  and  O_19 
ROOT
HETATM    1  O   UNL     1     -20.108 -10.961  -2.288  1.00  0.00    -0.318 OA
ENDROOT
BRANCH   1   2
HETATM    2  C   UNL     1     -20.460  -9.668  -1.794  1.00  0.00     0.295 C 
HETATM    3  C   UNL     1     -20.467  -9.844  -0.257  1.00  0.00     0.204 C 
HETATM    4  C   UNL     1     -20.955  -8.576   0.438  1.00  0.00     0.183 C 
HETATM    5  C   UNL     1     -22.323  -8.156  -0.121  1.00  0.00     0.180 C 
HETATM    6  C   UNL     1     -22.314  -8.102  -1.665  1.00  0.00     0.179 C 
HETATM    7  O   UNL     1     -21.755  -9.295  -2.251  1.00  0.00    -0.348 OA
BRANCH   3   8
HETATM    8  O   UNL     1     -21.368 -10.927   0.102  1.00  0.00    -0.388 OA
HETATM    9  H   UNL     1     -21.679 -11.282  -0.758  1.00  0.00     0.210 HD
ENDBRANCH   3   8
BRANCH   4  10
HETATM   10  O   UNL     1     -21.046  -8.797   1.851  1.00  0.00    -0.390 OA
HETATM   11  H   UNL     1     -21.368  -9.717   1.949  1.00  0.00     0.210 HD
ENDBRANCH   4  10
BRANCH   5  12
HETATM   12  O   UNL     1     -23.329  -9.102   0.297  1.00  0.00    -0.390 OA
HETATM   13  H   UNL     1     -22.906  -9.987   0.295  1.00  0.00     0.210 HD
ENDBRANCH   5  12
BRANCH   6  14
HETATM   14  C   UNL     1     -21.651  -6.837  -2.231  1.00  0.00     0.198 C 
BRANCH  14  15
HETATM   15  O   UNL     1     -22.420  -5.663  -1.986  1.00  0.00    -0.398 OA
HETATM   16  H   UNL     1     -22.103  -4.968  -2.592  1.00  0.00     0.209 HD
ENDBRANCH  14  15
ENDBRANCH   6  14
ENDBRANCH   1   2
BRANCH   1  17
HETATM   17  C   UNL     1     -19.186 -11.078  -3.375  1.00  0.00     0.217 C 
HETATM   18  C   UNL     1     -18.653  -9.730  -3.939  1.00  0.00     0.214 C 
HETATM   19  C   UNL     1     -19.253  -9.659  -5.335  1.00  0.00     0.183 C 
HETATM   20  C   UNL     1     -19.528 -11.111  -5.704  1.00  0.00     0.180 C 
HETATM   21  O   UNL     1     -19.740 -11.828  -4.473  1.00  0.00    -0.341 OA
BRANCH  18  22
HETATM   22  O   UNL     1     -17.224  -9.605  -4.071  1.00  0.00    -0.387 OA
HETATM   23  H   UNL     1     -17.022  -9.037  -4.844  1.00  0.00     0.210 HD
ENDBRANCH  18  22
BRANCH  19  24
HETATM   24  O   UNL     1     -18.408  -8.984  -6.259  1.00  0.00    -0.390 OA
HETATM   25  H   UNL     1     -19.000  -8.678  -6.987  1.00  0.00     0.210 HD
ENDBRANCH  19  24
BRANCH  20  26
HETATM   26  C   UNL     1     -18.427 -11.792  -6.531  1.00  0.00     0.198 C 
BRANCH  26  27
HETATM   27  O   UNL     1     -18.705 -11.689  -7.931  1.00  0.00    -0.398 OA
HETATM   28  H   UNL     1     -18.301 -10.865  -8.254  1.00  0.00     0.209 HD
ENDBRANCH  26  27
ENDBRANCH  20  26
BRANCH  17  29
HETATM   29  C   UNL     1     -18.062 -11.962  -2.773  1.00  0.00     0.235 C 
BRANCH  29  30
HETATM   30  O   UNL     1     -17.339 -11.307  -1.730  1.00  0.00    -0.395 OA
HETATM   31  H   UNL     1     -16.452 -11.726  -1.715  1.00  0.00     0.209 HD
ENDBRANCH  29  30
ENDBRANCH  17  29
ENDBRANCH   1  17
TORSDOF 13
ENDMDL
MODEL 9
REMARK VINA RESULT:      -4.4      4.024      6.765
REMARK  13 active torsions:
REMARK  status: ('A' for Active; 'I' for Inactive)
REMARK    1  A    between atoms: C_1  and  C_2 
REMARK    2  A    between atoms: C_1  and  O_23 
REMARK    3  A    between atoms: C_3  and  O_22 
REMARK    4  A    between atoms: C_4  and  O_21 
REMARK    5  A    between atoms: C_5  and  O_20 
REMARK    6  A    between atoms: C_6  and  O_8 
REMARK    7  A    between atoms: O_8  and  C_9 
REMARK    8  A    between atoms: C_9  and  C_18 
REMARK    9  A    between atoms: C_10  and  O_17 
REMARK   10  A    between atoms: C_11  and  O_16 
REMARK   11  A    between atoms: C_12  and  C_14 
REMARK   12  A    between atoms: C_14  and  O_15 
REMARK   13  A    between atoms: C_18  and  O_19 
ROOT
HETATM    1  O   UNL     1     -20.257  -8.870  -3.166  1.00  0.00    -0.318 OA
ENDROOT
BRANCH   1   2
HETATM    2  C   UNL     1     -20.813  -9.861  -2.300  1.00  0.00     0.295 C 
HETATM    3  C   UNL     1     -21.932  -9.108  -1.542  1.00  0.00     0.204 C 
HETATM    4  C   UNL     1     -22.556  -9.994  -0.466  1.00  0.00     0.183 C 
HETATM    5  C   UNL     1     -21.467 -10.544   0.468  1.00  0.00     0.180 C 
HETATM    6  C   UNL     1     -20.309 -11.186  -0.327  1.00  0.00     0.179 C 
HETATM    7  O   UNL     1     -19.830 -10.331  -1.385  1.00  0.00    -0.348 OA
BRANCH   3   8
HETATM    8  O   UNL     1     -21.371  -7.938  -0.889  1.00  0.00    -0.388 OA
HETATM    9  H   UNL     1     -20.460  -7.871  -1.246  1.00  0.00     0.210 HD
ENDBRANCH   3   8
BRANCH   4  10
HETATM   10  O   UNL     1     -23.519  -9.244   0.285  1.00  0.00    -0.390 OA
HETATM   11  H   UNL     1     -22.994  -8.689   0.898  1.00  0.00     0.210 HD
ENDBRANCH   4  10
BRANCH   5  12
HETATM   12  O   UNL     1     -20.931  -9.472   1.272  1.00  0.00    -0.390 OA
HETATM   13  H   UNL     1     -20.192  -9.078   0.762  1.00  0.00     0.210 HD
ENDBRANCH   5  12
BRANCH   6  14
HETATM   14  C   UNL     1     -20.629 -12.596  -0.847  1.00  0.00     0.198 C 
BRANCH  14  15
HETATM   15  O   UNL     1     -19.530 -13.185  -1.535  1.00  0.00    -0.398 OA
HETATM   16  H   UNL     1     -18.853 -13.417  -0.872  1.00  0.00     0.209 HD
ENDBRANCH  14  15
ENDBRANCH   6  14
ENDBRANCH   1   2
BRANCH   1  17
HETATM   17  C   UNL     1     -19.438  -9.271  -4.268  1.00  0.00     0.217 C 
HETATM   18  C   UNL     1     -19.723 -10.696  -4.821  1.00  0.00     0.214 C 
HETATM   19  C   UNL     1     -18.467 -11.479  -4.469  1.00  0.00     0.183 C 
HETATM   20  C   UNL     1     -17.383 -10.418  -4.338  1.00  0.00     0.180 C 
HETATM   21  O   UNL     1     -18.035  -9.192  -3.952  1.00  0.00    -0.341 OA
BRANCH  18  22
HETATM   22  O   UNL     1     -19.924 -10.809  -6.243  1.00  0.00    -0.387 OA
HETATM   23  H   UNL     1     -20.886 -10.857  -6.428  1.00  0.00     0.210 HD
ENDBRANCH  18  22
BRANCH  19  24
HETATM   24  O   UNL     1     -18.166 -12.488  -5.427  1.00  0.00    -0.390 OA
HETATM   25  H   UNL     1     -18.848 -13.190  -5.298  1.00  0.00     0.210 HD
ENDBRANCH  19  24
BRANCH  20  26
HETATM   26  C   UNL     1     -16.535 -10.193  -5.599  1.00  0.00     0.198 C 
BRANCH  26  27
HETATM   27  O   UNL     1     -15.546 -11.218  -5.737  1.00  0.00    -0.398 OA
HETATM   28  H   UNL     1     -15.830 -11.978  -5.199  1.00  0.00     0.209 HD
ENDBRANCH  26  27
ENDBRANCH  20  26
BRANCH  17  29
HETATM   29  C   UNL     1     -19.707  -8.157  -5.314  1.00  0.00     0.235 C 
BRANCH  29  30
HETATM   30  O   UNL     1     -21.032  -8.203  -5.845  1.00  0.00    -0.395 OA
HETATM   31  H   UNL     1     -21.155  -9.117  -6.178  1.00  0.00     0.209 HD
ENDBRANCH  29  30
ENDBRANCH  17  29
ENDBRANCH   1  17
TORSDOF 13
ENDMDL
