MODEL 1
REMARK VINA RESULT:      -7.9      0.000      0.000
REMARK  14 active torsions:
REMARK  status: ('A' for Active; 'I' for Inactive)
REMARK    1  A    between atoms: C_4  and  O_30 
REMARK    2  A    between atoms: C_9  and  C_13 
REMARK    3  A    between atoms: C_13  and  C_14 
REMARK    4  A    between atoms: C_14  and  C_15 
REMARK    5  A    between atoms: C_15  and  C_16 
REMARK    6  A    between atoms: C_16  and  C_18 
REMARK    7  A    between atoms: C_18  and  C_19 
REMARK    8  A    between atoms: C_19  and  C_20 
REMARK    9  A    between atoms: C_20  and  C_21 
REMARK   10  A    between atoms: C_21  and  C_23 
REMARK   11  A    between atoms: C_23  and  C_24 
REMARK   12  A    between atoms: C_24  and  C_25 
REMARK   13  A    between atoms: C_25  and  C_26 
REMARK   14  A    between atoms: O_30  and  C_31 
ROOT
HETATM    1  C   UNL     1     -19.270  -9.087  -4.636  1.00  0.00     0.052 C 
HETATM    2  C   UNL     1     -18.148  -9.953  -4.119  1.00  0.00    -0.019 C 
HETATM    3  C   UNL     1     -16.920 -10.138  -4.794  1.00  0.00    -0.019 C 
HETATM    4  C   UNL     1     -15.957 -11.027  -4.242  1.00  0.00     0.092 C 
HETATM    5  C   UNL     1     -16.189 -11.738  -3.053  1.00  0.00    -0.018 C 
HETATM    6  C   UNL     1     -17.369 -11.461  -2.335  1.00  0.00    -0.015 C 
HETATM    7  C   UNL     1     -18.354 -10.641  -2.896  1.00  0.00     0.083 C 
HETATM    8  O   UNL     1     -19.601 -10.471  -2.316  1.00  0.00    -0.339 OA
HETATM    9  C   UNL     1     -19.950 -11.417  -1.285  1.00  0.00     0.064 C 
HETATM   10  C   UNL     1     -18.786 -11.526  -0.294  1.00  0.00     0.043 C 
HETATM   11  C   UNL     1     -17.575 -12.097  -0.983  1.00  0.00     0.045 C 
HETATM   12  C   UNL     1     -20.333 -12.760  -1.939  1.00  0.00     0.046 C 
HETATM   13  C   UNL     1     -15.243 -12.785  -2.523  1.00  0.00     0.052 C 
HETATM   14  C   UNL     1     -16.580  -9.464  -6.102  1.00  0.00     0.052 C 
ENDROOT
BRANCH   9  15
HETATM   15  C   UNL     1     -21.199 -10.882  -0.544  1.00  0.00     0.038 C 
BRANCH  15  16
HETATM   16  C   UNL     1     -20.832 -10.166   0.753  1.00  0.00     0.003 C 
BRANCH  16  17
HETATM   17  C   UNL     1     -21.036  -8.663   0.675  1.00  0.00     0.004 C 
BRANCH  17  18
HETATM   18  C   UNL     1     -22.283  -8.328  -0.169  1.00  0.00    -0.019 C 
HETATM   19  C   UNL     1     -23.546  -8.241   0.692  1.00  0.00     0.010 C 
BRANCH  18  20
HETATM   20  C   UNL     1     -22.091  -7.022  -0.949  1.00  0.00     0.004 C 
BRANCH  20  21
HETATM   21  C   UNL     1     -21.380  -7.272  -2.278  1.00  0.00     0.001 C 
BRANCH  21  22
HETATM   22  C   UNL     1     -21.197  -5.978  -3.054  1.00  0.00     0.004 C 
BRANCH  22  23
HETATM   23  C   UNL     1     -21.221  -6.202  -4.578  1.00  0.00    -0.019 C 
HETATM   24  C   UNL     1     -22.639  -6.471  -5.089  1.00  0.00     0.010 C 
BRANCH  23  25
HETATM   25  C   UNL     1     -20.609  -4.996  -5.317  1.00  0.00     0.004 C 
BRANCH  25  26
HETATM   26  C   UNL     1     -19.775  -5.442  -6.520  1.00  0.00     0.001 C 
BRANCH  26  27
HETATM   27  C   UNL     1     -20.603  -5.609  -7.790  1.00  0.00     0.004 C 
BRANCH  27  28
HETATM   28  C   UNL     1     -20.858  -4.258  -8.484  1.00  0.00    -0.023 C 
HETATM   29  C   UNL     1     -20.376  -4.245  -9.936  1.00  0.00     0.009 C 
HETATM   30  C   UNL     1     -22.344  -3.915  -8.421  1.00  0.00     0.009 C 
ENDBRANCH  27  28
ENDBRANCH  26  27
ENDBRANCH  25  26
ENDBRANCH  23  25
ENDBRANCH  22  23
ENDBRANCH  21  22
ENDBRANCH  20  21
ENDBRANCH  18  20
ENDBRANCH  17  18
ENDBRANCH  16  17
ENDBRANCH  15  16
ENDBRANCH   9  15
BRANCH   4  31
HETATM   31  O   UNL     1     -14.803 -11.271  -5.042  1.00  0.00    -0.278 OA
BRANCH  31  32
HETATM   32  C   UNL     1     -14.693 -12.327  -5.953  1.00  0.00     0.260 C 
HETATM   33  O   UNL     1     -15.591 -12.843  -6.602  1.00  0.00    -0.265 OA
HETATM   34  C   UNL     1     -13.246 -12.718  -6.057  1.00  0.00     0.126 C 
ENDBRANCH  31  32
ENDBRANCH   4  31
TORSDOF 14
ENDMDL
MODEL 2
REMARK VINA RESULT:      -7.7      2.985      7.239
REMARK  14 active torsions:
REMARK  status: ('A' for Active; 'I' for Inactive)
REMARK    1  A    between atoms: C_4  and  O_30 
REMARK    2  A    between atoms: C_9  and  C_13 
REMARK    3  A    between atoms: C_13  and  C_14 
REMARK    4  A    between atoms: C_14  and  C_15 
REMARK    5  A    between atoms: C_15  and  C_16 
REMARK    6  A    between atoms: C_16  and  C_18 
REMARK    7  A    between atoms: C_18  and  C_19 
REMARK    8  A    between atoms: C_19  and  C_20 
REMARK    9  A    between atoms: C_20  and  C_21 
REMARK   10  A    between atoms: C_21  and  C_23 
REMARK   11  A    between atoms: C_23  and  C_24 
REMARK   12  A    between atoms: C_24  and  C_25 
REMARK   13  A    between atoms: C_25  and  C_26 
REMARK   14  A    between atoms: O_30  and  C_31 
ROOT
HETATM    1  C   UNL     1     -18.745  -9.798  -2.893  1.00  0.00     0.052 C 
HETATM    2  C   UNL     1     -19.882  -9.650  -1.911  1.00  0.00    -0.019 C 
HETATM    3  C   UNL     1     -20.196 -10.605  -0.919  1.00  0.00    -0.019 C 
HETATM    4  C   UNL     1     -21.329 -10.388  -0.088  1.00  0.00     0.092 C 
HETATM    5  C   UNL     1     -22.157  -9.261  -0.228  1.00  0.00    -0.018 C 
HETATM    6  C   UNL     1     -21.770  -8.266  -1.147  1.00  0.00    -0.015 C 
HETATM    7  C   UNL     1     -20.697  -8.494  -2.015  1.00  0.00     0.083 C 
HETATM    8  O   UNL     1     -20.380  -7.628  -3.050  1.00  0.00    -0.339 OA
HETATM    9  C   UNL     1     -21.387  -6.652  -3.386  1.00  0.00     0.064 C 
HETATM   10  C   UNL     1     -21.871  -5.973  -2.101  1.00  0.00     0.043 C 
HETATM   11  C   UNL     1     -22.554  -6.979  -1.212  1.00  0.00     0.045 C 
HETATM   12  C   UNL     1     -22.512  -7.341  -4.184  1.00  0.00     0.046 C 
HETATM   13  C   UNL     1     -23.437  -9.079   0.547  1.00  0.00     0.052 C 
HETATM   14  C   UNL     1     -19.408 -11.876  -0.707  1.00  0.00     0.052 C 
ENDROOT
BRANCH   9  15
HETATM   15  C   UNL     1     -20.739  -5.591  -4.308  1.00  0.00     0.038 C 
BRANCH  15  16
HETATM   16  C   UNL     1     -21.034  -5.859  -5.783  1.00  0.00     0.003 C 
BRANCH  16  17
HETATM   17  C   UNL     1     -19.780  -5.890  -6.638  1.00  0.00     0.004 C 
BRANCH  17  18
HETATM   18  C   UNL     1     -19.305  -4.457  -6.956  1.00  0.00    -0.019 C 
HETATM   19  C   UNL     1     -17.879  -4.441  -7.512  1.00  0.00     0.010 C 
BRANCH  18  20
HETATM   20  C   UNL     1     -20.255  -3.761  -7.937  1.00  0.00     0.004 C 
BRANCH  20  21
HETATM   21  C   UNL     1     -20.306  -4.500  -9.274  1.00  0.00     0.001 C 
BRANCH  21  22
HETATM   22  C   UNL     1     -21.329  -3.875 -10.209  1.00  0.00     0.004 C 
BRANCH  22  23
HETATM   23  C   UNL     1     -22.674  -4.625 -10.188  1.00  0.00    -0.019 C 
HETATM   24  C   UNL     1     -23.552  -4.180  -9.015  1.00  0.00     0.010 C 
BRANCH  23  25
HETATM   25  C   UNL     1     -23.427  -4.432 -11.519  1.00  0.00     0.004 C 
BRANCH  25  26
HETATM   26  C   UNL     1     -22.826  -3.289 -12.340  1.00  0.00     0.001 C 
BRANCH  26  27
HETATM   27  C   UNL     1     -23.870  -2.521 -13.145  1.00  0.00     0.004 C 
BRANCH  27  28
HETATM   28  C   UNL     1     -23.233  -1.768 -14.328  1.00  0.00    -0.023 C 
HETATM   29  C   UNL     1     -22.622  -2.714 -15.365  1.00  0.00     0.009 C 
HETATM   30  C   UNL     1     -24.274  -0.868 -14.990  1.00  0.00     0.009 C 
ENDBRANCH  27  28
ENDBRANCH  26  27
ENDBRANCH  25  26
ENDBRANCH  23  25
ENDBRANCH  22  23
ENDBRANCH  21  22
ENDBRANCH  20  21
ENDBRANCH  18  20
ENDBRANCH  17  18
ENDBRANCH  16  17
ENDBRANCH  15  16
ENDBRANCH   9  15
BRANCH   4  31
HETATM   31  O   UNL     1     -21.667 -11.453   0.797  1.00  0.00    -0.278 OA
BRANCH  31  32
HETATM   32  C   UNL     1     -22.655 -12.407   0.530  1.00  0.00     0.260 C 
HETATM   33  O   UNL     1     -23.380 -12.468  -0.452  1.00  0.00    -0.265 OA
HETATM   34  C   UNL     1     -22.662 -13.412   1.646  1.00  0.00     0.126 C 
ENDBRANCH  31  32
ENDBRANCH   4  31
TORSDOF 14
ENDMDL
MODEL 3
REMARK VINA RESULT:      -7.7      2.495      6.817
REMARK  14 active torsions:
REMARK  status: ('A' for Active; 'I' for Inactive)
REMARK    1  A    between atoms: C_4  and  O_30 
REMARK    2  A    between atoms: C_9  and  C_13 
REMARK    3  A    between atoms: C_13  and  C_14 
REMARK    4  A    between atoms: C_14  and  C_15 
REMARK    5  A    between atoms: C_15  and  C_16 
REMARK    6  A    between atoms: C_16  and  C_18 
REMARK    7  A    between atoms: C_18  and  C_19 
REMARK    8  A    between atoms: C_19  and  C_20 
REMARK    9  A    between atoms: C_20  and  C_21 
REMARK   10  A    between atoms: C_21  and  C_23 
REMARK   11  A    between atoms: C_23  and  C_24 
REMARK   12  A    between atoms: C_24  and  C_25 
REMARK   13  A    between atoms: C_25  and  C_26 
REMARK   14  A    between atoms: O_30  and  C_31 
ROOT
HETATM    1  C   UNL     1     -20.409 -11.279  -3.763  1.00  0.00     0.052 C 
HETATM    2  C   UNL     1     -20.845  -9.897  -3.342  1.00  0.00    -0.019 C 
HETATM    3  C   UNL     1     -20.569  -8.724  -4.080  1.00  0.00    -0.019 C 
HETATM    4  C   UNL     1     -20.977  -7.467  -3.555  1.00  0.00     0.092 C 
HETATM    5  C   UNL     1     -21.636  -7.349  -2.320  1.00  0.00    -0.018 C 
HETATM    6  C   UNL     1     -22.000  -8.533  -1.648  1.00  0.00    -0.015 C 
HETATM    7  C   UNL     1     -21.550  -9.771  -2.117  1.00  0.00     0.083 C 
HETATM    8  O   UNL     1     -21.732 -10.948  -1.408  1.00  0.00    -0.339 OA
HETATM    9  C   UNL     1     -22.124 -10.797  -0.028  1.00  0.00     0.064 C 
HETATM   10  C   UNL     1     -23.289  -9.806   0.054  1.00  0.00     0.043 C 
HETATM   11  C   UNL     1     -22.838  -8.442  -0.398  1.00  0.00     0.045 C 
HETATM   12  C   UNL     1     -20.894 -10.377   0.803  1.00  0.00     0.046 C 
HETATM   13  C   UNL     1     -21.955  -6.022  -1.681  1.00  0.00     0.052 C 
HETATM   14  C   UNL     1     -19.827  -8.724  -5.396  1.00  0.00     0.052 C 
ENDROOT
BRANCH   9  15
HETATM   15  C   UNL     1     -22.592 -12.177   0.493  1.00  0.00     0.038 C 
BRANCH  15  16
HETATM   16  C   UNL     1     -21.432 -13.006   1.040  1.00  0.00     0.003 C 
BRANCH  16  17
HETATM   17  C   UNL     1     -20.871 -13.980   0.019  1.00  0.00     0.004 C 
BRANCH  17  18
HETATM   18  C   UNL     1     -19.338 -14.086   0.156  1.00  0.00    -0.019 C 
HETATM   19  C   UNL     1     -18.876 -15.542   0.266  1.00  0.00     0.010 C 
BRANCH  18  20
HETATM   20  C   UNL     1     -18.627 -13.401  -1.017  1.00  0.00     0.004 C 
BRANCH  20  21
HETATM   21  C   UNL     1     -17.735 -12.260  -0.531  1.00  0.00     0.001 C 
BRANCH  21  22
HETATM   22  C   UNL     1     -17.516 -11.228  -1.626  1.00  0.00     0.004 C 
BRANCH  22  23
HETATM   23  C   UNL     1     -16.024 -10.917  -1.847  1.00  0.00    -0.019 C 
HETATM   24  C   UNL     1     -15.253 -12.150  -2.327  1.00  0.00     0.010 C 
BRANCH  23  25
HETATM   25  C   UNL     1     -15.851  -9.758  -2.848  1.00  0.00     0.004 C 
BRANCH  25  26
HETATM   26  C   UNL     1     -16.807  -9.897  -4.034  1.00  0.00     0.001 C 
BRANCH  26  27
HETATM   27  C   UNL     1     -16.098  -9.817  -5.383  1.00  0.00     0.004 C 
BRANCH  27  28
HETATM   28  C   UNL     1     -16.068 -11.185  -6.090  1.00  0.00    -0.023 C 
HETATM   29  C   UNL     1     -14.727 -11.904  -5.918  1.00  0.00     0.009 C 
HETATM   30  C   UNL     1     -17.202 -12.064  -5.569  1.00  0.00     0.009 C 
ENDBRANCH  27  28
ENDBRANCH  26  27
ENDBRANCH  25  26
ENDBRANCH  23  25
ENDBRANCH  22  23
ENDBRANCH  21  22
ENDBRANCH  20  21
ENDBRANCH  18  20
ENDBRANCH  17  18
ENDBRANCH  16  17
ENDBRANCH  15  16
ENDBRANCH   9  15
BRANCH   4  31
HETATM   31  O   UNL     1     -20.547  -6.318  -4.281  1.00  0.00    -0.278 OA
BRANCH  31  32
HETATM   32  C   UNL     1     -21.336  -5.647  -5.220  1.00  0.00     0.260 C 
HETATM   33  O   UNL     1     -22.531  -5.799  -5.429  1.00  0.00    -0.265 OA
HETATM   34  C   UNL     1     -20.479  -4.638  -5.930  1.00  0.00     0.126 C 
ENDBRANCH  31  32
ENDBRANCH   4  31
TORSDOF 14
ENDMDL
MODEL 4
REMARK VINA RESULT:      -7.7      4.345     10.182
REMARK  14 active torsions:
REMARK  status: ('A' for Active; 'I' for Inactive)
REMARK    1  A    between atoms: C_4  and  O_30 
REMARK    2  A    between atoms: C_9  and  C_13 
REMARK    3  A    between atoms: C_13  and  C_14 
REMARK    4  A    between atoms: C_14  and  C_15 
REMARK    5  A    between atoms: C_15  and  C_16 
REMARK    6  A    between atoms: C_16  and  C_18 
REMARK    7  A    between atoms: C_18  and  C_19 
REMARK    8  A    between atoms: C_19  and  C_20 
REMARK    9  A    between atoms: C_20  and  C_21 
REMARK   10  A    between atoms: C_21  and  C_23 
REMARK   11  A    between atoms: C_23  and  C_24 
REMARK   12  A    between atoms: C_24  and  C_25 
REMARK   13  A    between atoms: C_25  and  C_26 
REMARK   14  A    between atoms: O_30  and  C_31 
ROOT
HETATM    1  C   UNL     1     -19.292  -5.250 -10.111  1.00  0.00     0.052 C 
HETATM    2  C   UNL     1     -20.682  -4.678  -9.975  1.00  0.00    -0.019 C 
HETATM    3  C   UNL     1     -21.325  -3.922 -10.980  1.00  0.00    -0.019 C 
HETATM    4  C   UNL     1     -22.614  -3.381 -10.717  1.00  0.00     0.092 C 
HETATM    5  C   UNL     1     -23.266  -3.562  -9.486  1.00  0.00    -0.018 C 
HETATM    6  C   UNL     1     -22.661  -4.408  -8.535  1.00  0.00    -0.015 C 
HETATM    7  C   UNL     1     -21.368  -4.893  -8.752  1.00  0.00     0.083 C 
HETATM    8  O   UNL     1     -20.659  -5.584  -7.782  1.00  0.00    -0.339 OA
HETATM    9  C   UNL     1     -21.188  -5.508  -6.442  1.00  0.00     0.064 C 
HETATM   10  C   UNL     1     -22.690  -5.806  -6.481  1.00  0.00     0.043 C 
HETATM   11  C   UNL     1     -23.407  -4.741  -7.267  1.00  0.00     0.045 C 
HETATM   12  C   UNL     1     -20.846  -4.130  -5.841  1.00  0.00     0.046 C 
HETATM   13  C   UNL     1     -24.567  -2.886  -9.137  1.00  0.00     0.052 C 
HETATM   14  C   UNL     1     -20.702  -3.622 -12.323  1.00  0.00     0.052 C 
ENDROOT
BRANCH   9  15
HETATM   15  C   UNL     1     -20.478  -6.583  -5.583  1.00  0.00     0.038 C 
BRANCH  15  16
HETATM   16  C   UNL     1     -21.329  -7.841  -5.424  1.00  0.00     0.003 C 
BRANCH  16  17
HETATM   17  C   UNL     1     -21.800  -8.058  -3.997  1.00  0.00     0.004 C 
BRANCH  17  18
HETATM   18  C   UNL     1     -21.054  -7.115  -3.031  1.00  0.00    -0.019 C 
HETATM   19  C   UNL     1     -22.017  -6.190  -2.282  1.00  0.00     0.010 C 
BRANCH  18  20
HETATM   20  C   UNL     1     -20.205  -7.906  -2.029  1.00  0.00     0.004 C 
BRANCH  20  21
HETATM   21  C   UNL     1     -20.976  -8.164  -0.735  1.00  0.00     0.001 C 
BRANCH  21  22
HETATM   22  C   UNL     1     -21.298  -9.640  -0.572  1.00  0.00     0.004 C 
BRANCH  22  23
HETATM   23  C   UNL     1     -22.640  -9.870   0.147  1.00  0.00    -0.019 C 
HETATM   24  C   UNL     1     -23.345  -8.549   0.467  1.00  0.00     0.010 C 
BRANCH  23  25
HETATM   25  C   UNL     1     -23.562 -10.775  -0.693  1.00  0.00     0.004 C 
BRANCH  25  26
HETATM   26  C   UNL     1     -23.198 -12.252  -0.526  1.00  0.00     0.001 C 
BRANCH  26  27
HETATM   27  C   UNL     1     -22.554 -12.558   0.823  1.00  0.00     0.004 C 
BRANCH  27  28
HETATM   28  C   UNL     1     -23.324 -13.654   1.584  1.00  0.00    -0.023 C 
HETATM   29  C   UNL     1     -23.888 -14.729   0.652  1.00  0.00     0.009 C 
HETATM   30  C   UNL     1     -22.415 -14.294   2.631  1.00  0.00     0.009 C 
ENDBRANCH  27  28
ENDBRANCH  26  27
ENDBRANCH  25  26
ENDBRANCH  23  25
ENDBRANCH  22  23
ENDBRANCH  21  22
ENDBRANCH  20  21
ENDBRANCH  18  20
ENDBRANCH  17  18
ENDBRANCH  16  17
ENDBRANCH  15  16
ENDBRANCH   9  15
BRANCH   4  31
HETATM   31  O   UNL     1     -23.144  -2.517 -11.719  1.00  0.00    -0.278 OA
BRANCH  31  32
HETATM   32  C   UNL     1     -24.051  -2.924 -12.703  1.00  0.00     0.260 C 
HETATM   33  O   UNL     1     -25.218  -3.252 -12.544  1.00  0.00    -0.265 OA
HETATM   34  C   UNL     1     -23.371  -2.849 -14.040  1.00  0.00     0.126 C 
ENDBRANCH  31  32
ENDBRANCH   4  31
TORSDOF 14
ENDMDL
MODEL 5
REMARK VINA RESULT:      -7.6      2.556      7.196
REMARK  14 active torsions:
REMARK  status: ('A' for Active; 'I' for Inactive)
REMARK    1  A    between atoms: C_4  and  O_30 
REMARK    2  A    between atoms: C_9  and  C_13 
REMARK    3  A    between atoms: C_13  and  C_14 
REMARK    4  A    between atoms: C_14  and  C_15 
REMARK    5  A    between atoms: C_15  and  C_16 
REMARK    6  A    between atoms: C_16  and  C_18 
REMARK    7  A    between atoms: C_18  and  C_19 
REMARK    8  A    between atoms: C_19  and  C_20 
REMARK    9  A    between atoms: C_20  and  C_21 
REMARK   10  A    between atoms: C_21  and  C_23 
REMARK   11  A    between atoms: C_23  and  C_24 
REMARK   12  A    between atoms: C_24  and  C_25 
REMARK   13  A    between atoms: C_25  and  C_26 
REMARK   14  A    between atoms: O_30  and  C_31 
ROOT
HETATM    1  C   UNL     1     -19.721 -11.291  -3.476  1.00  0.00     0.052 C 
HETATM    2  C   UNL     1     -20.403 -10.003  -3.083  1.00  0.00    -0.019 C 
HETATM    3  C   UNL     1     -20.284  -8.795  -3.805  1.00  0.00    -0.019 C 
HETATM    4  C   UNL     1     -20.924  -7.628  -3.306  1.00  0.00     0.092 C 
HETATM    5  C   UNL     1     -21.661  -7.630  -2.110  1.00  0.00    -0.018 C 
HETATM    6  C   UNL     1     -21.862  -8.863  -1.459  1.00  0.00    -0.015 C 
HETATM    7  C   UNL     1     -21.187 -10.006  -1.900  1.00  0.00     0.083 C 
HETATM    8  O   UNL     1     -21.211 -11.202  -1.201  1.00  0.00    -0.339 OA
HETATM    9  C   UNL     1     -21.699 -11.129   0.154  1.00  0.00     0.064 C 
HETATM   10  C   UNL     1     -23.016 -10.345   0.169  1.00  0.00     0.043 C 
HETATM   11  C   UNL     1     -22.772  -8.922  -0.258  1.00  0.00     0.045 C 
HETATM   12  C   UNL     1     -20.606 -10.518   1.054  1.00  0.00     0.046 C 
HETATM   13  C   UNL     1     -22.231  -6.379  -1.493  1.00  0.00     0.052 C 
HETATM   14  C   UNL     1     -19.479  -8.661  -5.077  1.00  0.00     0.052 C 
ENDROOT
BRANCH   9  15
HETATM   15  C   UNL     1     -21.962 -12.572   0.649  1.00  0.00     0.038 C 
BRANCH  15  16
HETATM   16  C   UNL     1     -21.678 -13.609  -0.435  1.00  0.00     0.003 C 
BRANCH  16  17
HETATM   17  C   UNL     1     -21.007 -14.859   0.106  1.00  0.00     0.004 C 
BRANCH  17  18
HETATM   18  C   UNL     1     -19.526 -14.580   0.436  1.00  0.00    -0.019 C 
HETATM   19  C   UNL     1     -19.065 -15.354   1.674  1.00  0.00     0.010 C 
BRANCH  18  20
HETATM   20  C   UNL     1     -18.620 -14.913  -0.755  1.00  0.00     0.004 C 
BRANCH  20  21
HETATM   21  C   UNL     1     -18.118 -13.642  -1.439  1.00  0.00     0.001 C 
BRANCH  21  22
HETATM   22  C   UNL     1     -17.926 -12.517  -0.435  1.00  0.00     0.004 C 
BRANCH  22  23
HETATM   23  C   UNL     1     -16.453 -12.086  -0.313  1.00  0.00    -0.019 C 
HETATM   24  C   UNL     1     -15.881 -12.407   1.071  1.00  0.00     0.010 C 
BRANCH  23  25
HETATM   25  C   UNL     1     -15.598 -12.750  -1.409  1.00  0.00     0.004 C 
BRANCH  25  26
HETATM   26  C   UNL     1     -15.014 -11.711  -2.370  1.00  0.00     0.001 C 
BRANCH  26  27
HETATM   27  C   UNL     1     -15.657 -11.751  -3.753  1.00  0.00     0.004 C 
BRANCH  27  28
HETATM   28  C   UNL     1     -16.368 -10.426  -4.087  1.00  0.00    -0.023 C 
HETATM   29  C   UNL     1     -16.243  -9.394  -2.964  1.00  0.00     0.009 C 
HETATM   30  C   UNL     1     -15.813  -9.854  -5.389  1.00  0.00     0.009 C 
ENDBRANCH  27  28
ENDBRANCH  26  27
ENDBRANCH  25  26
ENDBRANCH  23  25
ENDBRANCH  22  23
ENDBRANCH  21  22
ENDBRANCH  20  21
ENDBRANCH  18  20
ENDBRANCH  17  18
ENDBRANCH  16  17
ENDBRANCH  15  16
ENDBRANCH   9  15
BRANCH   4  31
HETATM   31  O   UNL     1     -20.649  -6.417  -4.008  1.00  0.00    -0.278 OA
BRANCH  31  32
HETATM   32  C   UNL     1     -21.459  -5.904  -5.026  1.00  0.00     0.260 C 
HETATM   33  O   UNL     1     -22.664  -6.056  -5.163  1.00  0.00    -0.265 OA
HETATM   34  C   UNL     1     -20.608  -5.064  -5.935  1.00  0.00     0.126 C 
ENDBRANCH  31  32
ENDBRANCH   4  31
TORSDOF 14
ENDMDL
MODEL 6
REMARK VINA RESULT:      -7.6      1.879      3.727
REMARK  14 active torsions:
REMARK  status: ('A' for Active; 'I' for Inactive)
REMARK    1  A    between atoms: C_4  and  O_30 
REMARK    2  A    between atoms: C_9  and  C_13 
REMARK    3  A    between atoms: C_13  and  C_14 
REMARK    4  A    between atoms: C_14  and  C_15 
REMARK    5  A    between atoms: C_15  and  C_16 
REMARK    6  A    between atoms: C_16  and  C_18 
REMARK    7  A    between atoms: C_18  and  C_19 
REMARK    8  A    between atoms: C_19  and  C_20 
REMARK    9  A    between atoms: C_20  and  C_21 
REMARK   10  A    between atoms: C_21  and  C_23 
REMARK   11  A    between atoms: C_23  and  C_24 
REMARK   12  A    between atoms: C_24  and  C_25 
REMARK   13  A    between atoms: C_25  and  C_26 
REMARK   14  A    between atoms: O_30  and  C_31 
ROOT
HETATM    1  C   UNL     1     -18.737  -9.351  -2.634  1.00  0.00     0.052 C 
HETATM    2  C   UNL     1     -18.129 -10.373  -3.564  1.00  0.00    -0.019 C 
HETATM    3  C   UNL     1     -16.771 -10.375  -3.954  1.00  0.00    -0.019 C 
HETATM    4  C   UNL     1     -16.323 -11.352  -4.885  1.00  0.00     0.092 C 
HETATM    5  C   UNL     1     -17.187 -12.309  -5.442  1.00  0.00    -0.018 C 
HETATM    6  C   UNL     1     -18.511 -12.363  -4.963  1.00  0.00    -0.015 C 
HETATM    7  C   UNL     1     -18.984 -11.371  -4.098  1.00  0.00     0.083 C 
HETATM    8  O   UNL     1     -20.317 -11.276  -3.732  1.00  0.00    -0.339 OA
HETATM    9  C   UNL     1     -21.245 -12.047  -4.523  1.00  0.00     0.064 C 
HETATM   10  C   UNL     1     -20.713 -13.477  -4.661  1.00  0.00     0.043 C 
HETATM   11  C   UNL     1     -19.419 -13.473  -5.431  1.00  0.00     0.045 C 
HETATM   12  C   UNL     1     -21.469 -11.336  -5.873  1.00  0.00     0.046 C 
HETATM   13  C   UNL     1     -16.767 -13.264  -6.529  1.00  0.00     0.052 C 
HETATM   14  C   UNL     1     -15.761  -9.367  -3.458  1.00  0.00     0.052 C 
ENDROOT
BRANCH   9  15
HETATM   15  C   UNL     1     -22.602 -12.079  -3.779  1.00  0.00     0.038 C 
BRANCH  15  16
HETATM   16  C   UNL     1     -22.674 -11.024  -2.676  1.00  0.00     0.003 C 
BRANCH  16  17
HETATM   17  C   UNL     1     -23.636 -11.400  -1.564  1.00  0.00     0.004 C 
BRANCH  17  18
HETATM   18  C   UNL     1     -22.905 -11.448  -0.206  1.00  0.00    -0.019 C 
HETATM   19  C   UNL     1     -22.936 -12.851   0.406  1.00  0.00     0.010 C 
BRANCH  18  20
HETATM   20  C   UNL     1     -21.455 -10.969  -0.340  1.00  0.00     0.004 C 
BRANCH  20  21
HETATM   21  C   UNL     1     -21.117  -9.927   0.726  1.00  0.00     0.001 C 
BRANCH  21  22
HETATM   22  C   UNL     1     -20.988  -8.540   0.117  1.00  0.00     0.004 C 
BRANCH  22  23
HETATM   23  C   UNL     1     -22.330  -8.011  -0.422  1.00  0.00    -0.019 C 
HETATM   24  C   UNL     1     -23.382  -7.903   0.685  1.00  0.00     0.010 C 
BRANCH  23  25
HETATM   25  C   UNL     1     -22.141  -6.646  -1.112  1.00  0.00     0.004 C 
BRANCH  25  26
HETATM   26  C   UNL     1     -22.214  -6.775  -2.635  1.00  0.00     0.001 C 
BRANCH  26  27
HETATM   27  C   UNL     1     -21.163  -5.936  -3.355  1.00  0.00     0.004 C 
BRANCH  27  28
HETATM   28  C   UNL     1     -20.721  -6.591  -4.677  1.00  0.00    -0.023 C 
HETATM   29  C   UNL     1     -21.699  -7.669  -5.152  1.00  0.00     0.009 C 
HETATM   30  C   UNL     1     -20.556  -5.522  -5.755  1.00  0.00     0.009 C 
ENDBRANCH  27  28
ENDBRANCH  26  27
ENDBRANCH  25  26
ENDBRANCH  23  25
ENDBRANCH  22  23
ENDBRANCH  21  22
ENDBRANCH  20  21
ENDBRANCH  18  20
ENDBRANCH  17  18
ENDBRANCH  16  17
ENDBRANCH  15  16
ENDBRANCH   9  15
BRANCH   4  31
HETATM   31  O   UNL     1     -14.978 -11.212  -5.337  1.00  0.00    -0.278 OA
BRANCH  31  32
HETATM   32  C   UNL     1     -13.998 -12.199  -5.193  1.00  0.00     0.260 C 
HETATM   33  O   UNL     1     -13.324 -12.708  -6.077  1.00  0.00    -0.265 OA
HETATM   34  C   UNL     1     -13.855 -12.521  -3.734  1.00  0.00     0.126 C 
ENDBRANCH  31  32
ENDBRANCH   4  31
TORSDOF 14
ENDMDL
MODEL 7
REMARK VINA RESULT:      -7.6      4.037      9.428
REMARK  14 active torsions:
REMARK  status: ('A' for Active; 'I' for Inactive)
REMARK    1  A    between atoms: C_4  and  O_30 
REMARK    2  A    between atoms: C_9  and  C_13 
REMARK    3  A    between atoms: C_13  and  C_14 
REMARK    4  A    between atoms: C_14  and  C_15 
REMARK    5  A    between atoms: C_15  and  C_16 
REMARK    6  A    between atoms: C_16  and  C_18 
REMARK    7  A    between atoms: C_18  and  C_19 
REMARK    8  A    between atoms: C_19  and  C_20 
REMARK    9  A    between atoms: C_20  and  C_21 
REMARK   10  A    between atoms: C_21  and  C_23 
REMARK   11  A    between atoms: C_23  and  C_24 
REMARK   12  A    between atoms: C_24  and  C_25 
REMARK   13  A    between atoms: C_25  and  C_26 
REMARK   14  A    between atoms: O_30  and  C_31 
ROOT
HETATM    1  C   UNL     1     -19.325  -5.182 -10.144  1.00  0.00     0.052 C 
HETATM    2  C   UNL     1     -20.723  -4.628 -10.018  1.00  0.00    -0.019 C 
HETATM    3  C   UNL     1     -21.377  -3.898 -11.035  1.00  0.00    -0.019 C 
HETATM    4  C   UNL     1     -22.673  -3.371 -10.782  1.00  0.00     0.092 C 
HETATM    5  C   UNL     1     -23.323  -3.540  -9.548  1.00  0.00    -0.018 C 
HETATM    6  C   UNL     1     -22.706  -4.361  -8.583  1.00  0.00    -0.015 C 
HETATM    7  C   UNL     1     -21.406  -4.832  -8.791  1.00  0.00     0.083 C 
HETATM    8  O   UNL     1     -20.688  -5.497  -7.810  1.00  0.00    -0.339 OA
HETATM    9  C   UNL     1     -21.218  -5.405  -6.471  1.00  0.00     0.064 C 
HETATM   10  C   UNL     1     -22.716  -5.724  -6.505  1.00  0.00     0.043 C 
HETATM   11  C   UNL     1     -23.447  -4.682  -7.309  1.00  0.00     0.045 C 
HETATM   12  C   UNL     1     -20.895  -4.012  -5.894  1.00  0.00     0.046 C 
HETATM   13  C   UNL     1     -24.633  -2.876  -9.210  1.00  0.00     0.052 C 
HETATM   14  C   UNL     1     -20.758  -3.612 -12.384  1.00  0.00     0.052 C 
ENDROOT
BRANCH   9  15
HETATM   15  C   UNL     1     -20.493  -6.455  -5.595  1.00  0.00     0.038 C 
BRANCH  15  16
HETATM   16  C   UNL     1     -21.447  -7.140  -4.618  1.00  0.00     0.003 C 
BRANCH  16  17
HETATM   17  C   UNL     1     -21.392  -6.541  -3.223  1.00  0.00     0.004 C 
BRANCH  17  18
HETATM   18  C   UNL     1     -21.480  -7.649  -2.153  1.00  0.00    -0.019 C 
HETATM   19  C   UNL     1     -20.094  -8.115  -1.702  1.00  0.00     0.010 C 
BRANCH  18  20
HETATM   20  C   UNL     1     -22.296  -7.185  -0.940  1.00  0.00     0.004 C 
BRANCH  20  21
HETATM   21  C   UNL     1     -22.279  -8.235   0.170  1.00  0.00     0.001 C 
BRANCH  21  22
HETATM   22  C   UNL     1     -23.292  -9.336  -0.100  1.00  0.00     0.004 C 
BRANCH  22  23
HETATM   23  C   UNL     1     -22.661 -10.740  -0.040  1.00  0.00    -0.019 C 
HETATM   24  C   UNL     1     -23.692 -11.810   0.328  1.00  0.00     0.010 C 
BRANCH  23  25
HETATM   25  C   UNL     1     -21.984 -11.092  -1.379  1.00  0.00     0.004 C 
BRANCH  25  26
HETATM   26  C   UNL     1     -22.991 -11.089  -2.532  1.00  0.00     0.001 C 
BRANCH  26  27
HETATM   27  C   UNL     1     -22.357 -10.746  -3.876  1.00  0.00     0.004 C 
BRANCH  27  28
HETATM   28  C   UNL     1     -20.924 -11.301  -3.986  1.00  0.00    -0.023 C 
HETATM   29  C   UNL     1     -20.898 -12.797  -4.311  1.00  0.00     0.009 C 
HETATM   30  C   UNL     1     -20.146 -10.522  -5.044  1.00  0.00     0.009 C 
ENDBRANCH  27  28
ENDBRANCH  26  27
ENDBRANCH  25  26
ENDBRANCH  23  25
ENDBRANCH  22  23
ENDBRANCH  21  22
ENDBRANCH  20  21
ENDBRANCH  18  20
ENDBRANCH  17  18
ENDBRANCH  16  17
ENDBRANCH  15  16
ENDBRANCH   9  15
BRANCH   4  31
HETATM   31  O   UNL     1     -23.214  -2.531 -11.798  1.00  0.00    -0.278 OA
BRANCH  31  32
HETATM   32  C   UNL     1     -24.106  -2.970 -12.782  1.00  0.00     0.260 C 
HETATM   33  O   UNL     1     -25.276  -3.290 -12.633  1.00  0.00    -0.265 OA
HETATM   34  C   UNL     1     -23.403  -2.944 -14.110  1.00  0.00     0.126 C 
ENDBRANCH  31  32
ENDBRANCH   4  31
TORSDOF 14
ENDMDL
MODEL 8
REMARK VINA RESULT:      -7.5      2.478      6.230
REMARK  14 active torsions:
REMARK  status: ('A' for Active; 'I' for Inactive)
REMARK    1  A    between atoms: C_4  and  O_30 
REMARK    2  A    between atoms: C_9  and  C_13 
REMARK    3  A    between atoms: C_13  and  C_14 
REMARK    4  A    between atoms: C_14  and  C_15 
REMARK    5  A    between atoms: C_15  and  C_16 
REMARK    6  A    between atoms: C_16  and  C_18 
REMARK    7  A    between atoms: C_18  and  C_19 
REMARK    8  A    between atoms: C_19  and  C_20 
REMARK    9  A    between atoms: C_20  and  C_21 
REMARK   10  A    between atoms: C_21  and  C_23 
REMARK   11  A    between atoms: C_23  and  C_24 
REMARK   12  A    between atoms: C_24  and  C_25 
REMARK   13  A    between atoms: C_25  and  C_26 
REMARK   14  A    between atoms: O_30  and  C_31 
ROOT
HETATM    1  C   UNL     1     -16.438  -9.676  -4.002  1.00  0.00     0.052 C 
HETATM    2  C   UNL     1     -17.528 -10.405  -4.749  1.00  0.00    -0.019 C 
HETATM    3  C   UNL     1     -17.287 -11.417  -5.705  1.00  0.00    -0.019 C 
HETATM    4  C   UNL     1     -18.391 -11.993  -6.392  1.00  0.00     0.092 C 
HETATM    5  C   UNL     1     -19.714 -11.582  -6.163  1.00  0.00    -0.018 C 
HETATM    6  C   UNL     1     -19.948 -10.651  -5.131  1.00  0.00    -0.015 C 
HETATM    7  C   UNL     1     -18.871 -10.028  -4.492  1.00  0.00     0.083 C 
HETATM    8  O   UNL     1     -19.039  -8.985  -3.595  1.00  0.00    -0.339 OA
HETATM    9  C   UNL     1     -20.341  -8.364  -3.587  1.00  0.00     0.064 C 
HETATM   10  C   UNL     1     -21.413  -9.456  -3.517  1.00  0.00     0.043 C 
HETATM   11  C   UNL     1     -21.369 -10.303  -4.762  1.00  0.00     0.045 C 
HETATM   12  C   UNL     1     -20.471  -7.447  -4.821  1.00  0.00     0.046 C 
HETATM   13  C   UNL     1     -20.883 -12.079  -6.974  1.00  0.00     0.052 C 
HETATM   14  C   UNL     1     -15.905 -11.907  -6.069  1.00  0.00     0.052 C 
ENDROOT
BRANCH   9  15
HETATM   15  C   UNL     1     -20.441  -7.472  -2.327  1.00  0.00     0.038 C 
BRANCH  15  16
HETATM   16  C   UNL     1     -21.868  -6.988  -2.081  1.00  0.00     0.003 C 
BRANCH  16  17
HETATM   17  C   UNL     1     -22.283  -7.093  -0.624  1.00  0.00     0.004 C 
BRANCH  17  18
HETATM   18  C   UNL     1     -21.989  -8.504  -0.076  1.00  0.00    -0.019 C 
HETATM   19  C   UNL     1     -21.296  -8.452   1.288  1.00  0.00     0.010 C 
BRANCH  18  20
HETATM   20  C   UNL     1     -23.270  -9.340   0.022  1.00  0.00     0.004 C 
BRANCH  20  21
HETATM   21  C   UNL     1     -23.043 -10.762  -0.490  1.00  0.00     0.001 C 
BRANCH  21  22
HETATM   22  C   UNL     1     -24.033 -11.734   0.130  1.00  0.00     0.004 C 
BRANCH  22  23
HETATM   23  C   UNL     1     -23.372 -13.065   0.533  1.00  0.00    -0.019 C 
HETATM   24  C   UNL     1     -23.341 -14.058  -0.632  1.00  0.00     0.010 C 
BRANCH  23  25
HETATM   25  C   UNL     1     -21.946 -12.827   1.067  1.00  0.00     0.004 C 
BRANCH  25  26
HETATM   26  C   UNL     1     -20.948 -13.814   0.457  1.00  0.00     0.001 C 
BRANCH  26  27
HETATM   27  C   UNL     1     -19.588 -13.185   0.170  1.00  0.00     0.004 C 
BRANCH  27  28
HETATM   28  C   UNL     1     -19.667 -12.160  -0.977  1.00  0.00    -0.023 C 
HETATM   29  C   UNL     1     -18.326 -11.471  -1.240  1.00  0.00     0.009 C 
HETATM   30  C   UNL     1     -20.162 -12.844  -2.249  1.00  0.00     0.009 C 
ENDBRANCH  27  28
ENDBRANCH  26  27
ENDBRANCH  25  26
ENDBRANCH  23  25
ENDBRANCH  22  23
ENDBRANCH  21  22
ENDBRANCH  20  21
ENDBRANCH  18  20
ENDBRANCH  17  18
ENDBRANCH  16  17
ENDBRANCH  15  16
ENDBRANCH   9  15
BRANCH   4  31
HETATM   31  O   UNL     1     -18.067 -12.907  -7.437  1.00  0.00    -0.278 OA
BRANCH  31  32
HETATM   32  C   UNL     1     -18.232 -14.293  -7.343  1.00  0.00     0.260 C 
HETATM   33  O   UNL     1     -18.147 -14.983  -6.337  1.00  0.00    -0.265 OA
HETATM   34  C   UNL     1     -18.592 -14.825  -8.700  1.00  0.00     0.126 C 
ENDBRANCH  31  32
ENDBRANCH   4  31
TORSDOF 14
ENDMDL
MODEL 9
REMARK VINA RESULT:      -7.5      2.882      4.227
REMARK  14 active torsions:
REMARK  status: ('A' for Active; 'I' for Inactive)
REMARK    1  A    between atoms: C_4  and  O_30 
REMARK    2  A    between atoms: C_9  and  C_13 
REMARK    3  A    between atoms: C_13  and  C_14 
REMARK    4  A    between atoms: C_14  and  C_15 
REMARK    5  A    between atoms: C_15  and  C_16 
REMARK    6  A    between atoms: C_16  and  C_18 
REMARK    7  A    between atoms: C_18  and  C_19 
REMARK    8  A    between atoms: C_19  and  C_20 
REMARK    9  A    between atoms: C_20  and  C_21 
REMARK   10  A    between atoms: C_21  and  C_23 
REMARK   11  A    between atoms: C_23  and  C_24 
REMARK   12  A    between atoms: C_24  and  C_25 
REMARK   13  A    between atoms: C_25  and  C_26 
REMARK   14  A    between atoms: O_30  and  C_31 
ROOT
HETATM    1  C   UNL     1     -17.977  -9.671  -3.490  1.00  0.00     0.052 C 
HETATM    2  C   UNL     1     -16.772 -10.577  -3.437  1.00  0.00    -0.019 C 
HETATM    3  C   UNL     1     -15.793 -10.646  -4.453  1.00  0.00    -0.019 C 
HETATM    4  C   UNL     1     -14.730 -11.583  -4.325  1.00  0.00     0.092 C 
HETATM    5  C   UNL     1     -14.627 -12.453  -3.227  1.00  0.00    -0.018 C 
HETATM    6  C   UNL     1     -15.547 -12.298  -2.171  1.00  0.00    -0.015 C 
HETATM    7  C   UNL     1     -16.634 -11.429  -2.311  1.00  0.00     0.083 C 
HETATM    8  O   UNL     1     -17.659 -11.362  -1.381  1.00  0.00    -0.339 OA
HETATM    9  C   UNL     1     -17.718 -12.445  -0.431  1.00  0.00     0.064 C 
HETATM   10  C   UNL     1     -16.323 -12.665   0.162  1.00  0.00     0.043 C 
HETATM   11  C   UNL     1     -15.370 -13.114  -0.915  1.00  0.00     0.045 C 
HETATM   12  C   UNL     1     -18.300 -13.695  -1.122  1.00  0.00     0.046 C 
HETATM   13  C   UNL     1     -13.590 -13.543  -3.135  1.00  0.00     0.052 C 
HETATM   14  C   UNL     1     -15.826  -9.795  -5.701  1.00  0.00     0.052 C 
ENDROOT
BRANCH   9  15
HETATM   15  C   UNL     1     -18.693 -12.039   0.701  1.00  0.00     0.038 C 
BRANCH  15  16
HETATM   16  C   UNL     1     -19.790 -11.101   0.202  1.00  0.00     0.003 C 
BRANCH  16  17
HETATM   17  C   UNL     1     -21.071 -11.210   1.009  1.00  0.00     0.004 C 
BRANCH  17  18
HETATM   18  C   UNL     1     -21.928 -12.392   0.508  1.00  0.00    -0.019 C 
HETATM   19  C   UNL     1     -22.174 -13.423   1.613  1.00  0.00     0.010 C 
BRANCH  18  20
HETATM   20  C   UNL     1     -23.267 -11.905  -0.059  1.00  0.00     0.004 C 
BRANCH  20  21
HETATM   21  C   UNL     1     -23.438 -12.336  -1.515  1.00  0.00     0.001 C 
BRANCH  21  22
HETATM   22  C   UNL     1     -23.357 -11.144  -2.454  1.00  0.00     0.004 C 
BRANCH  22  23
HETATM   23  C   UNL     1     -21.903 -10.719  -2.735  1.00  0.00    -0.019 C 
HETATM   24  C   UNL     1     -21.049 -11.899  -3.205  1.00  0.00     0.010 C 
BRANCH  23  25
HETATM   25  C   UNL     1     -21.858  -9.583  -3.775  1.00  0.00     0.004 C 
BRANCH  25  26
HETATM   26  C   UNL     1     -21.266  -8.303  -3.180  1.00  0.00     0.001 C 
BRANCH  26  27
HETATM   27  C   UNL     1     -20.940  -8.432  -1.695  1.00  0.00     0.004 C 
BRANCH  27  28
HETATM   28  C   UNL     1     -21.716  -7.403  -0.852  1.00  0.00    -0.023 C 
HETATM   29  C   UNL     1     -22.293  -6.266  -1.699  1.00  0.00     0.009 C 
HETATM   30  C   UNL     1     -22.835  -8.101  -0.082  1.00  0.00     0.009 C 
ENDBRANCH  27  28
ENDBRANCH  26  27
ENDBRANCH  25  26
ENDBRANCH  23  25
ENDBRANCH  22  23
ENDBRANCH  21  22
ENDBRANCH  20  21
ENDBRANCH  18  20
ENDBRANCH  17  18
ENDBRANCH  16  17
ENDBRANCH  15  16
ENDBRANCH   9  15
BRANCH   4  31
HETATM   31  O   UNL     1     -13.858 -11.695  -5.447  1.00  0.00    -0.278 OA
BRANCH  31  32
HETATM   32  C   UNL     1     -13.795 -12.817  -6.278  1.00  0.00     0.260 C 
HETATM   33  O   UNL     1     -12.791 -13.409  -6.649  1.00  0.00    -0.265 OA
HETATM   34  C   UNL     1     -15.195 -13.236  -6.624  1.00  0.00     0.126 C 
ENDBRANCH  31  32
ENDBRANCH   4  31
TORSDOF 14
ENDMDL
