MODEL 1
REMARK VINA RESULT:      -7.1      0.000      0.000
REMARK  18 active torsions:
REMARK  status: ('A' for Active; 'I' for Inactive)
REMARK    1  A    between atoms: C_2  and  C_3 
REMARK    2  A    between atoms: C_3  and  C_4 
REMARK    3  A    between atoms: C_4  and  C_5 
REMARK    4  A    between atoms: C_5  and  C_6 
REMARK    5  A    between atoms: C_6  and  C_7 
REMARK    6  A    between atoms: C_7  and  C_8 
REMARK    7  A    between atoms: C_8  and  C_9 
REMARK    8  A    between atoms: C_9  and  C_10 
REMARK    9  A    between atoms: C_10  and  C_11 
REMARK   10  A    between atoms: C_11  and  C_12 
REMARK   11  A    between atoms: C_12  and  C_13 
REMARK   12  A    between atoms: C_13  and  C_14 
REMARK   13  A    between atoms: C_14  and  C_15 
REMARK   14  A    between atoms: C_15  and  C_16 
REMARK   15  A    between atoms: C_16  and  O_17 
REMARK   16  A    between atoms: O_17  and  P_18 
REMARK   17  A    between atoms: P_18  and  O_20 
REMARK   18  A    between atoms: P_18  and  O_21 
ROOT
HETATM    1  C   UNL     1     -22.367  -4.155  -7.970  1.00  0.00     0.000 C 
ENDROOT
BRANCH   1   2
HETATM    2  C   UNL     1     -21.192  -5.084  -8.215  1.00  0.00     0.000 C 
BRANCH   2   3
HETATM    3  C   UNL     1     -19.977  -4.628  -7.425  1.00  0.00     0.000 C 
BRANCH   3   4
HETATM    4  C   UNL     1     -20.252  -4.723  -5.931  1.00  0.00     0.000 C 
BRANCH   4   5
HETATM    5  C   UNL     1     -20.372  -6.177  -5.502  1.00  0.00     0.000 C 
BRANCH   5   6
HETATM    6  C   UNL     1     -21.779  -6.465  -5.001  1.00  0.00     0.000 C 
BRANCH   6   7
HETATM    7  C   UNL     1     -21.734  -7.141  -3.635  1.00  0.00     0.000 C 
BRANCH   7   8
HETATM    8  C   UNL     1     -21.576  -6.105  -2.533  1.00  0.00     0.000 C 
BRANCH   8   9
HETATM    9  C   UNL     1     -22.326  -6.536  -1.278  1.00  0.00     0.000 C 
BRANCH   9  10
HETATM   10  C   UNL     1     -21.680  -7.775  -0.667  1.00  0.00    -0.000 C 
BRANCH  10  11
HETATM   11  C   UNL     1     -22.618  -8.445   0.332  1.00  0.00    -0.005 C 
HETATM   12  C   UNL     1     -23.173  -9.744  -0.228  1.00  0.00     0.005 C 
ENDBRANCH  10  11
ENDBRANCH   9  10
ENDBRANCH   8   9
ENDBRANCH   7   8
ENDBRANCH   6   7
ENDBRANCH   5   6
ENDBRANCH   4   5
ENDBRANCH   3   4
ENDBRANCH   2   3
ENDBRANCH   1   2
BRANCH   1  13
HETATM   13  C   UNL     1     -22.868  -3.573  -9.288  1.00  0.00     0.000 C 
BRANCH  13  14
HETATM   14  C   UNL     1     -23.716  -4.601 -10.026  1.00  0.00     0.002 C 
BRANCH  14  15
HETATM   15  C   UNL     1     -23.337  -4.721 -11.500  1.00  0.00     0.027 C 
BRANCH  15  16
HETATM   16  C   UNL     1     -22.554  -3.457 -11.896  1.00  0.00     0.180 C 
BRANCH  16  17
HETATM   17  O   UNL     1     -23.281  -2.634 -12.725  1.00  0.00    -0.297 OA
BRANCH  17  18
HETATM   18  P   UNL     1     -23.202  -2.511 -14.292  1.00  0.00     0.390 P 
HETATM   19  O   UNL     1     -23.900  -3.759 -14.824  1.00  0.00    -0.632 OA
BRANCH  18  20
HETATM   20  O   UNL     1     -24.363  -1.414 -14.108  1.00  0.00    -0.307 OA
HETATM   21  H   UNL     1     -24.875  -1.316 -14.909  1.00  0.00     0.222 HD
ENDBRANCH  18  20
BRANCH  18  22
HETATM   22  O   UNL     1     -22.951  -1.715 -15.634  1.00  0.00    -0.307 OA
HETATM   23  H   UNL     1     -23.638  -2.125 -16.194  1.00  0.00     0.222 HD
ENDBRANCH  18  22
ENDBRANCH  17  18
ENDBRANCH  16  17
ENDBRANCH  15  16
ENDBRANCH  14  15
ENDBRANCH  13  14
ENDBRANCH   1  13
TORSDOF 18
ENDMDL
MODEL 2
REMARK VINA RESULT:      -6.9      1.056      1.633
REMARK  18 active torsions:
REMARK  status: ('A' for Active; 'I' for Inactive)
REMARK    1  A    between atoms: C_2  and  C_3 
REMARK    2  A    between atoms: C_3  and  C_4 
REMARK    3  A    between atoms: C_4  and  C_5 
REMARK    4  A    between atoms: C_5  and  C_6 
REMARK    5  A    between atoms: C_6  and  C_7 
REMARK    6  A    between atoms: C_7  and  C_8 
REMARK    7  A    between atoms: C_8  and  C_9 
REMARK    8  A    between atoms: C_9  and  C_10 
REMARK    9  A    between atoms: C_10  and  C_11 
REMARK   10  A    between atoms: C_11  and  C_12 
REMARK   11  A    between atoms: C_12  and  C_13 
REMARK   12  A    between atoms: C_13  and  C_14 
REMARK   13  A    between atoms: C_14  and  C_15 
REMARK   14  A    between atoms: C_15  and  C_16 
REMARK   15  A    between atoms: C_16  and  O_17 
REMARK   16  A    between atoms: O_17  and  P_18 
REMARK   17  A    between atoms: P_18  and  O_20 
REMARK   18  A    between atoms: P_18  and  O_21 
ROOT
HETATM    1  C   UNL     1     -20.120  -5.109  -8.884  1.00  0.00     0.000 C 
ENDROOT
BRANCH   1   2
HETATM    2  C   UNL     1     -19.960  -4.116  -7.748  1.00  0.00     0.000 C 
BRANCH   2   3
HETATM    3  C   UNL     1     -19.976  -4.830  -6.408  1.00  0.00     0.000 C 
BRANCH   3   4
HETATM    4  C   UNL     1     -21.409  -5.057  -5.946  1.00  0.00     0.000 C 
BRANCH   4   5
HETATM    5  C   UNL     1     -21.639  -6.526  -5.624  1.00  0.00     0.000 C 
BRANCH   5   6
HETATM    6  C   UNL     1     -20.598  -7.016  -4.629  1.00  0.00     0.000 C 
BRANCH   6   7
HETATM    7  C   UNL     1     -21.268  -7.495  -3.346  1.00  0.00     0.000 C 
BRANCH   7   8
HETATM    8  C   UNL     1     -21.859  -6.319  -2.583  1.00  0.00     0.000 C 
BRANCH   8   9
HETATM    9  C   UNL     1     -22.260  -6.740  -1.173  1.00  0.00     0.000 C 
BRANCH   9  10
HETATM   10  C   UNL     1     -22.127  -8.250  -1.007  1.00  0.00    -0.000 C 
BRANCH  10  11
HETATM   11  C   UNL     1     -23.025  -8.759   0.116  1.00  0.00    -0.005 C 
HETATM   12  C   UNL     1     -23.506 -10.171  -0.169  1.00  0.00     0.005 C 
ENDBRANCH  10  11
ENDBRANCH   9  10
ENDBRANCH   8   9
ENDBRANCH   7   8
ENDBRANCH   6   7
ENDBRANCH   5   6
ENDBRANCH   4   5
ENDBRANCH   3   4
ENDBRANCH   2   3
ENDBRANCH   1   2
BRANCH   1  13
HETATM   13  C   UNL     1     -20.616  -4.402 -10.143  1.00  0.00     0.000 C 
BRANCH  13  14
HETATM   14  C   UNL     1     -21.870  -3.597  -9.830  1.00  0.00     0.002 C 
BRANCH  14  15
HETATM   15  C   UNL     1     -23.151  -4.359 -10.163  1.00  0.00     0.027 C 
BRANCH  15  16
HETATM   16  C   UNL     1     -24.133  -3.376 -10.825  1.00  0.00     0.180 C 
BRANCH  16  17
HETATM   17  O   UNL     1     -23.589  -2.763 -11.930  1.00  0.00    -0.297 OA
BRANCH  17  18
HETATM   18  P   UNL     1     -23.854  -3.076 -13.449  1.00  0.00     0.390 P 
HETATM   19  O   UNL     1     -24.112  -1.718 -14.096  1.00  0.00    -0.632 OA
BRANCH  18  20
HETATM   20  O   UNL     1     -22.263  -3.291 -13.521  1.00  0.00    -0.307 OA
HETATM   21  H   UNL     1     -22.033  -3.960 -14.163  1.00  0.00     0.222 HD
ENDBRANCH  18  20
BRANCH  18  22
HETATM   22  O   UNL     1     -23.828  -4.012 -14.722  1.00  0.00    -0.307 OA
HETATM   23  H   UNL     1     -23.864  -3.332 -15.421  1.00  0.00     0.222 HD
ENDBRANCH  18  22
ENDBRANCH  17  18
ENDBRANCH  16  17
ENDBRANCH  15  16
ENDBRANCH  14  15
ENDBRANCH  13  14
ENDBRANCH   1  13
TORSDOF 18
ENDMDL
MODEL 3
REMARK VINA RESULT:      -6.8      2.105      3.522
REMARK  18 active torsions:
REMARK  status: ('A' for Active; 'I' for Inactive)
REMARK    1  A    between atoms: C_2  and  C_3 
REMARK    2  A    between atoms: C_3  and  C_4 
REMARK    3  A    between atoms: C_4  and  C_5 
REMARK    4  A    between atoms: C_5  and  C_6 
REMARK    5  A    between atoms: C_6  and  C_7 
REMARK    6  A    between atoms: C_7  and  C_8 
REMARK    7  A    between atoms: C_8  and  C_9 
REMARK    8  A    between atoms: C_9  and  C_10 
REMARK    9  A    between atoms: C_10  and  C_11 
REMARK   10  A    between atoms: C_11  and  C_12 
REMARK   11  A    between atoms: C_12  and  C_13 
REMARK   12  A    between atoms: C_13  and  C_14 
REMARK   13  A    between atoms: C_14  and  C_15 
REMARK   14  A    between atoms: C_15  and  C_16 
REMARK   15  A    between atoms: C_16  and  O_17 
REMARK   16  A    between atoms: O_17  and  P_18 
REMARK   17  A    between atoms: P_18  and  O_20 
REMARK   18  A    between atoms: P_18  and  O_21 
ROOT
HETATM    1  C   UNL     1     -19.741  -4.874  -6.409  1.00  0.00     0.000 C 
ENDROOT
BRANCH   1   2
HETATM    2  C   UNL     1     -20.596  -6.127  -6.438  1.00  0.00     0.000 C 
BRANCH   2   3
HETATM    3  C   UNL     1     -21.870  -5.923  -5.638  1.00  0.00     0.000 C 
BRANCH   3   4
HETATM    4  C   UNL     1     -21.939  -6.921  -4.490  1.00  0.00     0.000 C 
BRANCH   4   5
HETATM    5  C   UNL     1     -21.448  -6.284  -3.199  1.00  0.00     0.000 C 
BRANCH   5   6
HETATM    6  C   UNL     1     -21.437  -7.310  -2.077  1.00  0.00     0.000 C 
BRANCH   6   7
HETATM    7  C   UNL     1     -22.336  -6.859  -0.931  1.00  0.00     0.000 C 
BRANCH   7   8
HETATM    8  C   UNL     1     -22.227  -7.821   0.242  1.00  0.00     0.000 C 
BRANCH   8   9
HETATM    9  C   UNL     1     -23.317  -8.885   0.167  1.00  0.00     0.000 C 
BRANCH   9  10
HETATM   10  C   UNL     1     -22.703 -10.266  -0.038  1.00  0.00    -0.000 C 
BRANCH  10  11
HETATM   11  C   UNL     1     -23.460 -11.048  -1.107  1.00  0.00    -0.005 C 
HETATM   12  C   UNL     1     -22.831 -10.850  -2.475  1.00  0.00     0.005 C 
ENDBRANCH  10  11
ENDBRANCH   9  10
ENDBRANCH   8   9
ENDBRANCH   7   8
ENDBRANCH   6   7
ENDBRANCH   5   6
ENDBRANCH   4   5
ENDBRANCH   3   4
ENDBRANCH   2   3
ENDBRANCH   1   2
BRANCH   1  13
HETATM   13  C   UNL     1     -19.482  -4.372  -7.827  1.00  0.00     0.000 C 
BRANCH  13  14
HETATM   14  C   UNL     1     -20.645  -4.751  -8.735  1.00  0.00     0.002 C 
BRANCH  14  15
HETATM   15  C   UNL     1     -20.629  -3.982 -10.055  1.00  0.00     0.027 C 
BRANCH  15  16
HETATM   16  C   UNL     1     -21.843  -4.434 -10.885  1.00  0.00     0.180 C 
BRANCH  16  17
HETATM   17  O   UNL     1     -22.986  -4.529 -10.124  1.00  0.00    -0.297 OA
BRANCH  17  18
HETATM   18  P   UNL     1     -24.152  -3.482  -9.979  1.00  0.00     0.390 P 
HETATM   19  O   UNL     1     -24.502  -3.077 -11.408  1.00  0.00    -0.632 OA
BRANCH  18  20
HETATM   20  O   UNL     1     -25.059  -4.771  -9.663  1.00  0.00    -0.307 OA
HETATM   21  H   UNL     1     -24.591  -5.580  -9.860  1.00  0.00     0.222 HD
ENDBRANCH  18  20
BRANCH  18  22
HETATM   22  O   UNL     1     -25.291  -2.742  -9.172  1.00  0.00    -0.307 OA
HETATM   23  H   UNL     1     -25.594  -3.480  -8.610  1.00  0.00     0.222 HD
ENDBRANCH  18  22
ENDBRANCH  17  18
ENDBRANCH  16  17
ENDBRANCH  15  16
ENDBRANCH  14  15
ENDBRANCH  13  14
ENDBRANCH   1  13
TORSDOF 18
ENDMDL
MODEL 4
REMARK VINA RESULT:      -6.8     12.400     14.247
REMARK  18 active torsions:
REMARK  status: ('A' for Active; 'I' for Inactive)
REMARK    1  A    between atoms: C_2  and  C_3 
REMARK    2  A    between atoms: C_3  and  C_4 
REMARK    3  A    between atoms: C_4  and  C_5 
REMARK    4  A    between atoms: C_5  and  C_6 
REMARK    5  A    between atoms: C_6  and  C_7 
REMARK    6  A    between atoms: C_7  and  C_8 
REMARK    7  A    between atoms: C_8  and  C_9 
REMARK    8  A    between atoms: C_9  and  C_10 
REMARK    9  A    between atoms: C_10  and  C_11 
REMARK   10  A    between atoms: C_11  and  C_12 
REMARK   11  A    between atoms: C_12  and  C_13 
REMARK   12  A    between atoms: C_13  and  C_14 
REMARK   13  A    between atoms: C_14  and  C_15 
REMARK   14  A    between atoms: C_15  and  C_16 
REMARK   15  A    between atoms: C_16  and  O_17 
REMARK   16  A    between atoms: O_17  and  P_18 
REMARK   17  A    between atoms: P_18  and  O_20 
REMARK   18  A    between atoms: P_18  and  O_21 
ROOT
HETATM    1  C   UNL     1     -34.819   0.754 -13.522  1.00  0.00     0.000 C 
ENDROOT
BRANCH   1   2
HETATM    2  C   UNL     1     -35.623  -0.331 -12.829  1.00  0.00     0.000 C 
BRANCH   2   3
HETATM    3  C   UNL     1     -36.096   0.143 -11.466  1.00  0.00     0.000 C 
BRANCH   3   4
HETATM    4  C   UNL     1     -36.215  -1.035 -10.508  1.00  0.00     0.000 C 
BRANCH   4   5
HETATM    5  C   UNL     1     -35.539  -2.266 -11.092  1.00  0.00     0.000 C 
BRANCH   5   6
HETATM    6  C   UNL     1     -34.248  -2.563 -10.343  1.00  0.00     0.000 C 
BRANCH   6   7
HETATM    7  C   UNL     1     -33.139  -2.943 -11.318  1.00  0.00     0.000 C 
BRANCH   7   8
HETATM    8  C   UNL     1     -33.048  -4.455 -11.456  1.00  0.00     0.000 C 
BRANCH   8   9
HETATM    9  C   UNL     1     -33.967  -5.144 -10.453  1.00  0.00     0.000 C 
BRANCH   9  10
HETATM   10  C   UNL     1     -34.429  -6.495 -10.989  1.00  0.00    -0.000 C 
BRANCH  10  11
HETATM   11  C   UNL     1     -34.835  -7.425  -9.852  1.00  0.00    -0.005 C 
HETATM   12  C   UNL     1     -33.987  -8.685  -9.848  1.00  0.00     0.005 C 
ENDBRANCH  10  11
ENDBRANCH   9  10
ENDBRANCH   8   9
ENDBRANCH   7   8
ENDBRANCH   6   7
ENDBRANCH   5   6
ENDBRANCH   4   5
ENDBRANCH   3   4
ENDBRANCH   2   3
ENDBRANCH   1   2
BRANCH   1  13
HETATM   13  C   UNL     1     -35.216   0.853 -14.992  1.00  0.00     0.000 C 
BRANCH  13  14
HETATM   14  C   UNL     1     -36.460   0.015 -15.256  1.00  0.00     0.002 C 
BRANCH  14  15
HETATM   15  C   UNL     1     -36.298  -0.906 -16.463  1.00  0.00     0.027 C 
BRANCH  15  16
HETATM   16  C   UNL     1     -34.872  -1.486 -16.434  1.00  0.00     0.180 C 
BRANCH  16  17
HETATM   17  O   UNL     1     -34.869  -2.846 -16.220  1.00  0.00    -0.297 OA
BRANCH  17  18
HETATM   18  P   UNL     1     -33.806  -3.905 -16.693  1.00  0.00     0.390 P 
HETATM   19  O   UNL     1     -32.678  -3.085 -17.314  1.00  0.00    -0.632 OA
BRANCH  18  20
HETATM   20  O   UNL     1     -33.448  -4.013 -15.130  1.00  0.00    -0.307 OA
HETATM   21  H   UNL     1     -34.018  -3.453 -14.605  1.00  0.00     0.222 HD
ENDBRANCH  18  20
BRANCH  18  22
HETATM   22  O   UNL     1     -33.174  -5.353 -16.724  1.00  0.00    -0.307 OA
HETATM   23  H   UNL     1     -33.753  -5.794 -16.073  1.00  0.00     0.222 HD
ENDBRANCH  18  22
ENDBRANCH  17  18
ENDBRANCH  16  17
ENDBRANCH  15  16
ENDBRANCH  14  15
ENDBRANCH  13  14
ENDBRANCH   1  13
TORSDOF 18
ENDMDL
MODEL 5
REMARK VINA RESULT:      -6.7      1.294      2.445
REMARK  18 active torsions:
REMARK  status: ('A' for Active; 'I' for Inactive)
REMARK    1  A    between atoms: C_2  and  C_3 
REMARK    2  A    between atoms: C_3  and  C_4 
REMARK    3  A    between atoms: C_4  and  C_5 
REMARK    4  A    between atoms: C_5  and  C_6 
REMARK    5  A    between atoms: C_6  and  C_7 
REMARK    6  A    between atoms: C_7  and  C_8 
REMARK    7  A    between atoms: C_8  and  C_9 
REMARK    8  A    between atoms: C_9  and  C_10 
REMARK    9  A    between atoms: C_10  and  C_11 
REMARK   10  A    between atoms: C_11  and  C_12 
REMARK   11  A    between atoms: C_12  and  C_13 
REMARK   12  A    between atoms: C_13  and  C_14 
REMARK   13  A    between atoms: C_14  and  C_15 
REMARK   14  A    between atoms: C_15  and  C_16 
REMARK   15  A    between atoms: C_16  and  O_17 
REMARK   16  A    between atoms: O_17  and  P_18 
REMARK   17  A    between atoms: P_18  and  O_20 
REMARK   18  A    between atoms: P_18  and  O_21 
ROOT
HETATM    1  C   UNL     1     -19.788  -5.496  -7.657  1.00  0.00     0.000 C 
ENDROOT
BRANCH   1   2
HETATM    2  C   UNL     1     -20.235  -5.933  -6.274  1.00  0.00     0.000 C 
BRANCH   2   3
HETATM    3  C   UNL     1     -21.707  -5.621  -6.066  1.00  0.00     0.000 C 
BRANCH   3   4
HETATM    4  C   UNL     1     -22.247  -6.394  -4.870  1.00  0.00     0.000 C 
BRANCH   4   5
HETATM    5  C   UNL     1     -21.351  -6.193  -3.657  1.00  0.00     0.000 C 
BRANCH   5   6
HETATM    6  C   UNL     1     -22.165  -6.307  -2.377  1.00  0.00     0.000 C 
BRANCH   6   7
HETATM    7  C   UNL     1     -21.481  -7.246  -1.390  1.00  0.00     0.000 C 
BRANCH   7   8
HETATM    8  C   UNL     1     -22.399  -7.544  -0.214  1.00  0.00     0.000 C 
BRANCH   8   9
HETATM    9  C   UNL     1     -22.194  -8.971   0.281  1.00  0.00     0.000 C 
BRANCH   9  10
HETATM   10  C   UNL     1     -21.835  -9.894  -0.879  1.00  0.00    -0.000 C 
BRANCH  10  11
HETATM   11  C   UNL     1     -23.044 -10.710  -1.324  1.00  0.00    -0.005 C 
HETATM   12  C   UNL     1     -24.025 -10.899  -0.180  1.00  0.00     0.005 C 
ENDBRANCH  10  11
ENDBRANCH   9  10
ENDBRANCH   8   9
ENDBRANCH   7   8
ENDBRANCH   6   7
ENDBRANCH   5   6
ENDBRANCH   4   5
ENDBRANCH   3   4
ENDBRANCH   2   3
ENDBRANCH   1   2
BRANCH   1  13
HETATM   13  C   UNL     1     -20.950  -4.861  -8.416  1.00  0.00     0.000 C 
BRANCH  13  14
HETATM   14  C   UNL     1     -20.432  -4.128  -9.646  1.00  0.00     0.002 C 
BRANCH  14  15
HETATM   15  C   UNL     1     -21.436  -4.138 -10.797  1.00  0.00     0.027 C 
BRANCH  15  16
HETATM   16  C   UNL     1     -22.829  -3.836 -10.216  1.00  0.00     0.180 C 
BRANCH  16  17
HETATM   17  O   UNL     1     -23.577  -3.036 -11.050  1.00  0.00    -0.297 OA
BRANCH  17  18
HETATM   18  P   UNL     1     -24.016  -3.316 -12.535  1.00  0.00     0.390 P 
HETATM   19  O   UNL     1     -25.497  -2.951 -12.588  1.00  0.00    -0.632 OA
BRANCH  18  20
HETATM   20  O   UNL     1     -23.226  -1.954 -12.860  1.00  0.00    -0.307 OA
HETATM   21  H   UNL     1     -22.288  -2.113 -12.957  1.00  0.00     0.222 HD
ENDBRANCH  18  20
BRANCH  18  22
HETATM   22  O   UNL     1     -23.725  -3.602 -14.062  1.00  0.00    -0.307 OA
HETATM   23  H   UNL     1     -23.309  -2.754 -14.307  1.00  0.00     0.222 HD
ENDBRANCH  18  22
ENDBRANCH  17  18
ENDBRANCH  16  17
ENDBRANCH  15  16
ENDBRANCH  14  15
ENDBRANCH  13  14
ENDBRANCH   1  13
TORSDOF 18
ENDMDL
MODEL 6
REMARK VINA RESULT:      -6.5      2.358      3.128
REMARK  18 active torsions:
REMARK  status: ('A' for Active; 'I' for Inactive)
REMARK    1  A    between atoms: C_2  and  C_3 
REMARK    2  A    between atoms: C_3  and  C_4 
REMARK    3  A    between atoms: C_4  and  C_5 
REMARK    4  A    between atoms: C_5  and  C_6 
REMARK    5  A    between atoms: C_6  and  C_7 
REMARK    6  A    between atoms: C_7  and  C_8 
REMARK    7  A    between atoms: C_8  and  C_9 
REMARK    8  A    between atoms: C_9  and  C_10 
REMARK    9  A    between atoms: C_10  and  C_11 
REMARK   10  A    between atoms: C_11  and  C_12 
REMARK   11  A    between atoms: C_12  and  C_13 
REMARK   12  A    between atoms: C_13  and  C_14 
REMARK   13  A    between atoms: C_14  and  C_15 
REMARK   14  A    between atoms: C_15  and  C_16 
REMARK   15  A    between atoms: C_16  and  O_17 
REMARK   16  A    between atoms: O_17  and  P_18 
REMARK   17  A    between atoms: P_18  and  O_20 
REMARK   18  A    between atoms: P_18  and  O_21 
ROOT
HETATM    1  C   UNL     1     -20.387  -4.759 -10.028  1.00  0.00     0.000 C 
ENDROOT
BRANCH   1   2
HETATM    2  C   UNL     1     -20.015  -4.692  -8.558  1.00  0.00     0.000 C 
BRANCH   2   3
HETATM    3  C   UNL     1     -21.142  -5.235  -7.697  1.00  0.00     0.000 C 
BRANCH   3   4
HETATM    4  C   UNL     1     -20.580  -5.922  -6.461  1.00  0.00     0.000 C 
BRANCH   4   5
HETATM    5  C   UNL     1     -21.286  -7.247  -6.220  1.00  0.00     0.000 C 
BRANCH   5   6
HETATM    6  C   UNL     1     -21.748  -7.343  -4.774  1.00  0.00     0.000 C 
BRANCH   6   7
HETATM    7  C   UNL     1     -21.425  -6.056  -4.023  1.00  0.00     0.000 C 
BRANCH   7   8
HETATM    8  C   UNL     1     -21.420  -6.301  -2.522  1.00  0.00     0.000 C 
BRANCH   8   9
HETATM    9  C   UNL     1     -20.690  -7.599  -2.192  1.00  0.00     0.000 C 
BRANCH   9  10
HETATM   10  C   UNL     1     -21.555  -8.489  -1.306  1.00  0.00    -0.000 C 
BRANCH  10  11
HETATM   11  C   UNL     1     -22.455  -7.654  -0.402  1.00  0.00    -0.005 C 
HETATM   12  C   UNL     1     -22.151  -7.916   1.063  1.00  0.00     0.005 C 
ENDBRANCH  10  11
ENDBRANCH   9  10
ENDBRANCH   8   9
ENDBRANCH   7   8
ENDBRANCH   6   7
ENDBRANCH   5   6
ENDBRANCH   4   5
ENDBRANCH   3   4
ENDBRANCH   2   3
ENDBRANCH   1   2
BRANCH   1  13
HETATM   13  C   UNL     1     -20.895  -3.403 -10.510  1.00  0.00     0.000 C 
BRANCH  13  14
HETATM   14  C   UNL     1     -21.463  -3.527 -11.918  1.00  0.00     0.002 C 
BRANCH  14  15
HETATM   15  C   UNL     1     -22.676  -2.626 -12.140  1.00  0.00     0.027 C 
BRANCH  15  16
HETATM   16  C   UNL     1     -23.887  -3.524 -12.448  1.00  0.00     0.180 C 
BRANCH  16  17
HETATM   17  O   UNL     1     -24.309  -4.226 -11.342  1.00  0.00    -0.297 OA
BRANCH  17  18
HETATM   18  P   UNL     1     -24.473  -3.711  -9.864  1.00  0.00     0.390 P 
HETATM   19  O   UNL     1     -25.777  -2.918  -9.863  1.00  0.00    -0.632 OA
BRANCH  18  20
HETATM   20  O   UNL     1     -24.893  -5.230  -9.548  1.00  0.00    -0.307 OA
HETATM   21  H   UNL     1     -25.201  -5.323  -8.648  1.00  0.00     0.222 HD
ENDBRANCH  18  20
BRANCH  18  22
HETATM   22  O   UNL     1     -24.121  -3.708  -8.324  1.00  0.00    -0.307 OA
HETATM   23  H   UNL     1     -23.421  -4.389  -8.318  1.00  0.00     0.222 HD
ENDBRANCH  18  22
ENDBRANCH  17  18
ENDBRANCH  16  17
ENDBRANCH  15  16
ENDBRANCH  14  15
ENDBRANCH  13  14
ENDBRANCH   1  13
TORSDOF 18
ENDMDL
MODEL 7
REMARK VINA RESULT:      -6.0      1.872      3.068
REMARK  18 active torsions:
REMARK  status: ('A' for Active; 'I' for Inactive)
REMARK    1  A    between atoms: C_2  and  C_3 
REMARK    2  A    between atoms: C_3  and  C_4 
REMARK    3  A    between atoms: C_4  and  C_5 
REMARK    4  A    between atoms: C_5  and  C_6 
REMARK    5  A    between atoms: C_6  and  C_7 
REMARK    6  A    between atoms: C_7  and  C_8 
REMARK    7  A    between atoms: C_8  and  C_9 
REMARK    8  A    between atoms: C_9  and  C_10 
REMARK    9  A    between atoms: C_10  and  C_11 
REMARK   10  A    between atoms: C_11  and  C_12 
REMARK   11  A    between atoms: C_12  and  C_13 
REMARK   12  A    between atoms: C_13  and  C_14 
REMARK   13  A    between atoms: C_14  and  C_15 
REMARK   14  A    between atoms: C_15  and  C_16 
REMARK   15  A    between atoms: C_16  and  O_17 
REMARK   16  A    between atoms: O_17  and  P_18 
REMARK   17  A    between atoms: P_18  and  O_20 
REMARK   18  A    between atoms: P_18  and  O_21 
ROOT
HETATM    1  C   UNL     1     -20.502  -4.487  -6.358  1.00  0.00     0.000 C 
ENDROOT
BRANCH   1   2
HETATM    2  C   UNL     1     -20.427  -5.665  -5.404  1.00  0.00     0.000 C 
BRANCH   2   3
HETATM    3  C   UNL     1     -21.819  -6.175  -5.076  1.00  0.00     0.000 C 
BRANCH   3   4
HETATM    4  C   UNL     1     -21.812  -6.913  -3.744  1.00  0.00     0.000 C 
BRANCH   4   5
HETATM    5  C   UNL     1     -21.468  -8.380  -3.949  1.00  0.00     0.000 C 
BRANCH   5   6
HETATM    6  C   UNL     1     -20.077  -8.676  -3.409  1.00  0.00     0.000 C 
BRANCH   6   7
HETATM    7  C   UNL     1     -20.159  -9.201  -1.980  1.00  0.00     0.000 C 
BRANCH   7   8
HETATM    8  C   UNL     1     -21.356 -10.126  -1.820  1.00  0.00     0.000 C 
BRANCH   8   9
HETATM    9  C   UNL     1     -21.781 -10.208  -0.358  1.00  0.00     0.000 C 
BRANCH   9  10
HETATM   10  C   UNL     1     -23.200  -9.677  -0.183  1.00  0.00    -0.000 C 
BRANCH  10  11
HETATM   11  C   UNL     1     -23.191  -8.288   0.447  1.00  0.00    -0.005 C 
HETATM   12  C   UNL     1     -21.847  -7.991   1.091  1.00  0.00     0.005 C 
ENDBRANCH  10  11
ENDBRANCH   9  10
ENDBRANCH   8   9
ENDBRANCH   7   8
ENDBRANCH   6   7
ENDBRANCH   5   6
ENDBRANCH   4   5
ENDBRANCH   3   4
ENDBRANCH   2   3
ENDBRANCH   1   2
BRANCH   1  13
HETATM   13  C   UNL     1     -20.842  -4.965  -7.767  1.00  0.00     0.000 C 
BRANCH  13  14
HETATM   14  C   UNL     1     -20.388  -3.933  -8.792  1.00  0.00     0.002 C 
BRANCH  14  15
HETATM   15  C   UNL     1     -20.679  -4.369 -10.226  1.00  0.00     0.027 C 
BRANCH  15  16
HETATM   16  C   UNL     1     -20.580  -3.128 -11.132  1.00  0.00     0.180 C 
BRANCH  16  17
HETATM   17  O   UNL     1     -21.772  -2.848 -11.761  1.00  0.00    -0.297 OA
BRANCH  17  18
HETATM   18  P   UNL     1     -23.035  -3.774 -11.915  1.00  0.00     0.390 P 
HETATM   19  O   UNL     1     -24.223  -2.890 -11.546  1.00  0.00    -0.632 OA
BRANCH  18  20
HETATM   20  O   UNL     1     -22.809  -3.555 -13.492  1.00  0.00    -0.307 OA
HETATM   21  H   UNL     1     -23.465  -2.964 -13.856  1.00  0.00     0.222 HD
ENDBRANCH  18  20
BRANCH  18  22
HETATM   22  O   UNL     1     -23.777  -5.077 -12.415  1.00  0.00    -0.307 OA
HETATM   23  H   UNL     1     -23.335  -5.191 -13.278  1.00  0.00     0.222 HD
ENDBRANCH  18  22
ENDBRANCH  17  18
ENDBRANCH  16  17
ENDBRANCH  15  16
ENDBRANCH  14  15
ENDBRANCH  13  14
ENDBRANCH   1  13
TORSDOF 18
ENDMDL
MODEL 8
REMARK VINA RESULT:      -6.0     12.007     13.969
REMARK  18 active torsions:
REMARK  status: ('A' for Active; 'I' for Inactive)
REMARK    1  A    between atoms: C_2  and  C_3 
REMARK    2  A    between atoms: C_3  and  C_4 
REMARK    3  A    between atoms: C_4  and  C_5 
REMARK    4  A    between atoms: C_5  and  C_6 
REMARK    5  A    between atoms: C_6  and  C_7 
REMARK    6  A    between atoms: C_7  and  C_8 
REMARK    7  A    between atoms: C_8  and  C_9 
REMARK    8  A    between atoms: C_9  and  C_10 
REMARK    9  A    between atoms: C_10  and  C_11 
REMARK   10  A    between atoms: C_11  and  C_12 
REMARK   11  A    between atoms: C_12  and  C_13 
REMARK   12  A    between atoms: C_13  and  C_14 
REMARK   13  A    between atoms: C_14  and  C_15 
REMARK   14  A    between atoms: C_15  and  C_16 
REMARK   15  A    between atoms: C_16  and  O_17 
REMARK   16  A    between atoms: O_17  and  P_18 
REMARK   17  A    between atoms: P_18  and  O_20 
REMARK   18  A    between atoms: P_18  and  O_21 
ROOT
HETATM    1  C   UNL     1     -34.512  -2.906 -16.343  1.00  0.00     0.000 C 
ENDROOT
BRANCH   1   2
HETATM    2  C   UNL     1     -35.116  -1.579 -16.761  1.00  0.00     0.000 C 
BRANCH   2   3
HETATM    3  C   UNL     1     -35.862  -0.943 -15.600  1.00  0.00     0.000 C 
BRANCH   3   4
HETATM    4  C   UNL     1     -35.414   0.500 -15.411  1.00  0.00     0.000 C 
BRANCH   4   5
HETATM    5  C   UNL     1     -34.882   0.712 -14.002  1.00  0.00     0.000 C 
BRANCH   5   6
HETATM    6  C   UNL     1     -35.539  -0.264 -13.038  1.00  0.00     0.000 C 
BRANCH   6   7
HETATM    7  C   UNL     1     -34.484  -1.088 -12.309  1.00  0.00     0.000 C 
BRANCH   7   8
HETATM    8  C   UNL     1     -35.125  -1.922 -11.210  1.00  0.00     0.000 C 
BRANCH   8   9
HETATM    9  C   UNL     1     -34.068  -2.723 -10.457  1.00  0.00     0.000 C 
BRANCH   9  10
HETATM   10  C   UNL     1     -33.042  -3.300 -11.427  1.00  0.00    -0.000 C 
BRANCH  10  11
HETATM   11  C   UNL     1     -33.192  -4.813 -11.546  1.00  0.00    -0.005 C 
HETATM   12  C   UNL     1     -34.107  -5.357 -10.463  1.00  0.00     0.005 C 
ENDBRANCH  10  11
ENDBRANCH   9  10
ENDBRANCH   8   9
ENDBRANCH   7   8
ENDBRANCH   6   7
ENDBRANCH   5   6
ENDBRANCH   4   5
ENDBRANCH   3   4
ENDBRANCH   2   3
ENDBRANCH   1   2
BRANCH   1  13
HETATM   13  C   UNL     1     -33.303  -3.238 -17.213  1.00  0.00     0.000 C 
BRANCH  13  14
HETATM   14  C   UNL     1     -32.626  -4.505 -16.707  1.00  0.00     0.002 C 
BRANCH  14  15
HETATM   15  C   UNL     1     -31.175  -4.617 -17.170  1.00  0.00     0.027 C 
BRANCH  15  16
HETATM   16  C   UNL     1     -30.668  -6.027 -16.816  1.00  0.00     0.180 C 
BRANCH  16  17
HETATM   17  O   UNL     1     -29.615  -5.992 -15.930  1.00  0.00    -0.297 OA
BRANCH  17  18
HETATM   18  P   UNL     1     -28.178  -6.609 -16.099  1.00  0.00     0.390 P 
HETATM   19  O   UNL     1     -28.013  -7.561 -14.917  1.00  0.00    -0.632 OA
BRANCH  18  20
HETATM   20  O   UNL     1     -28.861  -7.483 -17.263  1.00  0.00    -0.307 OA
HETATM   21  H   UNL     1     -29.254  -8.280 -16.911  1.00  0.00     0.222 HD
ENDBRANCH  18  20
BRANCH  18  22
HETATM   22  O   UNL     1     -26.865  -6.924 -16.920  1.00  0.00    -0.307 OA
HETATM   23  H   UNL     1     -27.245  -7.493 -17.617  1.00  0.00     0.222 HD
ENDBRANCH  18  22
ENDBRANCH  17  18
ENDBRANCH  16  17
ENDBRANCH  15  16
ENDBRANCH  14  15
ENDBRANCH  13  14
ENDBRANCH   1  13
TORSDOF 18
ENDMDL
MODEL 9
REMARK VINA RESULT:      -5.9     12.322     14.104
REMARK  18 active torsions:
REMARK  status: ('A' for Active; 'I' for Inactive)
REMARK    1  A    between atoms: C_2  and  C_3 
REMARK    2  A    between atoms: C_3  and  C_4 
REMARK    3  A    between atoms: C_4  and  C_5 
REMARK    4  A    between atoms: C_5  and  C_6 
REMARK    5  A    between atoms: C_6  and  C_7 
REMARK    6  A    between atoms: C_7  and  C_8 
REMARK    7  A    between atoms: C_8  and  C_9 
REMARK    8  A    between atoms: C_9  and  C_10 
REMARK    9  A    between atoms: C_10  and  C_11 
REMARK   10  A    between atoms: C_11  and  C_12 
REMARK   11  A    between atoms: C_12  and  C_13 
REMARK   12  A    between atoms: C_13  and  C_14 
REMARK   13  A    between atoms: C_14  and  C_15 
REMARK   14  A    between atoms: C_15  and  C_16 
REMARK   15  A    between atoms: C_16  and  O_17 
REMARK   16  A    between atoms: O_17  and  P_18 
REMARK   17  A    between atoms: P_18  and  O_20 
REMARK   18  A    between atoms: P_18  and  O_21 
ROOT
HETATM    1  C   UNL     1     -35.214  -1.366 -16.804  1.00  0.00     0.000 C 
ENDROOT
BRANCH   1   2
HETATM    2  C   UNL     1     -36.092  -0.696 -15.764  1.00  0.00     0.000 C 
BRANCH   2   3
HETATM    3  C   UNL     1     -35.537   0.668 -15.394  1.00  0.00     0.000 C 
BRANCH   3   4
HETATM    4  C   UNL     1     -34.963   0.641 -13.984  1.00  0.00     0.000 C 
BRANCH   4   5
HETATM    5  C   UNL     1     -35.698  -0.380 -13.129  1.00  0.00     0.000 C 
BRANCH   5   6
HETATM    6  C   UNL     1     -34.744  -1.011 -12.126  1.00  0.00     0.000 C 
BRANCH   6   7
HETATM    7  C   UNL     1     -34.535  -2.488 -12.442  1.00  0.00     0.000 C 
BRANCH   7   8
HETATM    8  C   UNL     1     -34.778  -3.337 -11.203  1.00  0.00     0.000 C 
BRANCH   8   9
HETATM    9  C   UNL     1     -33.528  -4.133 -10.844  1.00  0.00     0.000 C 
BRANCH   9  10
HETATM   10  C   UNL     1     -33.743  -5.618 -11.117  1.00  0.00    -0.000 C 
BRANCH  10  11
HETATM   11  C   UNL     1     -34.713  -6.226 -10.110  1.00  0.00    -0.005 C 
HETATM   12  C   UNL     1     -34.631  -7.743 -10.121  1.00  0.00     0.005 C 
ENDBRANCH  10  11
ENDBRANCH   9  10
ENDBRANCH   8   9
ENDBRANCH   7   8
ENDBRANCH   6   7
ENDBRANCH   5   6
ENDBRANCH   4   5
ENDBRANCH   3   4
ENDBRANCH   2   3
ENDBRANCH   1   2
BRANCH   1  13
HETATM   13  C   UNL     1     -34.718  -2.716 -16.293  1.00  0.00     0.000 C 
BRANCH  13  14
HETATM   14  C   UNL     1     -33.552  -3.201 -17.144  1.00  0.00     0.002 C 
BRANCH  14  15
HETATM   15  C   UNL     1     -32.857  -4.420 -16.541  1.00  0.00     0.027 C 
BRANCH  15  16
HETATM   16  C   UNL     1     -31.423  -4.476 -17.097  1.00  0.00     0.180 C 
BRANCH  16  17
HETATM   17  O   UNL     1     -30.746  -5.597 -16.674  1.00  0.00    -0.297 OA
BRANCH  17  18
HETATM   18  P   UNL     1     -29.839  -6.566 -17.521  1.00  0.00     0.390 P 
HETATM   19  O   UNL     1     -30.816  -7.466 -18.273  1.00  0.00    -0.632 OA
BRANCH  18  20
HETATM   20  O   UNL     1     -29.622  -5.283 -18.466  1.00  0.00    -0.307 OA
HETATM   21  H   UNL     1     -29.633  -5.529 -19.389  1.00  0.00     0.222 HD
ENDBRANCH  18  20
BRANCH  18  22
HETATM   22  O   UNL     1     -28.467  -7.011 -18.164  1.00  0.00    -0.307 OA
HETATM   23  H   UNL     1     -28.340  -6.277 -18.795  1.00  0.00     0.222 HD
ENDBRANCH  18  22
ENDBRANCH  17  18
ENDBRANCH  16  17
ENDBRANCH  15  16
ENDBRANCH  14  15
ENDBRANCH  13  14
ENDBRANCH   1  13
TORSDOF 18
ENDMDL
