MODEL 1
REMARK VINA RESULT:      -5.1      0.000      0.000
REMARK  7 active torsions:
REMARK  status: ('A' for Active; 'I' for Inactive)
REMARK    1  A    between atoms: C_1  and  C_2 
REMARK    2  A    between atoms: C_1  and  C_8 
REMARK    3  A    between atoms: C_2  and  CA_3 
REMARK    4  A    between atoms: CA_3  and  C_4 
REMARK    5  A    between atoms: CA_3  and  N_7 
REMARK    6  A    between atoms: C_4  and  OXT_6 
REMARK    7  A    between atoms: C_8  and  N_9 
ROOT
HETATM    1  CA  UNL     1     -22.874  -3.701 -12.173  1.00  0.00     0.314 C 
ENDROOT
BRANCH   1   2
HETATM    2  C   UNL     1     -21.984  -3.344 -10.976  1.00  0.00     0.048 C 
BRANCH   2   3
HETATM    3  C   UNL     1     -21.993  -4.373  -9.838  1.00  0.00     0.032 C 
BRANCH   3   4
HETATM    4  C   UNL     1     -22.493  -3.809  -8.508  1.00  0.00     0.267 C 
BRANCH   4   5
HETATM    5  N   UNL     1     -23.947  -3.869  -8.462  1.00  0.00     0.078 N 
HETATM    6  H   UNL     1     -24.349  -3.071  -8.950  1.00  0.00     0.312 HD
HETATM    7  H   UNL     1     -24.260  -3.804  -7.493  1.00  0.00     0.312 HD
ENDBRANCH   4   5
ENDBRANCH   3   4
ENDBRANCH   2   3
ENDBRANCH   1   2
BRANCH   1   8
HETATM    8  C   UNL     1     -24.258  -3.030 -12.118  1.00  0.00     0.173 C 
HETATM    9  O   UNL     1     -25.037  -3.152 -11.183  1.00  0.00    -0.648 OA
BRANCH   8  10
HETATM   10  OXT UNL     1     -24.573  -2.329 -13.232  1.00  0.00    -0.775 OA
HETATM   11  HXT UNL     1     -24.037  -2.574 -14.007  1.00  0.00     0.167 HD
ENDBRANCH   8  10
ENDBRANCH   1   8
BRANCH   1  12
HETATM   12  N   UNL     1     -22.185  -3.340 -13.431  1.00  0.00     0.093 N 
HETATM   13  H1  UNL     1     -21.332  -3.871 -13.573  1.00  0.00     0.314 HD
HETATM   14  H2  UNL     1     -21.902  -2.359 -13.376  1.00  0.00     0.314 HD
ENDBRANCH   1  12
TORSDOF 7
ENDMDL
MODEL 2
REMARK VINA RESULT:      -5.1      1.348      3.279
REMARK  7 active torsions:
REMARK  status: ('A' for Active; 'I' for Inactive)
REMARK    1  A    between atoms: C_1  and  C_2 
REMARK    2  A    between atoms: C_1  and  C_8 
REMARK    3  A    between atoms: C_2  and  CA_3 
REMARK    4  A    between atoms: CA_3  and  C_4 
REMARK    5  A    between atoms: CA_3  and  N_7 
REMARK    6  A    between atoms: C_4  and  OXT_6 
REMARK    7  A    between atoms: C_8  and  N_9 
ROOT
HETATM    1  CA  UNL     1     -23.479  -3.617  -9.374  1.00  0.00     0.314 C 
ENDROOT
BRANCH   1   2
HETATM    2  C   UNL     1     -22.534  -4.674  -9.960  1.00  0.00     0.048 C 
BRANCH   2   3
HETATM    3  C   UNL     1     -21.108  -4.179 -10.236  1.00  0.00     0.032 C 
BRANCH   3   4
HETATM    4  C   UNL     1     -21.017  -3.201 -11.406  1.00  0.00     0.267 C 
BRANCH   4   5
HETATM    5  N   UNL     1     -21.719  -3.744 -12.561  1.00  0.00     0.078 N 
HETATM    6  H   UNL     1     -21.591  -3.138 -13.369  1.00  0.00     0.312 HD
HETATM    7  H   UNL     1     -22.721  -3.767 -12.372  1.00  0.00     0.312 HD
ENDBRANCH   4   5
ENDBRANCH   3   4
ENDBRANCH   2   3
ENDBRANCH   1   2
BRANCH   1   8
HETATM    8  C   UNL     1     -24.664  -3.287 -10.298  1.00  0.00     0.173 C 
HETATM    9  O   UNL     1     -24.546  -3.006 -11.483  1.00  0.00    -0.648 OA
BRANCH   8  10
HETATM   10  OXT UNL     1     -25.864  -3.275  -9.671  1.00  0.00    -0.775 OA
HETATM   11  HXT UNL     1     -26.153  -2.383  -9.409  1.00  0.00     0.167 HD
ENDBRANCH   8  10
ENDBRANCH   1   8
BRANCH   1  12
HETATM   12  N   UNL     1     -23.974  -4.069  -8.055  1.00  0.00     0.093 N 
HETATM   13  H1  UNL     1     -24.557  -3.374  -7.600  1.00  0.00     0.314 HD
HETATM   14  H2  UNL     1     -23.170  -4.212  -7.439  1.00  0.00     0.314 HD
ENDBRANCH   1  12
TORSDOF 7
ENDMDL
MODEL 3
REMARK VINA RESULT:      -4.9      0.270      1.091
REMARK  7 active torsions:
REMARK  status: ('A' for Active; 'I' for Inactive)
REMARK    1  A    between atoms: C_1  and  C_2 
REMARK    2  A    between atoms: C_1  and  C_8 
REMARK    3  A    between atoms: C_2  and  CA_3 
REMARK    4  A    between atoms: CA_3  and  C_4 
REMARK    5  A    between atoms: CA_3  and  N_7 
REMARK    6  A    between atoms: C_4  and  OXT_6 
REMARK    7  A    between atoms: C_8  and  N_9 
ROOT
HETATM    1  CA  UNL     1     -22.927  -3.810 -11.981  1.00  0.00     0.314 C 
ENDROOT
BRANCH   1   2
HETATM    2  C   UNL     1     -22.183  -3.368 -10.714  1.00  0.00     0.048 C 
BRANCH   2   3
HETATM    3  C   UNL     1     -22.010  -4.463  -9.653  1.00  0.00     0.032 C 
BRANCH   3   4
HETATM    4  C   UNL     1     -22.537  -4.067  -8.275  1.00  0.00     0.267 C 
BRANCH   4   5
HETATM    5  N   UNL     1     -23.986  -3.921  -8.323  1.00  0.00     0.078 N 
HETATM    6  H   UNL     1     -24.433  -4.836  -8.296  1.00  0.00     0.312 HD
HETATM    7  H   UNL     1     -24.256  -3.493  -9.208  1.00  0.00     0.312 HD
ENDBRANCH   4   5
ENDBRANCH   3   4
ENDBRANCH   2   3
ENDBRANCH   1   2
BRANCH   1   8
HETATM    8  C   UNL     1     -24.320  -3.172 -12.117  1.00  0.00     0.173 C 
HETATM    9  O   UNL     1     -24.733  -2.652 -13.144  1.00  0.00    -0.648 OA
BRANCH   8  10
HETATM   10  OXT UNL     1     -25.043  -3.180 -10.972  1.00  0.00    -0.775 OA
HETATM   11  HXT UNL     1     -24.497  -3.284 -10.172  1.00  0.00     0.167 HD
ENDBRANCH   8  10
ENDBRANCH   1   8
BRANCH   1  12
HETATM   12  N   UNL     1     -22.107  -3.501 -13.172  1.00  0.00     0.093 N 
HETATM   13  H1  UNL     1     -22.560  -2.841 -13.796  1.00  0.00     0.314 HD
HETATM   14  H2  UNL     1     -21.983  -4.361 -13.713  1.00  0.00     0.314 HD
ENDBRANCH   1  12
TORSDOF 7
ENDMDL
MODEL 4
REMARK VINA RESULT:      -4.9      1.911      2.459
REMARK  7 active torsions:
REMARK  status: ('A' for Active; 'I' for Inactive)
REMARK    1  A    between atoms: C_1  and  C_2 
REMARK    2  A    between atoms: C_1  and  C_8 
REMARK    3  A    between atoms: C_2  and  CA_3 
REMARK    4  A    between atoms: CA_3  and  C_4 
REMARK    5  A    between atoms: CA_3  and  N_7 
REMARK    6  A    between atoms: C_4  and  OXT_6 
REMARK    7  A    between atoms: C_8  and  N_9 
ROOT
HETATM    1  CA  UNL     1     -23.282  -3.357 -13.312  1.00  0.00     0.314 C 
ENDROOT
BRANCH   1   2
HETATM    2  C   UNL     1     -24.076  -2.973 -12.056  1.00  0.00     0.048 C 
BRANCH   2   3
HETATM    3  C   UNL     1     -23.439  -3.414 -10.732  1.00  0.00     0.032 C 
BRANCH   3   4
HETATM    4  C   UNL     1     -24.371  -4.248  -9.853  1.00  0.00     0.267 C 
BRANCH   4   5
HETATM    5  N   UNL     1     -25.649  -3.566  -9.702  1.00  0.00     0.078 N 
HETATM    6  H   UNL     1     -26.166  -3.588 -10.579  1.00  0.00     0.312 HD
HETATM    7  H   UNL     1     -25.487  -2.582  -9.486  1.00  0.00     0.312 HD
ENDBRANCH   4   5
ENDBRANCH   3   4
ENDBRANCH   2   3
ENDBRANCH   1   2
BRANCH   1   8
HETATM    8  C   UNL     1     -23.398  -2.318 -14.441  1.00  0.00     0.173 C 
HETATM    9  O   UNL     1     -22.675  -2.301 -15.426  1.00  0.00    -0.648 OA
BRANCH   8  10
HETATM   10  OXT UNL     1     -24.345  -1.375 -14.224  1.00  0.00    -0.775 OA
HETATM   11  HXT UNL     1     -24.490  -1.184 -13.280  1.00  0.00     0.167 HD
ENDBRANCH   8  10
ENDBRANCH   1   8
BRANCH   1  12
HETATM   12  N   UNL     1     -21.861  -3.565 -12.957  1.00  0.00     0.093 N 
HETATM   13  H1  UNL     1     -21.731  -3.752 -11.968  1.00  0.00     0.314 HD
HETATM   14  H2  UNL     1     -21.348  -2.702 -13.152  1.00  0.00     0.314 HD
ENDBRANCH   1  12
TORSDOF 7
ENDMDL
MODEL 5
REMARK VINA RESULT:      -4.7     10.689     11.344
REMARK  7 active torsions:
REMARK  status: ('A' for Active; 'I' for Inactive)
REMARK    1  A    between atoms: C_1  and  C_2 
REMARK    2  A    between atoms: C_1  and  C_8 
REMARK    3  A    between atoms: C_2  and  CA_3 
REMARK    4  A    between atoms: CA_3  and  C_4 
REMARK    5  A    between atoms: CA_3  and  N_7 
REMARK    6  A    between atoms: C_4  and  OXT_6 
REMARK    7  A    between atoms: C_8  and  N_9 
ROOT
HETATM    1  CA  UNL     1     -33.583  -3.082 -11.437  1.00  0.00     0.314 C 
ENDROOT
BRANCH   1   2
HETATM    2  C   UNL     1     -33.976  -4.210 -10.473  1.00  0.00     0.048 C 
BRANCH   2   3
HETATM    3  C   UNL     1     -33.932  -5.618 -11.080  1.00  0.00     0.032 C 
BRANCH   3   4
HETATM    4  C   UNL     1     -34.623  -6.675 -10.220  1.00  0.00     0.267 C 
BRANCH   4   5
HETATM    5  N   UNL     1     -34.766  -7.911 -10.977  1.00  0.00     0.078 N 
HETATM    6  H   UNL     1     -34.045  -7.973 -11.693  1.00  0.00     0.312 HD
HETATM    7  H   UNL     1     -35.661  -7.910 -11.467  1.00  0.00     0.312 HD
ENDBRANCH   4   5
ENDBRANCH   3   4
ENDBRANCH   2   3
ENDBRANCH   1   2
BRANCH   1   8
HETATM    8  C   UNL     1     -34.644  -2.815 -12.519  1.00  0.00     0.173 C 
HETATM    9  O   UNL     1     -35.707  -2.249 -12.305  1.00  0.00    -0.648 OA
BRANCH   8  10
HETATM   10  OXT UNL     1     -34.327  -3.318 -13.735  1.00  0.00    -0.775 OA
HETATM   11  HXT UNL     1     -34.130  -4.272 -13.718  1.00  0.00     0.167 HD
ENDBRANCH   8  10
ENDBRANCH   1   8
BRANCH   1  12
HETATM   12  N   UNL     1     -33.316  -1.844 -10.671  1.00  0.00     0.093 N 
HETATM   13  H1  UNL     1     -32.907  -2.030  -9.761  1.00  0.00     0.314 HD
HETATM   14  H2  UNL     1     -34.207  -1.376 -10.491  1.00  0.00     0.314 HD
ENDBRANCH   1  12
TORSDOF 7
ENDMDL
MODEL 6
REMARK VINA RESULT:      -4.6      2.285      4.028
REMARK  7 active torsions:
REMARK  status: ('A' for Active; 'I' for Inactive)
REMARK    1  A    between atoms: C_1  and  C_2 
REMARK    2  A    between atoms: C_1  and  C_8 
REMARK    3  A    between atoms: C_2  and  CA_3 
REMARK    4  A    between atoms: CA_3  and  C_4 
REMARK    5  A    between atoms: CA_3  and  N_7 
REMARK    6  A    between atoms: C_4  and  OXT_6 
REMARK    7  A    between atoms: C_8  and  N_9 
ROOT
HETATM    1  CA  UNL     1     -23.389  -3.820 -10.720  1.00  0.00     0.314 C 
ENDROOT
BRANCH   1   2
HETATM    2  C   UNL     1     -23.214  -2.685 -11.737  1.00  0.00     0.048 C 
BRANCH   2   3
HETATM    3  C   UNL     1     -24.038  -2.840 -13.023  1.00  0.00     0.032 C 
BRANCH   3   4
HETATM    4  C   UNL     1     -23.437  -2.113 -14.225  1.00  0.00     0.267 C 
BRANCH   4   5
HETATM    5  N   UNL     1     -24.181  -0.887 -14.483  1.00  0.00     0.078 N 
HETATM    6  H   UNL     1     -25.129  -0.967 -14.121  1.00  0.00     0.312 HD
HETATM    7  H   UNL     1     -24.267  -0.746 -15.490  1.00  0.00     0.312 HD
ENDBRANCH   4   5
ENDBRANCH   3   4
ENDBRANCH   2   3
ENDBRANCH   1   2
BRANCH   1   8
HETATM    8  C   UNL     1     -24.491  -3.538  -9.684  1.00  0.00     0.173 C 
HETATM    9  O   UNL     1     -25.610  -3.139  -9.973  1.00  0.00    -0.648 OA
BRANCH   8  10
HETATM   10  OXT UNL     1     -24.097  -3.716  -8.401  1.00  0.00    -0.775 OA
HETATM   11  HXT UNL     1     -23.933  -2.880  -7.929  1.00  0.00     0.167 HD
ENDBRANCH   8  10
ENDBRANCH   1   8
BRANCH   1  12
HETATM   12  N   UNL     1     -23.672  -5.086 -11.432  1.00  0.00     0.093 N 
HETATM   13  H1  UNL     1     -24.058  -4.934 -12.358  1.00  0.00     0.314 HD
HETATM   14  H2  UNL     1     -24.384  -5.600 -10.908  1.00  0.00     0.314 HD
ENDBRANCH   1  12
TORSDOF 7
ENDMDL
MODEL 7
REMARK VINA RESULT:      -4.6     10.609     11.304
REMARK  7 active torsions:
REMARK  status: ('A' for Active; 'I' for Inactive)
REMARK    1  A    between atoms: C_1  and  C_2 
REMARK    2  A    between atoms: C_1  and  C_8 
REMARK    3  A    between atoms: C_2  and  CA_3 
REMARK    4  A    between atoms: CA_3  and  C_4 
REMARK    5  A    between atoms: CA_3  and  N_7 
REMARK    6  A    between atoms: C_4  and  OXT_6 
REMARK    7  A    between atoms: C_8  and  N_9 
ROOT
HETATM    1  CA  UNL     1     -33.399  -4.997 -11.227  1.00  0.00     0.314 C 
ENDROOT
BRANCH   1   2
HETATM    2  C   UNL     1     -33.846  -3.753 -10.449  1.00  0.00     0.048 C 
BRANCH   2   3
HETATM    3  C   UNL     1     -33.407  -2.417 -11.064  1.00  0.00     0.032 C 
BRANCH   3   4
HETATM    4  C   UNL     1     -34.542  -1.659 -11.750  1.00  0.00     0.267 C 
BRANCH   4   5
HETATM    5  N   UNL     1     -34.685  -2.121 -13.124  1.00  0.00     0.078 N 
HETATM    6  H   UNL     1     -33.773  -2.175 -13.575  1.00  0.00     0.312 HD
HETATM    7  H   UNL     1     -35.231  -1.444 -13.657  1.00  0.00     0.312 HD
ENDBRANCH   4   5
ENDBRANCH   3   4
ENDBRANCH   2   3
ENDBRANCH   1   2
BRANCH   1   8
HETATM    8  C   UNL     1     -34.556  -5.699 -11.959  1.00  0.00     0.173 C 
HETATM    9  O   UNL     1     -35.208  -5.181 -12.855  1.00  0.00    -0.648 OA
BRANCH   8  10
HETATM   10  OXT UNL     1     -34.837  -6.935 -11.485  1.00  0.00    -0.775 OA
HETATM   11  HXT UNL     1     -34.550  -7.651 -12.079  1.00  0.00     0.167 HD
ENDBRANCH   8  10
ENDBRANCH   1   8
BRANCH   1  12
HETATM   12  N   UNL     1     -32.339  -4.627 -12.190  1.00  0.00     0.093 N 
HETATM   13  H1  UNL     1     -32.376  -5.179 -13.040  1.00  0.00     0.314 HD
HETATM   14  H2  UNL     1     -31.430  -4.825 -11.763  1.00  0.00     0.314 HD
ENDBRANCH   1  12
TORSDOF 7
ENDMDL
MODEL 8
REMARK VINA RESULT:      -4.5     15.784     16.446
REMARK  7 active torsions:
REMARK  status: ('A' for Active; 'I' for Inactive)
REMARK    1  A    between atoms: C_1  and  C_2 
REMARK    2  A    between atoms: C_1  and  C_8 
REMARK    3  A    between atoms: C_2  and  CA_3 
REMARK    4  A    between atoms: CA_3  and  C_4 
REMARK    5  A    between atoms: CA_3  and  N_7 
REMARK    6  A    between atoms: C_4  and  OXT_6 
REMARK    7  A    between atoms: C_8  and  N_9 
ROOT
HETATM    1  CA  UNL     1     -30.062 -15.284 -21.538  1.00  0.00     0.314 C 
ENDROOT
BRANCH   1   2
HETATM    2  C   UNL     1     -30.112 -15.546 -20.027  1.00  0.00     0.048 C 
BRANCH   2   3
HETATM    3  C   UNL     1     -30.106 -14.283 -19.154  1.00  0.00     0.032 C 
BRANCH   3   4
HETATM    4  C   UNL     1     -29.725 -14.549 -17.699  1.00  0.00     0.267 C 
BRANCH   4   5
HETATM    5  N   UNL     1     -28.349 -15.022 -17.626  1.00  0.00     0.078 N 
HETATM    6  H   UNL     1     -27.823 -14.476 -16.947  1.00  0.00     0.312 HD
HETATM    7  H   UNL     1     -27.892 -14.882 -18.527  1.00  0.00     0.312 HD
ENDBRANCH   4   5
ENDBRANCH   3   4
ENDBRANCH   2   3
ENDBRANCH   1   2
BRANCH   1   8
HETATM    8  C   UNL     1     -31.443 -14.979 -22.144  1.00  0.00     0.173 C 
HETATM    9  O   UNL     1     -32.280 -15.835 -22.396  1.00  0.00    -0.648 OA
BRANCH   8  10
HETATM   10  OXT UNL     1     -31.639 -13.672 -22.434  1.00  0.00    -0.775 OA
HETATM   11  HXT UNL     1     -31.647 -13.099 -21.646  1.00  0.00     0.167 HD
ENDBRANCH   8  10
ENDBRANCH   1   8
BRANCH   1  12
HETATM   12  N   UNL     1     -29.127 -14.173 -21.819  1.00  0.00     0.093 N 
HETATM   13  H1  UNL     1     -28.738 -13.769 -20.974  1.00  0.00     0.314 HD
HETATM   14  H2  UNL     1     -29.646 -13.421 -22.280  1.00  0.00     0.314 HD
ENDBRANCH   1  12
TORSDOF 7
ENDMDL
MODEL 9
REMARK VINA RESULT:      -4.5      2.335      4.084
REMARK  7 active torsions:
REMARK  status: ('A' for Active; 'I' for Inactive)
REMARK    1  A    between atoms: C_1  and  C_2 
REMARK    2  A    between atoms: C_1  and  C_8 
REMARK    3  A    between atoms: C_2  and  CA_3 
REMARK    4  A    between atoms: CA_3  and  C_4 
REMARK    5  A    between atoms: CA_3  and  N_7 
REMARK    6  A    between atoms: C_4  and  OXT_6 
REMARK    7  A    between atoms: C_8  and  N_9 
ROOT
HETATM    1  CA  UNL     1     -24.118  -4.580  -9.848  1.00  0.00     0.314 C 
ENDROOT
BRANCH   1   2
HETATM    2  C   UNL     1     -23.753  -4.718 -11.332  1.00  0.00     0.048 C 
BRANCH   2   3
HETATM    3  C   UNL     1     -24.069  -3.485 -12.189  1.00  0.00     0.032 C 
BRANCH   3   4
HETATM    4  C   UNL     1     -22.825  -2.793 -12.744  1.00  0.00     0.267 C 
BRANCH   4   5
HETATM    5  N   UNL     1     -21.670  -3.670 -12.611  1.00  0.00     0.078 N 
HETATM    6  H   UNL     1     -21.119  -3.407 -11.796  1.00  0.00     0.312 HD
HETATM    7  H   UNL     1     -21.061  -3.558 -13.421  1.00  0.00     0.312 HD
ENDBRANCH   4   5
ENDBRANCH   3   4
ENDBRANCH   2   3
ENDBRANCH   1   2
BRANCH   1   8
HETATM    8  C   UNL     1     -22.966  -4.028  -8.991  1.00  0.00     0.173 C 
HETATM    9  O   UNL     1     -21.879  -3.697  -9.444  1.00  0.00    -0.648 OA
BRANCH   8  10
HETATM   10  OXT UNL     1     -23.236  -3.990  -7.665  1.00  0.00    -0.775 OA
HETATM   11  HXT UNL     1     -24.020  -3.455  -7.446  1.00  0.00     0.167 HD
ENDBRANCH   8  10
ENDBRANCH   1   8
BRANCH   1  12
HETATM   12  N   UNL     1     -25.314  -3.720  -9.708  1.00  0.00     0.093 N 
HETATM   13  H1  UNL     1     -25.584  -3.284 -10.583  1.00  0.00     0.314 HD
HETATM   14  H2  UNL     1     -25.089  -2.955  -9.067  1.00  0.00     0.314 HD
ENDBRANCH   1  12
TORSDOF 7
ENDMDL
