MODEL 1
REMARK VINA RESULT:      -4.6      0.000      0.000
REMARK  7 active torsions:
REMARK  status: ('A' for Active; 'I' for Inactive)
REMARK    1  A    between atoms: C_2  and  O_3 
REMARK    2  A    between atoms: O_3  and  C_4 
REMARK    3  A    between atoms: C_4  and  C_5 
REMARK    4  A    between atoms: C_5  and  O_6 
REMARK    5  A    between atoms: O_6  and  C_7 
REMARK    6  A    between atoms: C_7  and  C_8 
REMARK    7  A    between atoms: C_8  and  O_9 
ROOT
HETATM    1  C   UNL     1     -24.243  -3.290 -12.219  1.00  0.00     0.193 C 
ENDROOT
BRANCH   1   2
HETATM    2  C   UNL     1     -22.736  -3.246 -11.981  1.00  0.00     0.193 C 
BRANCH   2   3
HETATM    3  O   UNL     1     -22.474  -3.152 -10.578  1.00  0.00    -0.389 OA
BRANCH   3   4
HETATM    4  C   UNL     1     -21.648  -4.221 -10.121  1.00  0.00     0.163 C 
HETATM    5  C   UNL     1     -20.371  -4.221 -10.937  1.00  0.00     0.033 C 
ENDBRANCH   3   4
ENDBRANCH   2   3
ENDBRANCH   1   2
BRANCH   1   6
HETATM    6  O   UNL     1     -24.583  -2.488 -13.360  1.00  0.00    -0.387 OA
BRANCH   6   7
HETATM    7  C   UNL     1     -23.451  -2.288 -14.213  1.00  0.00     0.193 C 
BRANCH   7   8
HETATM    8  C   UNL     1     -23.700  -1.057 -15.078  1.00  0.00     0.190 C 
BRANCH   8   9
HETATM    9  O   UNL     1     -24.942  -0.453 -14.722  1.00  0.00    -0.399 OA
HETATM   10  H   UNL     1     -24.696   0.358 -14.237  1.00  0.00     0.209 HD
ENDBRANCH   8   9
ENDBRANCH   7   8
ENDBRANCH   6   7
ENDBRANCH   1   6
TORSDOF 7
ENDMDL
MODEL 2
REMARK VINA RESULT:      -4.3      1.740      2.051
REMARK  7 active torsions:
REMARK  status: ('A' for Active; 'I' for Inactive)
REMARK    1  A    between atoms: C_2  and  O_3 
REMARK    2  A    between atoms: O_3  and  C_4 
REMARK    3  A    between atoms: C_4  and  C_5 
REMARK    4  A    between atoms: C_5  and  O_6 
REMARK    5  A    between atoms: O_6  and  C_7 
REMARK    6  A    between atoms: C_7  and  C_8 
REMARK    7  A    between atoms: C_8  and  O_9 
ROOT
HETATM    1  C   UNL     1     -24.346  -3.410 -10.401  1.00  0.00     0.193 C 
ENDROOT
BRANCH   1   2
HETATM    2  C   UNL     1     -23.841  -4.850 -10.391  1.00  0.00     0.193 C 
BRANCH   2   3
HETATM    3  O   UNL     1     -22.608  -4.921  -9.668  1.00  0.00    -0.389 OA
BRANCH   3   4
HETATM    4  C   UNL     1     -21.769  -3.802  -9.946  1.00  0.00     0.163 C 
HETATM    5  C   UNL     1     -20.716  -4.230 -10.948  1.00  0.00     0.033 C 
ENDBRANCH   3   4
ENDBRANCH   2   3
ENDBRANCH   1   2
BRANCH   1   6
HETATM    6  O   UNL     1     -24.860  -3.079 -11.701  1.00  0.00    -0.387 OA
BRANCH   6   7
HETATM    7  C   UNL     1     -24.163  -3.787 -12.732  1.00  0.00     0.193 C 
BRANCH   7   8
HETATM    8  C   UNL     1     -23.437  -2.778 -13.615  1.00  0.00     0.190 C 
BRANCH   8   9
HETATM    9  O   UNL     1     -23.340  -3.276 -14.948  1.00  0.00    -0.399 OA
HETATM   10  H   UNL     1     -23.958  -2.725 -15.466  1.00  0.00     0.209 HD
ENDBRANCH   8   9
ENDBRANCH   7   8
ENDBRANCH   6   7
ENDBRANCH   1   6
TORSDOF 7
ENDMDL
MODEL 3
REMARK VINA RESULT:      -4.1      1.482      2.131
REMARK  7 active torsions:
REMARK  status: ('A' for Active; 'I' for Inactive)
REMARK    1  A    between atoms: C_2  and  O_3 
REMARK    2  A    between atoms: O_3  and  C_4 
REMARK    3  A    between atoms: C_4  and  C_5 
REMARK    4  A    between atoms: C_5  and  O_6 
REMARK    5  A    between atoms: O_6  and  C_7 
REMARK    6  A    between atoms: C_7  and  C_8 
REMARK    7  A    between atoms: C_8  and  O_9 
ROOT
HETATM    1  C   UNL     1     -24.284  -3.761  -9.670  1.00  0.00     0.193 C 
ENDROOT
BRANCH   1   2
HETATM    2  C   UNL     1     -22.994  -4.553  -9.875  1.00  0.00     0.193 C 
BRANCH   2   3
HETATM    3  O   UNL     1     -21.932  -3.937  -9.142  1.00  0.00    -0.389 OA
BRANCH   3   4
HETATM    4  C   UNL     1     -20.652  -4.342  -9.625  1.00  0.00     0.163 C 
HETATM    5  C   UNL     1     -20.556  -3.974 -11.092  1.00  0.00     0.033 C 
ENDBRANCH   3   4
ENDBRANCH   2   3
ENDBRANCH   1   2
BRANCH   1   6
HETATM    6  O   UNL     1     -24.543  -2.941 -10.820  1.00  0.00    -0.387 OA
BRANCH   6   7
HETATM    7  C   UNL     1     -24.091  -3.572 -12.023  1.00  0.00     0.193 C 
BRANCH   7   8
HETATM    8  C   UNL     1     -23.467  -2.514 -12.926  1.00  0.00     0.190 C 
BRANCH   8   9
HETATM    9  O   UNL     1     -24.479  -1.881 -13.708  1.00  0.00    -0.399 OA
HETATM   10  H   UNL     1     -24.438  -2.326 -14.577  1.00  0.00     0.209 HD
ENDBRANCH   8   9
ENDBRANCH   7   8
ENDBRANCH   6   7
ENDBRANCH   1   6
TORSDOF 7
ENDMDL
MODEL 4
REMARK VINA RESULT:      -4.0      2.749      3.680
REMARK  7 active torsions:
REMARK  status: ('A' for Active; 'I' for Inactive)
REMARK    1  A    between atoms: C_2  and  O_3 
REMARK    2  A    between atoms: O_3  and  C_4 
REMARK    3  A    between atoms: C_4  and  C_5 
REMARK    4  A    between atoms: C_5  and  O_6 
REMARK    5  A    between atoms: O_6  and  C_7 
REMARK    6  A    between atoms: C_7  and  C_8 
REMARK    7  A    between atoms: C_8  and  O_9 
ROOT
HETATM    1  C   UNL     1     -21.995  -4.328 -11.606  1.00  0.00     0.193 C 
ENDROOT
BRANCH   1   2
HETATM    2  C   UNL     1     -20.669  -4.507 -10.871  1.00  0.00     0.193 C 
BRANCH   2   3
HETATM    3  O   UNL     1     -20.630  -3.638  -9.735  1.00  0.00    -0.389 OA
BRANCH   3   4
HETATM    4  C   UNL     1     -20.483  -4.366  -8.518  1.00  0.00     0.163 C 
HETATM    5  C   UNL     1     -21.463  -3.807  -7.505  1.00  0.00     0.033 C 
ENDBRANCH   3   4
ENDBRANCH   2   3
ENDBRANCH   1   2
BRANCH   1   6
HETATM    6  O   UNL     1     -22.615  -3.096 -11.208  1.00  0.00    -0.387 OA
BRANCH   6   7
HETATM    7  C   UNL     1     -24.043  -3.195 -11.245  1.00  0.00     0.193 C 
BRANCH   7   8
HETATM    8  C   UNL     1     -24.544  -3.576  -9.857  1.00  0.00     0.190 C 
BRANCH   8   9
HETATM    9  O   UNL     1     -25.919  -3.225  -9.720  1.00  0.00    -0.399 OA
HETATM   10  H   UNL     1     -26.283  -3.281 -10.624  1.00  0.00     0.209 HD
ENDBRANCH   8   9
ENDBRANCH   7   8
ENDBRANCH   6   7
ENDBRANCH   1   6
TORSDOF 7
ENDMDL
MODEL 5
REMARK VINA RESULT:      -4.0      1.766      2.547
REMARK  7 active torsions:
REMARK  status: ('A' for Active; 'I' for Inactive)
REMARK    1  A    between atoms: C_2  and  O_3 
REMARK    2  A    between atoms: O_3  and  C_4 
REMARK    3  A    between atoms: C_4  and  C_5 
REMARK    4  A    between atoms: C_5  and  O_6 
REMARK    5  A    between atoms: O_6  and  C_7 
REMARK    6  A    between atoms: C_7  and  C_8 
REMARK    7  A    between atoms: C_8  and  O_9 
ROOT
HETATM    1  C   UNL     1     -21.694  -3.679 -11.966  1.00  0.00     0.193 C 
ENDROOT
BRANCH   1   2
HETATM    2  C   UNL     1     -20.874  -3.767 -10.682  1.00  0.00     0.193 C 
BRANCH   2   3
HETATM    3  O   UNL     1     -21.541  -4.617  -9.744  1.00  0.00    -0.389 OA
BRANCH   3   4
HETATM    4  C   UNL     1     -22.172  -3.868  -8.708  1.00  0.00     0.163 C 
HETATM    5  C   UNL     1     -23.673  -4.009  -8.862  1.00  0.00     0.033 C 
ENDBRANCH   3   4
ENDBRANCH   2   3
ENDBRANCH   1   2
BRANCH   1   6
HETATM    6  O   UNL     1     -22.516  -2.501 -11.944  1.00  0.00    -0.387 OA
BRANCH   6   7
HETATM    7  C   UNL     1     -23.639  -2.633 -12.823  1.00  0.00     0.193 C 
BRANCH   7   8
HETATM    8  C   UNL     1     -23.129  -2.743 -14.256  1.00  0.00     0.190 C 
BRANCH   8   9
HETATM    9  O   UNL     1     -23.785  -3.816 -14.927  1.00  0.00    -0.399 OA
HETATM   10  H   UNL     1     -24.488  -3.390 -15.454  1.00  0.00     0.209 HD
ENDBRANCH   8   9
ENDBRANCH   7   8
ENDBRANCH   6   7
ENDBRANCH   1   6
TORSDOF 7
ENDMDL
MODEL 6
REMARK VINA RESULT:      -3.8      2.429      3.056
REMARK  7 active torsions:
REMARK  status: ('A' for Active; 'I' for Inactive)
REMARK    1  A    between atoms: C_2  and  O_3 
REMARK    2  A    between atoms: O_3  and  C_4 
REMARK    3  A    between atoms: C_4  and  C_5 
REMARK    4  A    between atoms: C_5  and  O_6 
REMARK    5  A    between atoms: O_6  and  C_7 
REMARK    6  A    between atoms: C_7  and  C_8 
REMARK    7  A    between atoms: C_8  and  O_9 
ROOT
HETATM    1  C   UNL     1     -23.083  -3.974 -10.163  1.00  0.00     0.193 C 
ENDROOT
BRANCH   1   2
HETATM    2  C   UNL     1     -23.206  -3.954  -8.641  1.00  0.00     0.193 C 
BRANCH   2   3
HETATM    3  O   UNL     1     -22.136  -4.708  -8.064  1.00  0.00    -0.389 OA
BRANCH   3   4
HETATM    4  C   UNL     1     -21.173  -3.863  -7.436  1.00  0.00     0.163 C 
HETATM    5  C   UNL     1     -19.857  -4.007  -8.174  1.00  0.00     0.033 C 
ENDBRANCH   3   4
ENDBRANCH   2   3
ENDBRANCH   1   2
BRANCH   1   6
HETATM    6  O   UNL     1     -24.300  -3.499 -10.760  1.00  0.00    -0.387 OA
BRANCH   6   7
HETATM    7  C   UNL     1     -24.100  -3.136 -12.130  1.00  0.00     0.193 C 
BRANCH   7   8
HETATM    8  C   UNL     1     -22.619  -2.850 -12.350  1.00  0.00     0.190 C 
BRANCH   8   9
HETATM    9  O   UNL     1     -22.223  -3.293 -13.647  1.00  0.00    -0.399 OA
HETATM   10  H   UNL     1     -21.911  -2.487 -14.102  1.00  0.00     0.209 HD
ENDBRANCH   8   9
ENDBRANCH   7   8
ENDBRANCH   6   7
ENDBRANCH   1   6
TORSDOF 7
ENDMDL
MODEL 7
REMARK VINA RESULT:      -3.8      1.980      5.018
REMARK  7 active torsions:
REMARK  status: ('A' for Active; 'I' for Inactive)
REMARK    1  A    between atoms: C_2  and  O_3 
REMARK    2  A    between atoms: O_3  and  C_4 
REMARK    3  A    between atoms: C_4  and  C_5 
REMARK    4  A    between atoms: C_5  and  O_6 
REMARK    5  A    between atoms: O_6  and  C_7 
REMARK    6  A    between atoms: C_7  and  C_8 
REMARK    7  A    between atoms: C_8  and  O_9 
ROOT
HETATM    1  C   UNL     1     -21.319  -4.284 -11.217  1.00  0.00     0.193 C 
ENDROOT
BRANCH   1   2
HETATM    2  C   UNL     1     -21.913  -2.957 -11.678  1.00  0.00     0.193 C 
BRANCH   2   3
HETATM    3  O   UNL     1     -23.291  -2.890 -11.298  1.00  0.00    -0.389 OA
BRANCH   3   4
HETATM    4  C   UNL     1     -24.157  -3.106 -12.411  1.00  0.00     0.163 C 
HETATM    5  C   UNL     1     -23.572  -2.399 -13.617  1.00  0.00     0.033 C 
ENDBRANCH   3   4
ENDBRANCH   2   3
ENDBRANCH   1   2
BRANCH   1   6
HETATM    6  O   UNL     1     -20.663  -4.115  -9.950  1.00  0.00    -0.387 OA
BRANCH   6   7
HETATM    7  C   UNL     1     -21.367  -4.795  -8.904  1.00  0.00     0.193 C 
BRANCH   7   8
HETATM    8  C   UNL     1     -22.016  -3.756  -7.996  1.00  0.00     0.190 C 
BRANCH   8   9
HETATM    9  O   UNL     1     -23.360  -3.517  -8.410  1.00  0.00    -0.399 OA
HETATM   10  H   UNL     1     -23.652  -2.750  -7.881  1.00  0.00     0.209 HD
ENDBRANCH   8   9
ENDBRANCH   7   8
ENDBRANCH   6   7
ENDBRANCH   1   6
TORSDOF 7
ENDMDL
MODEL 8
REMARK VINA RESULT:      -3.6      3.502      4.963
REMARK  7 active torsions:
REMARK  status: ('A' for Active; 'I' for Inactive)
REMARK    1  A    between atoms: C_2  and  O_3 
REMARK    2  A    between atoms: O_3  and  C_4 
REMARK    3  A    between atoms: C_4  and  C_5 
REMARK    4  A    between atoms: C_5  and  O_6 
REMARK    5  A    between atoms: O_6  and  C_7 
REMARK    6  A    between atoms: C_7  and  C_8 
REMARK    7  A    between atoms: C_8  and  O_9 
ROOT
HETATM    1  C   UNL     1     -21.920  -4.456  -8.475  1.00  0.00     0.193 C 
ENDROOT
BRANCH   1   2
HETATM    2  C   UNL     1     -20.456  -4.890  -8.497  1.00  0.00     0.193 C 
BRANCH   2   3
HETATM    3  O   UNL     1     -20.170  -5.672  -7.334  1.00  0.00    -0.389 OA
BRANCH   3   4
HETATM    4  C   UNL     1     -20.105  -4.866  -6.159  1.00  0.00     0.163 C 
HETATM    5  C   UNL     1     -20.845  -5.581  -5.046  1.00  0.00     0.033 C 
ENDBRANCH   3   4
ENDBRANCH   2   3
ENDBRANCH   1   2
BRANCH   1   6
HETATM    6  O   UNL     1     -22.359  -4.141  -9.806  1.00  0.00    -0.387 OA
BRANCH   6   7
HETATM    7  C   UNL     1     -23.700  -4.587 -10.031  1.00  0.00     0.193 C 
BRANCH   7   8
HETATM    8  C   UNL     1     -24.530  -3.410 -10.531  1.00  0.00     0.190 C 
BRANCH   8   9
HETATM    9  O   UNL     1     -25.707  -3.270  -9.737  1.00  0.00    -0.399 OA
HETATM   10  H   UNL     1     -26.310  -3.969 -10.057  1.00  0.00     0.209 HD
ENDBRANCH   8   9
ENDBRANCH   7   8
ENDBRANCH   6   7
ENDBRANCH   1   6
TORSDOF 7
ENDMDL
MODEL 9
REMARK VINA RESULT:      -3.6      2.405      5.625
REMARK  7 active torsions:
REMARK  status: ('A' for Active; 'I' for Inactive)
REMARK    1  A    between atoms: C_2  and  O_3 
REMARK    2  A    between atoms: O_3  and  C_4 
REMARK    3  A    between atoms: C_4  and  C_5 
REMARK    4  A    between atoms: C_5  and  O_6 
REMARK    5  A    between atoms: O_6  and  C_7 
REMARK    6  A    between atoms: C_7  and  C_8 
REMARK    7  A    between atoms: C_8  and  O_9 
ROOT
HETATM    1  C   UNL     1     -24.389  -3.977  -9.241  1.00  0.00     0.193 C 
ENDROOT
BRANCH   1   2
HETATM    2  C   UNL     1     -23.796  -3.398 -10.523  1.00  0.00     0.193 C 
BRANCH   2   3
HETATM    3  O   UNL     1     -24.845  -3.136 -11.460  1.00  0.00    -0.389 OA
BRANCH   3   4
HETATM    4  C   UNL     1     -24.334  -2.878 -12.767  1.00  0.00     0.163 C 
HETATM    5  C   UNL     1     -22.824  -3.006 -12.724  1.00  0.00     0.033 C 
ENDBRANCH   3   4
ENDBRANCH   2   3
ENDBRANCH   1   2
BRANCH   1   6
HETATM    6  O   UNL     1     -23.350  -4.188  -8.272  1.00  0.00    -0.387 OA
BRANCH   6   7
HETATM    7  C   UNL     1     -22.151  -4.670  -8.889  1.00  0.00     0.193 C 
BRANCH   7   8
HETATM    8  C   UNL     1     -21.044  -4.712  -7.842  1.00  0.00     0.190 C 
BRANCH   8   9
HETATM    9  O   UNL     1     -20.612  -6.056  -7.642  1.00  0.00    -0.399 OA
HETATM   10  H   UNL     1     -19.637  -6.003  -7.609  1.00  0.00     0.209 HD
ENDBRANCH   8   9
ENDBRANCH   7   8
ENDBRANCH   6   7
ENDBRANCH   1   6
TORSDOF 7
ENDMDL
