MODEL 1
REMARK VINA RESULT:      -6.6      0.000      0.000
REMARK  4 active torsions:
REMARK  status: ('A' for Active; 'I' for Inactive)
REMARK    1  A    between atoms: C_4  and  C_7 
REMARK    2  A    between atoms: C_7  and  C_8 
REMARK    3  A    between atoms: C_7  and  O_11 
REMARK    4  A    between atoms: C_8  and  O_10 
ROOT
HETATM    1  C   UNL     1     -23.556  -2.315 -13.236  1.00  0.00     0.248 C 
ENDROOT
BRANCH   1   2
HETATM    2  C   UNL     1     -22.979  -3.043 -12.034  1.00  0.00    -0.019 A 
HETATM    3  C   UNL     1     -21.614  -3.380 -11.983  1.00  0.00     0.010 A 
HETATM    4  C   UNL     1     -21.065  -3.984 -10.848  1.00  0.00     0.001 A 
HETATM    5  C   UNL     1     -21.867  -4.259  -9.744  1.00  0.00     0.000 A 
HETATM    6  C   UNL     1     -23.224  -3.953  -9.782  1.00  0.00     0.001 A 
HETATM    7  C   UNL     1     -23.774  -3.356 -10.918  1.00  0.00     0.010 A 
ENDBRANCH   1   2
BRANCH   1   8
HETATM    8  C   UNL     1     -23.239  -2.996 -14.575  1.00  0.00     0.174 C 
HETATM    9  O   UNL     1     -22.407  -2.563 -15.363  1.00  0.00    -0.648 OA
BRANCH   8  10
HETATM   10  O   UNL     1     -23.920  -4.143 -14.808  1.00  0.00    -0.774 OA
HETATM   11  H   UNL     1     -23.844  -4.479 -15.721  1.00  0.00     0.167 HD
ENDBRANCH   8  10
ENDBRANCH   1   8
BRANCH   1  12
HETATM   12  O   UNL     1     -24.977  -2.176 -13.121  1.00  0.00    -0.380 OA
HETATM   13  H   UNL     1     -25.326  -3.089 -13.067  1.00  0.00     0.211 HD
ENDBRANCH   1  12
TORSDOF 4
ENDMDL
MODEL 2
REMARK VINA RESULT:      -6.3      2.336      3.665
REMARK  4 active torsions:
REMARK  status: ('A' for Active; 'I' for Inactive)
REMARK    1  A    between atoms: C_4  and  C_7 
REMARK    2  A    between atoms: C_7  and  C_8 
REMARK    3  A    between atoms: C_7  and  O_11 
REMARK    4  A    between atoms: C_8  and  O_10 
ROOT
HETATM    1  C   UNL     1     -23.495  -4.560 -10.722  1.00  0.00     0.248 C 
ENDROOT
BRANCH   1   2
HETATM    2  C   UNL     1     -22.412  -4.306  -9.687  1.00  0.00    -0.019 A 
HETATM    3  C   UNL     1     -22.740  -4.127  -8.331  1.00  0.00     0.010 A 
HETATM    4  C   UNL     1     -21.740  -3.967  -7.366  1.00  0.00     0.001 A 
HETATM    5  C   UNL     1     -20.399  -3.987  -7.737  1.00  0.00     0.000 A 
HETATM    6  C   UNL     1     -20.054  -4.141  -9.075  1.00  0.00     0.001 A 
HETATM    7  C   UNL     1     -21.051  -4.294 -10.041  1.00  0.00     0.010 A 
ENDBRANCH   1   2
BRANCH   1   8
HETATM    8  C   UNL     1     -24.450  -3.372 -10.913  1.00  0.00     0.174 C 
HETATM    9  O   UNL     1     -25.452  -3.206 -10.230  1.00  0.00    -0.648 OA
BRANCH   8  10
HETATM   10  O   UNL     1     -24.079  -2.490 -11.872  1.00  0.00    -0.774 OA
HETATM   11  H   UNL     1     -24.546  -1.635 -11.836  1.00  0.00     0.167 HD
ENDBRANCH   8  10
ENDBRANCH   1   8
BRANCH   1  12
HETATM   12  O   UNL     1     -22.925  -4.895 -11.992  1.00  0.00    -0.380 OA
HETATM   13  H   UNL     1     -22.068  -5.322 -11.791  1.00  0.00     0.211 HD
ENDBRANCH   1  12
TORSDOF 4
ENDMDL
MODEL 3
REMARK VINA RESULT:      -6.3      1.285      2.080
REMARK  4 active torsions:
REMARK  status: ('A' for Active; 'I' for Inactive)
REMARK    1  A    between atoms: C_4  and  C_7 
REMARK    2  A    between atoms: C_7  and  C_8 
REMARK    3  A    between atoms: C_7  and  O_11 
REMARK    4  A    between atoms: C_8  and  O_10 
ROOT
HETATM    1  C   UNL     1     -23.795  -2.887 -11.738  1.00  0.00     0.248 C 
ENDROOT
BRANCH   1   2
HETATM    2  C   UNL     1     -22.597  -3.416 -10.970  1.00  0.00    -0.019 A 
HETATM    3  C   UNL     1     -22.722  -3.816  -9.627  1.00  0.00     0.010 A 
HETATM    4  C   UNL     1     -21.639  -4.373  -8.939  1.00  0.00     0.001 A 
HETATM    5  C   UNL     1     -20.415  -4.543  -9.580  1.00  0.00     0.000 A 
HETATM    6  C   UNL     1     -20.264  -4.134 -10.901  1.00  0.00     0.001 A 
HETATM    7  C   UNL     1     -21.343  -3.572 -11.587  1.00  0.00     0.010 A 
ENDBRANCH   1   2
BRANCH   1   8
HETATM    8  C   UNL     1     -23.876  -3.406 -13.181  1.00  0.00     0.174 C 
HETATM    9  O   UNL     1     -23.765  -2.678 -14.159  1.00  0.00    -0.648 OA
BRANCH   8  10
HETATM   10  O   UNL     1     -24.038  -4.746 -13.297  1.00  0.00    -0.774 OA
HETATM   11  H   UNL     1     -24.810  -5.014 -13.830  1.00  0.00     0.167 HD
ENDBRANCH   8  10
ENDBRANCH   1   8
BRANCH   1  12
HETATM   12  O   UNL     1     -25.020  -3.210 -11.069  1.00  0.00    -0.380 OA
HETATM   13  H   UNL     1     -25.297  -2.388 -10.617  1.00  0.00     0.211 HD
ENDBRANCH   1  12
TORSDOF 4
ENDMDL
MODEL 4
REMARK VINA RESULT:      -6.1     11.059     12.261
REMARK  4 active torsions:
REMARK  status: ('A' for Active; 'I' for Inactive)
REMARK    1  A    between atoms: C_4  and  C_7 
REMARK    2  A    between atoms: C_7  and  C_8 
REMARK    3  A    between atoms: C_7  and  O_11 
REMARK    4  A    between atoms: C_8  and  O_10 
ROOT
HETATM    1  C   UNL     1     -35.686  -1.593 -10.992  1.00  0.00     0.248 C 
ENDROOT
BRANCH   1   2
HETATM    2  C   UNL     1     -34.878  -2.869 -11.147  1.00  0.00    -0.019 A 
HETATM    3  C   UNL     1     -33.533  -2.824 -11.559  1.00  0.00     0.010 A 
HETATM    4  C   UNL     1     -32.765  -3.990 -11.632  1.00  0.00     0.001 A 
HETATM    5  C   UNL     1     -33.323  -5.219 -11.290  1.00  0.00     0.000 A 
HETATM    6  C   UNL     1     -34.656  -5.288 -10.900  1.00  0.00     0.001 A 
HETATM    7  C   UNL     1     -35.426  -4.125 -10.834  1.00  0.00     0.010 A 
ENDBRANCH   1   2
BRANCH   1   8
HETATM    8  C   UNL     1     -35.767  -0.758 -12.279  1.00  0.00     0.174 C 
HETATM    9  O   UNL     1     -36.470  -1.069 -13.232  1.00  0.00    -0.648 OA
BRANCH   8  10
HETATM   10  O   UNL     1     -35.030   0.379 -12.269  1.00  0.00    -0.774 OA
HETATM   11  H   UNL     1     -34.784   0.708 -13.154  1.00  0.00     0.167 HD
ENDBRANCH   8  10
ENDBRANCH   1   8
BRANCH   1  12
HETATM   12  O   UNL     1     -37.019  -1.878 -10.550  1.00  0.00    -0.380 OA
HETATM   13  H   UNL     1     -37.049  -1.603  -9.611  1.00  0.00     0.211 HD
ENDBRANCH   1  12
TORSDOF 4
ENDMDL
MODEL 5
REMARK VINA RESULT:      -6.0     11.177     12.557
REMARK  4 active torsions:
REMARK  status: ('A' for Active; 'I' for Inactive)
REMARK    1  A    between atoms: C_4  and  C_7 
REMARK    2  A    between atoms: C_7  and  C_8 
REMARK    3  A    between atoms: C_7  and  O_11 
REMARK    4  A    between atoms: C_8  and  O_10 
ROOT
HETATM    1  C   UNL     1     -35.509  -1.520 -11.811  1.00  0.00     0.248 C 
ENDROOT
BRANCH   1   2
HETATM    2  C   UNL     1     -34.803  -2.830 -11.507  1.00  0.00    -0.019 A 
HETATM    3  C   UNL     1     -35.497  -3.902 -10.917  1.00  0.00     0.010 A 
HETATM    4  C   UNL     1     -34.871  -5.134 -10.704  1.00  0.00     0.001 A 
HETATM    5  C   UNL     1     -33.544  -5.318 -11.081  1.00  0.00     0.000 A 
HETATM    6  C   UNL     1     -32.833  -4.265 -11.647  1.00  0.00     0.001 A 
HETATM    7  C   UNL     1     -33.456  -3.033 -11.853  1.00  0.00     0.010 A 
ENDBRANCH   1   2
BRANCH   1   8
HETATM    8  C   UNL     1     -36.526  -1.109 -10.736  1.00  0.00     0.174 C 
HETATM    9  O   UNL     1     -37.737  -1.189 -10.900  1.00  0.00    -0.648 OA
BRANCH   8  10
HETATM   10  O   UNL     1     -35.985  -0.687  -9.568  1.00  0.00    -0.774 OA
HETATM   11  H   UNL     1     -35.764   0.263  -9.545  1.00  0.00     0.167 HD
ENDBRANCH   8  10
ENDBRANCH   1   8
BRANCH   1  12
HETATM   12  O   UNL     1     -34.566  -0.454 -11.976  1.00  0.00    -0.380 OA
HETATM   13  H   UNL     1     -33.969  -0.509 -11.202  1.00  0.00     0.211 HD
ENDBRANCH   1  12
TORSDOF 4
ENDMDL
MODEL 6
REMARK VINA RESULT:      -5.9      2.041      3.076
REMARK  4 active torsions:
REMARK  status: ('A' for Active; 'I' for Inactive)
REMARK    1  A    between atoms: C_4  and  C_7 
REMARK    2  A    between atoms: C_7  and  C_8 
REMARK    3  A    between atoms: C_7  and  O_11 
REMARK    4  A    between atoms: C_8  and  O_10 
ROOT
HETATM    1  C   UNL     1     -23.998  -3.498 -10.087  1.00  0.00     0.248 C 
ENDROOT
BRANCH   1   2
HETATM    2  C   UNL     1     -22.735  -3.882  -9.336  1.00  0.00    -0.019 A 
HETATM    3  C   UNL     1     -21.491  -3.921  -9.992  1.00  0.00     0.010 A 
HETATM    4  C   UNL     1     -20.316  -4.201  -9.288  1.00  0.00     0.001 A 
HETATM    5  C   UNL     1     -20.362  -4.444  -7.918  1.00  0.00     0.000 A 
HETATM    6  C   UNL     1     -21.584  -4.432  -7.254  1.00  0.00     0.001 A 
HETATM    7  C   UNL     1     -22.759  -4.158  -7.958  1.00  0.00     0.010 A 
ENDBRANCH   1   2
BRANCH   1   8
HETATM    8  C   UNL     1     -23.850  -3.573 -11.614  1.00  0.00     0.174 C 
HETATM    9  O   UNL     1     -23.884  -4.627 -12.236  1.00  0.00    -0.648 OA
BRANCH   8  10
HETATM   10  O   UNL     1     -23.719  -2.376 -12.234  1.00  0.00    -0.774 OA
HETATM   11  H   UNL     1     -22.804  -2.039 -12.274  1.00  0.00     0.167 HD
ENDBRANCH   8  10
ENDBRANCH   1   8
BRANCH   1  12
HETATM   12  O   UNL     1     -25.101  -4.325  -9.696  1.00  0.00    -0.380 OA
HETATM   13  H   UNL     1     -24.744  -4.937  -9.021  1.00  0.00     0.211 HD
ENDBRANCH   1  12
TORSDOF 4
ENDMDL
MODEL 7
REMARK VINA RESULT:      -5.7      3.773      5.229
REMARK  4 active torsions:
REMARK  status: ('A' for Active; 'I' for Inactive)
REMARK    1  A    between atoms: C_4  and  C_7 
REMARK    2  A    between atoms: C_7  and  C_8 
REMARK    3  A    between atoms: C_7  and  O_11 
REMARK    4  A    between atoms: C_8  and  O_10 
ROOT
HETATM    1  C   UNL     1     -22.847  -4.590  -8.416  1.00  0.00     0.248 C 
ENDROOT
BRANCH   1   2
HETATM    2  C   UNL     1     -22.808  -4.032  -9.829  1.00  0.00    -0.019 A 
HETATM    3  C   UNL     1     -23.985  -3.592 -10.462  1.00  0.00     0.010 A 
HETATM    4  C   UNL     1     -23.942  -3.010 -11.733  1.00  0.00     0.001 A 
HETATM    5  C   UNL     1     -22.725  -2.853 -12.390  1.00  0.00     0.000 A 
HETATM    6  C   UNL     1     -21.552  -3.300 -11.790  1.00  0.00     0.001 A 
HETATM    7  C   UNL     1     -21.595  -3.888 -10.524  1.00  0.00     0.010 A 
ENDBRANCH   1   2
BRANCH   1   8
HETATM    8  C   UNL     1     -21.605  -4.239  -7.584  1.00  0.00     0.174 C 
HETATM    9  O   UNL     1     -20.687  -5.026  -7.392  1.00  0.00    -0.648 OA
BRANCH   8  10
HETATM   10  O   UNL     1     -21.577  -2.971  -7.107  1.00  0.00    -0.774 OA
HETATM   11  H   UNL     1     -22.280  -2.393  -7.457  1.00  0.00     0.167 HD
ENDBRANCH   8  10
ENDBRANCH   1   8
BRANCH   1  12
HETATM   12  O   UNL     1     -24.010  -4.132  -7.714  1.00  0.00    -0.380 OA
HETATM   13  H   UNL     1     -24.612  -4.903  -7.674  1.00  0.00     0.211 HD
ENDBRANCH   1  12
TORSDOF 4
ENDMDL
MODEL 8
REMARK VINA RESULT:      -5.7      2.142      3.419
REMARK  4 active torsions:
REMARK  status: ('A' for Active; 'I' for Inactive)
REMARK    1  A    between atoms: C_4  and  C_7 
REMARK    2  A    between atoms: C_7  and  C_8 
REMARK    3  A    between atoms: C_7  and  O_11 
REMARK    4  A    between atoms: C_8  and  O_10 
ROOT
HETATM    1  C   UNL     1     -21.314  -4.172 -11.461  1.00  0.00     0.248 C 
ENDROOT
BRANCH   1   2
HETATM    2  C   UNL     1     -21.482  -4.105  -9.953  1.00  0.00    -0.019 A 
HETATM    3  C   UNL     1     -22.738  -4.324  -9.358  1.00  0.00     0.010 A 
HETATM    4  C   UNL     1     -22.882  -4.337  -7.967  1.00  0.00     0.001 A 
HETATM    5  C   UNL     1     -21.775  -4.136  -7.147  1.00  0.00     0.000 A 
HETATM    6  C   UNL     1     -20.528  -3.897  -7.715  1.00  0.00     0.001 A 
HETATM    7  C   UNL     1     -20.385  -3.878  -9.104  1.00  0.00     0.010 A 
ENDBRANCH   1   2
BRANCH   1   8
HETATM    8  C   UNL     1     -22.288  -3.265 -12.226  1.00  0.00     0.174 C 
HETATM    9  O   UNL     1     -23.067  -2.502 -11.668  1.00  0.00    -0.648 OA
BRANCH   8  10
HETATM   10  O   UNL     1     -22.196  -3.337 -13.576  1.00  0.00    -0.774 OA
HETATM   11  H   UNL     1     -21.315  -3.117 -13.932  1.00  0.00     0.167 HD
ENDBRANCH   8  10
ENDBRANCH   1   8
BRANCH   1  12
HETATM   12  O   UNL     1     -19.977  -3.831 -11.845  1.00  0.00    -0.380 OA
HETATM   13  H   UNL     1     -19.401  -4.196 -11.143  1.00  0.00     0.211 HD
ENDBRANCH   1  12
TORSDOF 4
ENDMDL
MODEL 9
REMARK VINA RESULT:      -5.7     10.983     12.079
REMARK  4 active torsions:
REMARK  status: ('A' for Active; 'I' for Inactive)
REMARK    1  A    between atoms: C_4  and  C_7 
REMARK    2  A    between atoms: C_7  and  C_8 
REMARK    3  A    between atoms: C_7  and  O_11 
REMARK    4  A    between atoms: C_8  and  O_10 
ROOT
HETATM    1  C   UNL     1     -35.714  -0.687 -13.024  1.00  0.00     0.248 C 
ENDROOT
BRANCH   1   2
HETATM    2  C   UNL     1     -34.799  -1.756 -12.451  1.00  0.00    -0.019 A 
HETATM    3  C   UNL     1     -34.265  -1.628 -11.156  1.00  0.00     0.010 A 
HETATM    4  C   UNL     1     -33.483  -2.644 -10.597  1.00  0.00     0.001 A 
HETATM    5  C   UNL     1     -33.225  -3.806 -11.319  1.00  0.00     0.000 A 
HETATM    6  C   UNL     1     -33.727  -3.944 -12.609  1.00  0.00     0.001 A 
HETATM    7  C   UNL     1     -34.502  -2.926 -13.170  1.00  0.00     0.010 A 
ENDBRANCH   1   2
BRANCH   1   8
HETATM    8  C   UNL     1     -35.444  -0.379 -14.504  1.00  0.00     0.174 C 
HETATM    9  O   UNL     1     -34.475   0.265 -14.885  1.00  0.00    -0.648 OA
BRANCH   8  10
HETATM   10  O   UNL     1     -36.340  -0.911 -15.370  1.00  0.00    -0.774 OA
HETATM   11  H   UNL     1     -36.278  -1.879 -15.471  1.00  0.00     0.167 HD
ENDBRANCH   8  10
ENDBRANCH   1   8
BRANCH   1  12
HETATM   12  O   UNL     1     -37.090  -1.056 -12.879  1.00  0.00    -0.380 OA
HETATM   13  H   UNL     1     -37.596  -0.387 -13.384  1.00  0.00     0.211 HD
ENDBRANCH   1  12
TORSDOF 4
ENDMDL
