MODEL 1
REMARK VINA RESULT:      -8.4      0.000      0.000
REMARK  4 active torsions:
REMARK  status: ('A' for Active; 'I' for Inactive)
REMARK    1  A    between atoms: C_4  and  C_7 
REMARK    2  A    between atoms: C_7  and  C_9 
REMARK    3  A    between atoms: C_10  and  O_16 
REMARK    4  A    between atoms: C_12  and  O_15 
ROOT
HETATM    1  C   UNL     1     -22.957  -3.755 -10.248  1.00  0.00     0.048 A 
HETATM    2  C   UNL     1     -24.124  -3.324 -10.899  1.00  0.00     0.082 A 
HETATM    3  C   UNL     1     -24.125  -3.081 -12.273  1.00  0.00     0.074 A 
HETATM    4  C   UNL     1     -22.947  -3.251 -12.994  1.00  0.00     0.068 A 
HETATM    5  C   UNL     1     -21.770  -3.632 -12.360  1.00  0.00     0.037 A 
HETATM    6  C   UNL     1     -21.769  -3.868 -10.986  1.00  0.00     0.021 A 
ENDROOT
BRANCH   1   7
HETATM    7  C   UNL     1     -22.988  -4.071  -8.795  1.00  0.00     0.195 C 
HETATM    8  O   UNL     1     -24.075  -4.127  -8.227  1.00  0.00    -0.287 OA
BRANCH   7   9
HETATM    9  C   UNL     1     -21.740  -4.344  -8.031  1.00  0.00     0.015 A 
HETATM   10  C   UNL     1     -20.477  -4.067  -8.572  1.00  0.00     0.015 A 
HETATM   11  C   UNL     1     -19.326  -4.293  -7.815  1.00  0.00     0.001 A 
HETATM   12  C   UNL     1     -19.432  -4.822  -6.530  1.00  0.00     0.000 A 
HETATM   13  C   UNL     1     -20.685  -5.134  -6.002  1.00  0.00     0.001 A 
HETATM   14  C   UNL     1     -21.840  -4.901  -6.753  1.00  0.00     0.015 A 
ENDBRANCH   7   9
ENDBRANCH   1   7
BRANCH   2  15
HETATM   15  O   UNL     1     -25.308  -3.121 -10.241  1.00  0.00    -0.360 OA
HETATM   16  H   UNL     1     -25.095  -2.876  -9.312  1.00  0.00     0.217 HD
ENDBRANCH   2  15
BRANCH   4  17
HETATM   17  O   UNL     1     -22.896  -3.043 -14.340  1.00  0.00    -0.361 OA
HETATM   18  H   UNL     1     -23.797  -3.108 -14.698  1.00  0.00     0.217 HD
ENDBRANCH   4  17
TORSDOF 4
ENDMDL
MODEL 2
REMARK VINA RESULT:      -8.3      1.655      2.327
REMARK  4 active torsions:
REMARK  status: ('A' for Active; 'I' for Inactive)
REMARK    1  A    between atoms: C_4  and  C_7 
REMARK    2  A    between atoms: C_7  and  C_9 
REMARK    3  A    between atoms: C_10  and  O_16 
REMARK    4  A    between atoms: C_12  and  O_15 
ROOT
HETATM    1  C   UNL     1     -21.962  -4.157  -8.867  1.00  0.00     0.048 A 
HETATM    2  C   UNL     1     -23.335  -4.079  -9.149  1.00  0.00     0.082 A 
HETATM    3  C   UNL     1     -23.801  -4.195 -10.459  1.00  0.00     0.074 A 
HETATM    4  C   UNL     1     -22.885  -4.368 -11.493  1.00  0.00     0.068 A 
HETATM    5  C   UNL     1     -21.520  -4.402 -11.239  1.00  0.00     0.037 A 
HETATM    6  C   UNL     1     -21.055  -4.280  -9.929  1.00  0.00     0.021 A 
ENDROOT
BRANCH   1   7
HETATM    7  C   UNL     1     -21.486  -4.096  -7.458  1.00  0.00     0.195 C 
HETATM    8  O   UNL     1     -21.306  -2.995  -6.945  1.00  0.00    -0.287 OA
BRANCH   7   9
HETATM    9  C   UNL     1     -21.253  -5.331  -6.662  1.00  0.00     0.015 A 
HETATM   10  C   UNL     1     -20.042  -6.032  -6.739  1.00  0.00     0.015 A 
HETATM   11  C   UNL     1     -19.836  -7.163  -5.948  1.00  0.00     0.001 A 
HETATM   12  C   UNL     1     -20.847  -7.612  -5.100  1.00  0.00     0.000 A 
HETATM   13  C   UNL     1     -22.068  -6.939  -5.049  1.00  0.00     0.001 A 
HETATM   14  C   UNL     1     -22.275  -5.801  -5.832  1.00  0.00     0.015 A 
ENDBRANCH   7   9
ENDBRANCH   1   7
BRANCH   2  15
HETATM   15  O   UNL     1     -24.283  -3.890  -8.178  1.00  0.00    -0.360 OA
HETATM   16  H   UNL     1     -25.166  -3.939  -8.610  1.00  0.00     0.217 HD
ENDBRANCH   2  15
BRANCH   4  17
HETATM   17  O   UNL     1     -23.287  -4.503 -12.788  1.00  0.00    -0.361 OA
HETATM   18  H   UNL     1     -23.027  -5.384 -13.104  1.00  0.00     0.217 HD
ENDBRANCH   4  17
TORSDOF 4
ENDMDL
MODEL 3
REMARK VINA RESULT:      -8.2      2.026      3.181
REMARK  4 active torsions:
REMARK  status: ('A' for Active; 'I' for Inactive)
REMARK    1  A    between atoms: C_4  and  C_7 
REMARK    2  A    between atoms: C_7  and  C_9 
REMARK    3  A    between atoms: C_10  and  O_16 
REMARK    4  A    between atoms: C_12  and  O_15 
ROOT
HETATM    1  C   UNL     1     -21.673  -4.222  -8.933  1.00  0.00     0.048 A 
HETATM    2  C   UNL     1     -21.504  -4.176 -10.326  1.00  0.00     0.082 A 
HETATM    3  C   UNL     1     -22.565  -3.824 -11.161  1.00  0.00     0.074 A 
HETATM    4  C   UNL     1     -23.806  -3.537 -10.599  1.00  0.00     0.068 A 
HETATM    5  C   UNL     1     -24.005  -3.622  -9.227  1.00  0.00     0.037 A 
HETATM    6  C   UNL     1     -22.946  -3.981  -8.394  1.00  0.00     0.021 A 
ENDROOT
BRANCH   1   7
HETATM    7  C   UNL     1     -20.517  -4.536  -8.052  1.00  0.00     0.195 C 
HETATM    8  O   UNL     1     -19.402  -4.134  -8.376  1.00  0.00    -0.287 OA
BRANCH   7   9
HETATM    9  C   UNL     1     -20.688  -5.298  -6.785  1.00  0.00     0.015 A 
HETATM   10  C   UNL     1     -20.428  -4.712  -5.539  1.00  0.00     0.015 A 
HETATM   11  C   UNL     1     -20.639  -5.438  -4.366  1.00  0.00     0.001 A 
HETATM   12  C   UNL     1     -21.082  -6.758  -4.435  1.00  0.00     0.000 A 
HETATM   13  C   UNL     1     -21.306  -7.357  -5.675  1.00  0.00     0.001 A 
HETATM   14  C   UNL     1     -21.105  -6.631  -6.851  1.00  0.00     0.015 A 
ENDBRANCH   7   9
ENDBRANCH   1   7
BRANCH   2  15
HETATM   15  O   UNL     1     -20.314  -4.465 -10.938  1.00  0.00    -0.360 OA
HETATM   16  H   UNL     1     -20.330  -5.416 -11.190  1.00  0.00     0.217 HD
ENDBRANCH   2  15
BRANCH   4  17
HETATM   17  O   UNL     1     -24.871  -3.173 -11.368  1.00  0.00    -0.361 OA
HETATM   18  H   UNL     1     -24.686  -3.417 -12.290  1.00  0.00     0.217 HD
ENDBRANCH   4  17
TORSDOF 4
ENDMDL
MODEL 4
REMARK VINA RESULT:      -7.8      1.757      2.220
REMARK  4 active torsions:
REMARK  status: ('A' for Active; 'I' for Inactive)
REMARK    1  A    between atoms: C_4  and  C_7 
REMARK    2  A    between atoms: C_7  and  C_9 
REMARK    3  A    between atoms: C_10  and  O_16 
REMARK    4  A    between atoms: C_12  and  O_15 
ROOT
HETATM    1  C   UNL     1     -21.825  -3.880 -10.936  1.00  0.00     0.048 A 
HETATM    2  C   UNL     1     -23.113  -4.422 -10.799  1.00  0.00     0.082 A 
HETATM    3  C   UNL     1     -24.184  -3.907 -11.529  1.00  0.00     0.074 A 
HETATM    4  C   UNL     1     -23.967  -2.831 -12.386  1.00  0.00     0.068 A 
HETATM    5  C   UNL     1     -22.709  -2.252 -12.501  1.00  0.00     0.037 A 
HETATM    6  C   UNL     1     -21.641  -2.764 -11.765  1.00  0.00     0.021 A 
ENDROOT
BRANCH   1   7
HETATM    7  C   UNL     1     -20.681  -4.482 -10.199  1.00  0.00     0.195 C 
HETATM    8  O   UNL     1     -19.738  -4.935 -10.843  1.00  0.00    -0.287 OA
BRANCH   7   9
HETATM    9  C   UNL     1     -20.647  -4.520  -8.712  1.00  0.00     0.015 A 
HETATM   10  C   UNL     1     -21.336  -3.575  -7.941  1.00  0.00     0.015 A 
HETATM   11  C   UNL     1     -21.321  -3.662  -6.548  1.00  0.00     0.001 A 
HETATM   12  C   UNL     1     -20.596  -4.675  -5.922  1.00  0.00     0.000 A 
HETATM   13  C   UNL     1     -19.878  -5.596  -6.686  1.00  0.00     0.001 A 
HETATM   14  C   UNL     1     -19.898  -5.518  -8.080  1.00  0.00     0.015 A 
ENDBRANCH   7   9
ENDBRANCH   1   7
BRANCH   2  15
HETATM   15  O   UNL     1     -23.392  -5.467  -9.959  1.00  0.00    -0.360 OA
HETATM   16  H   UNL     1     -24.104  -6.004 -10.378  1.00  0.00     0.217 HD
ENDBRANCH   2  15
BRANCH   4  17
HETATM   17  O   UNL     1     -24.974  -2.299 -13.134  1.00  0.00    -0.361 OA
HETATM   18  H   UNL     1     -25.596  -1.845 -12.540  1.00  0.00     0.217 HD
ENDBRANCH   4  17
TORSDOF 4
ENDMDL
MODEL 5
REMARK VINA RESULT:      -7.8      2.643      5.885
REMARK  4 active torsions:
REMARK  status: ('A' for Active; 'I' for Inactive)
REMARK    1  A    between atoms: C_4  and  C_7 
REMARK    2  A    between atoms: C_7  and  C_9 
REMARK    3  A    between atoms: C_10  and  O_16 
REMARK    4  A    between atoms: C_12  and  O_15 
ROOT
HETATM    1  C   UNL     1     -21.371  -5.269  -6.631  1.00  0.00     0.048 A 
HETATM    2  C   UNL     1     -22.507  -5.712  -5.934  1.00  0.00     0.082 A 
HETATM    3  C   UNL     1     -22.438  -6.820  -5.090  1.00  0.00     0.074 A 
HETATM    4  C   UNL     1     -21.231  -7.501  -4.959  1.00  0.00     0.068 A 
HETATM    5  C   UNL     1     -20.108  -7.106  -5.675  1.00  0.00     0.037 A 
HETATM    6  C   UNL     1     -20.180  -6.002  -6.524  1.00  0.00     0.021 A 
ENDROOT
BRANCH   1   7
HETATM    7  C   UNL     1     -21.444  -4.048  -7.477  1.00  0.00     0.195 C 
HETATM    8  O   UNL     1     -21.414  -2.949  -6.929  1.00  0.00    -0.287 OA
BRANCH   7   9
HETATM    9  C   UNL     1     -21.525  -4.133  -8.960  1.00  0.00     0.015 A 
HETATM   10  C   UNL     1     -20.377  -4.066  -9.760  1.00  0.00     0.015 A 
HETATM   11  C   UNL     1     -20.481  -4.192 -11.146  1.00  0.00     0.001 A 
HETATM   12  C   UNL     1     -21.732  -4.356 -11.738  1.00  0.00     0.000 A 
HETATM   13  C   UNL     1     -22.882  -4.385 -10.948  1.00  0.00     0.001 A 
HETATM   14  C   UNL     1     -22.781  -4.269  -9.560  1.00  0.00     0.015 A 
ENDBRANCH   7   9
ENDBRANCH   1   7
BRANCH   2  15
HETATM   15  O   UNL     1     -23.726  -5.096  -6.036  1.00  0.00    -0.360 OA
HETATM   16  H   UNL     1     -24.122  -5.067  -5.136  1.00  0.00     0.217 HD
ENDBRANCH   2  15
BRANCH   4  17
HETATM   17  O   UNL     1     -21.105  -8.580  -4.136  1.00  0.00    -0.361 OA
HETATM   18  H   UNL     1     -21.823  -9.205  -4.332  1.00  0.00     0.217 HD
ENDBRANCH   4  17
TORSDOF 4
ENDMDL
MODEL 6
REMARK VINA RESULT:      -7.7      6.912      9.762
REMARK  4 active torsions:
REMARK  status: ('A' for Active; 'I' for Inactive)
REMARK    1  A    between atoms: C_4  and  C_7 
REMARK    2  A    between atoms: C_7  and  C_9 
REMARK    3  A    between atoms: C_10  and  O_16 
REMARK    4  A    between atoms: C_12  and  O_15 
ROOT
HETATM    1  C   UNL     1     -21.366  -7.992  -1.980  1.00  0.00     0.048 A 
HETATM    2  C   UNL     1     -21.794  -6.802  -2.590  1.00  0.00     0.082 A 
HETATM    3  C   UNL     1     -21.428  -6.503  -3.903  1.00  0.00     0.074 A 
HETATM    4  C   UNL     1     -20.612  -7.390  -4.599  1.00  0.00     0.068 A 
HETATM    5  C   UNL     1     -20.141  -8.551  -3.998  1.00  0.00     0.037 A 
HETATM    6  C   UNL     1     -20.503  -8.845  -2.683  1.00  0.00     0.021 A 
ENDROOT
BRANCH   1   7
HETATM    7  C   UNL     1     -21.818  -8.327  -0.603  1.00  0.00     0.195 C 
HETATM    8  O   UNL     1     -21.942  -7.418   0.214  1.00  0.00    -0.287 OA
BRANCH   7   9
HETATM    9  C   UNL     1     -22.144  -9.725  -0.209  1.00  0.00     0.015 A 
HETATM   10  C   UNL     1     -21.182 -10.565   0.369  1.00  0.00     0.015 A 
HETATM   11  C   UNL     1     -21.529 -11.856   0.767  1.00  0.00     0.001 A 
HETATM   12  C   UNL     1     -22.827 -12.322   0.563  1.00  0.00     0.000 A 
HETATM   13  C   UNL     1     -23.777 -11.502  -0.046  1.00  0.00     0.001 A 
HETATM   14  C   UNL     1     -23.437 -10.205  -0.438  1.00  0.00     0.015 A 
ENDBRANCH   7   9
ENDBRANCH   1   7
BRANCH   2  15
HETATM   15  O   UNL     1     -22.581  -5.882  -1.951  1.00  0.00    -0.360 OA
HETATM   16  H   UNL     1     -22.235  -5.778  -1.035  1.00  0.00     0.217 HD
ENDBRANCH   2  15
BRANCH   4  17
HETATM   17  O   UNL     1     -20.237  -7.154  -5.888  1.00  0.00    -0.361 OA
HETATM   18  H   UNL     1     -19.287  -6.952  -5.903  1.00  0.00     0.217 HD
ENDBRANCH   4  17
TORSDOF 4
ENDMDL
MODEL 7
REMARK VINA RESULT:      -7.5      7.736     10.770
REMARK  4 active torsions:
REMARK  status: ('A' for Active; 'I' for Inactive)
REMARK    1  A    between atoms: C_4  and  C_7 
REMARK    2  A    between atoms: C_7  and  C_9 
REMARK    3  A    between atoms: C_10  and  O_16 
REMARK    4  A    between atoms: C_12  and  O_15 
ROOT
HETATM    1  C   UNL     1     -21.499  -8.178  -0.893  1.00  0.00     0.048 A 
HETATM    2  C   UNL     1     -20.736  -8.524  -2.019  1.00  0.00     0.082 A 
HETATM    3  C   UNL     1     -20.688  -7.686  -3.133  1.00  0.00     0.074 A 
HETATM    4  C   UNL     1     -21.425  -6.505  -3.126  1.00  0.00     0.068 A 
HETATM    5  C   UNL     1     -22.223  -6.167  -2.040  1.00  0.00     0.037 A 
HETATM    6  C   UNL     1     -22.275  -7.010  -0.930  1.00  0.00     0.021 A 
ENDROOT
BRANCH   1   7
HETATM    7  C   UNL     1     -21.489  -9.051   0.312  1.00  0.00     0.195 C 
HETATM    8  O   UNL     1     -20.976  -8.625   1.344  1.00  0.00    -0.287 OA
BRANCH   7   9
HETATM    9  C   UNL     1     -22.106 -10.405   0.297  1.00  0.00     0.015 A 
HETATM   10  C   UNL     1     -23.399 -10.614  -0.199  1.00  0.00     0.015 A 
HETATM   11  C   UNL     1     -23.935 -11.902  -0.240  1.00  0.00     0.001 A 
HETATM   12  C   UNL     1     -23.191 -12.979   0.240  1.00  0.00     0.000 A 
HETATM   13  C   UNL     1     -21.918 -12.770   0.770  1.00  0.00     0.001 A 
HETATM   14  C   UNL     1     -21.375 -11.484   0.804  1.00  0.00     0.015 A 
ENDBRANCH   7   9
ENDBRANCH   1   7
BRANCH   2  15
HETATM   15  O   UNL     1     -20.006  -9.681  -2.092  1.00  0.00    -0.360 OA
HETATM   16  H   UNL     1     -19.061  -9.430  -2.211  1.00  0.00     0.217 HD
ENDBRANCH   2  15
BRANCH   4  17
HETATM   17  O   UNL     1     -21.402  -5.643  -4.182  1.00  0.00    -0.361 OA
HETATM   18  H   UNL     1     -20.479  -5.515  -4.457  1.00  0.00     0.217 HD
ENDBRANCH   4  17
TORSDOF 4
ENDMDL
MODEL 8
REMARK VINA RESULT:      -7.5      8.760     11.884
REMARK  4 active torsions:
REMARK  status: ('A' for Active; 'I' for Inactive)
REMARK    1  A    between atoms: C_4  and  C_7 
REMARK    2  A    between atoms: C_7  and  C_9 
REMARK    3  A    between atoms: C_10  and  O_16 
REMARK    4  A    between atoms: C_12  and  O_15 
ROOT
HETATM    1  C   UNL     1     -22.174 -10.194   0.206  1.00  0.00     0.048 A 
HETATM    2  C   UNL     1     -21.362 -11.292   0.530  1.00  0.00     0.082 A 
HETATM    3  C   UNL     1     -21.863 -12.593   0.466  1.00  0.00     0.074 A 
HETATM    4  C   UNL     1     -23.190 -12.792   0.096  1.00  0.00     0.068 A 
HETATM    5  C   UNL     1     -24.023 -11.715  -0.185  1.00  0.00     0.037 A 
HETATM    6  C   UNL     1     -23.522 -10.416  -0.114  1.00  0.00     0.021 A 
ENDROOT
BRANCH   1   7
HETATM    7  C   UNL     1     -21.607  -8.819   0.217  1.00  0.00     0.195 C 
HETATM    8  O   UNL     1     -21.132  -8.386   1.263  1.00  0.00    -0.287 OA
BRANCH   7   9
HETATM    9  C   UNL     1     -21.582  -7.978  -1.011  1.00  0.00     0.015 A 
HETATM   10  C   UNL     1     -22.221  -6.732  -1.057  1.00  0.00     0.015 A 
HETATM   11  C   UNL     1     -22.143  -5.947  -2.208  1.00  0.00     0.001 A 
HETATM   12  C   UNL     1     -21.452  -6.415  -3.324  1.00  0.00     0.000 A 
HETATM   13  C   UNL     1     -20.846  -7.672  -3.295  1.00  0.00     0.001 A 
HETATM   14  C   UNL     1     -20.914  -8.457  -2.142  1.00  0.00     0.015 A 
ENDBRANCH   7   9
ENDBRANCH   1   7
BRANCH   2  15
HETATM   15  O   UNL     1     -20.056 -11.159   0.920  1.00  0.00    -0.360 OA
HETATM   16  H   UNL     1     -19.958 -10.275   1.342  1.00  0.00     0.217 HD
ENDBRANCH   2  15
BRANCH   4  17
HETATM   17  O   UNL     1     -23.726 -14.042   0.002  1.00  0.00    -0.361 OA
HETATM   18  H   UNL     1     -24.620 -13.968  -0.371  1.00  0.00     0.217 HD
ENDBRANCH   4  17
TORSDOF 4
ENDMDL
MODEL 9
REMARK VINA RESULT:      -7.5      4.735      8.246
REMARK  4 active torsions:
REMARK  status: ('A' for Active; 'I' for Inactive)
REMARK    1  A    between atoms: C_4  and  C_7 
REMARK    2  A    between atoms: C_7  and  C_9 
REMARK    3  A    between atoms: C_10  and  O_16 
REMARK    4  A    between atoms: C_12  and  O_15 
ROOT
HETATM    1  C   UNL     1     -21.063  -7.273  -3.780  1.00  0.00     0.048 A 
HETATM    2  C   UNL     1     -21.110  -8.507  -3.112  1.00  0.00     0.082 A 
HETATM    3  C   UNL     1     -21.650  -8.604  -1.830  1.00  0.00     0.074 A 
HETATM    4  C   UNL     1     -22.126  -7.455  -1.205  1.00  0.00     0.068 A 
HETATM    5  C   UNL     1     -22.047  -6.217  -1.830  1.00  0.00     0.037 A 
HETATM    6  C   UNL     1     -21.501  -6.121  -3.110  1.00  0.00     0.021 A 
ENDROOT
BRANCH   1   7
HETATM    7  C   UNL     1     -20.543  -7.197  -5.172  1.00  0.00     0.195 C 
HETATM    8  O   UNL     1     -19.876  -8.134  -5.603  1.00  0.00    -0.287 OA
BRANCH   7   9
HETATM    9  C   UNL     1     -20.836  -6.032  -6.049  1.00  0.00     0.015 A 
HETATM   10  C   UNL     1     -22.151  -5.621  -6.305  1.00  0.00     0.015 A 
HETATM   11  C   UNL     1     -22.393  -4.498  -7.097  1.00  0.00     0.001 A 
HETATM   12  C   UNL     1     -21.325  -3.800  -7.658  1.00  0.00     0.000 A 
HETATM   13  C   UNL     1     -20.015  -4.227  -7.437  1.00  0.00     0.001 A 
HETATM   14  C   UNL     1     -19.768  -5.345  -6.637  1.00  0.00     0.015 A 
ENDBRANCH   7   9
ENDBRANCH   1   7
BRANCH   2  15
HETATM   15  O   UNL     1     -20.639  -9.668  -3.667  1.00  0.00    -0.360 OA
HETATM   16  H   UNL     1     -20.252 -10.210  -2.942  1.00  0.00     0.217 HD
ENDBRANCH   2  15
BRANCH   4  17
HETATM   17  O   UNL     1     -22.678  -7.496   0.041  1.00  0.00    -0.361 OA
HETATM   18  H   UNL     1     -23.441  -6.894   0.061  1.00  0.00     0.217 HD
ENDBRANCH   4  17
TORSDOF 4
ENDMDL
