MODEL 1
REMARK VINA RESULT:      -6.2      0.000      0.000
REMARK  7 active torsions:
REMARK  status: ('A' for Active; 'I' for Inactive)
REMARK    1  A    between atoms: C_2  and  C_3 
REMARK    2  A    between atoms: C_3  and  C_4 
REMARK    3  A    between atoms: C_4  and  C_5 
REMARK    4  A    between atoms: C_5  and  C_6 
REMARK    5  A    between atoms: C_6  and  C_7 
REMARK    6  A    between atoms: C_7  and  C_8 
REMARK       I    between atoms: C_8  and  N_10 
REMARK    7  A    between atoms: N_10  and  O_11 
ROOT
HETATM    1  C   UNL     1     -23.668  -2.980 -13.257  1.00  0.00     0.105 C 
ENDROOT
BRANCH   1   2
HETATM    2  C   UNL     1     -22.670  -2.672 -12.144  1.00  0.00     0.009 C 
BRANCH   2   3
HETATM    3  C   UNL     1     -21.924  -3.920 -11.684  1.00  0.00     0.000 C 
BRANCH   3   4
HETATM    4  C   UNL     1     -20.607  -3.536 -11.015  1.00  0.00     0.000 C 
BRANCH   4   5
HETATM    5  C   UNL     1     -20.455  -4.242  -9.672  1.00  0.00    -0.000 C 
BRANCH   5   6
HETATM    6  C   UNL     1     -21.730  -4.120  -8.842  1.00  0.00    -0.005 C 
HETATM    7  C   UNL     1     -21.405  -3.717  -7.415  1.00  0.00     0.005 C 
ENDBRANCH   5   6
ENDBRANCH   4   5
ENDBRANCH   3   4
ENDBRANCH   2   3
ENDBRANCH   1   2
BRANCH   1   8
HETATM    8  C   UNL     1     -23.420  -2.106 -14.467  1.00  0.00     0.240 C 
HETATM    9  O   UNL     1     -22.675  -2.404 -15.393  1.00  0.00    -0.271 OA
HETATM   10  N   UNL     1     -24.106  -0.922 -14.453  1.00  0.00    -0.237 N 
HETATM   11  H   UNL     1     -24.737  -0.608 -13.725  1.00  0.00     0.197 HD
BRANCH  10  12
HETATM   12  O   UNL     1     -23.908  -0.069 -15.562  1.00  0.00    -0.287 OA
HETATM   13  H   UNL     1     -23.324  -0.610 -16.139  1.00  0.00     0.244 HD
ENDBRANCH  10  12
ENDBRANCH   1   8
TORSDOF 7
ENDMDL
MODEL 2
REMARK VINA RESULT:      -6.1      1.051      1.775
REMARK  7 active torsions:
REMARK  status: ('A' for Active; 'I' for Inactive)
REMARK    1  A    between atoms: C_2  and  C_3 
REMARK    2  A    between atoms: C_3  and  C_4 
REMARK    3  A    between atoms: C_4  and  C_5 
REMARK    4  A    between atoms: C_5  and  C_6 
REMARK    5  A    between atoms: C_6  and  C_7 
REMARK    6  A    between atoms: C_7  and  C_8 
REMARK       I    between atoms: C_8  and  N_10 
REMARK    7  A    between atoms: N_10  and  O_11 
ROOT
HETATM    1  C   UNL     1     -22.849  -3.034 -13.038  1.00  0.00     0.105 C 
ENDROOT
BRANCH   1   2
HETATM    2  C   UNL     1     -24.113  -3.428 -12.278  1.00  0.00     0.009 C 
BRANCH   2   3
HETATM    3  C   UNL     1     -23.926  -3.326 -10.768  1.00  0.00     0.000 C 
BRANCH   3   4
HETATM    4  C   UNL     1     -23.043  -4.465 -10.264  1.00  0.00     0.000 C 
BRANCH   4   5
HETATM    5  C   UNL     1     -22.171  -4.001  -9.102  1.00  0.00    -0.000 C 
BRANCH   5   6
HETATM    6  C   UNL     1     -20.722  -4.434  -9.299  1.00  0.00    -0.005 C 
HETATM    7  C   UNL     1     -20.340  -4.381 -10.767  1.00  0.00     0.005 C 
ENDBRANCH   5   6
ENDBRANCH   4   5
ENDBRANCH   3   4
ENDBRANCH   2   3
ENDBRANCH   1   2
BRANCH   1   8
HETATM    8  C   UNL     1     -23.191  -2.345 -14.341  1.00  0.00     0.240 C 
HETATM    9  O   UNL     1     -22.662  -2.600 -15.417  1.00  0.00    -0.271 OA
HETATM   10  N   UNL     1     -24.161  -1.387 -14.230  1.00  0.00    -0.237 N 
HETATM   11  H   UNL     1     -24.642  -1.122 -13.379  1.00  0.00     0.197 HD
BRANCH  10  12
HETATM   12  O   UNL     1     -24.517  -0.713 -15.420  1.00  0.00    -0.287 OA
HETATM   13  H   UNL     1     -24.918  -1.434 -15.956  1.00  0.00     0.244 HD
ENDBRANCH  10  12
ENDBRANCH   1   8
TORSDOF 7
ENDMDL
MODEL 3
REMARK VINA RESULT:      -6.0      1.486      1.806
REMARK  7 active torsions:
REMARK  status: ('A' for Active; 'I' for Inactive)
REMARK    1  A    between atoms: C_2  and  C_3 
REMARK    2  A    between atoms: C_3  and  C_4 
REMARK    3  A    between atoms: C_4  and  C_5 
REMARK    4  A    between atoms: C_5  and  C_6 
REMARK    5  A    between atoms: C_6  and  C_7 
REMARK    6  A    between atoms: C_7  and  C_8 
REMARK       I    between atoms: C_8  and  N_10 
REMARK    7  A    between atoms: N_10  and  O_11 
ROOT
HETATM    1  C   UNL     1     -22.620  -3.009 -13.176  1.00  0.00     0.105 C 
ENDROOT
BRANCH   1   2
HETATM    2  C   UNL     1     -22.216  -2.881 -11.709  1.00  0.00     0.009 C 
BRANCH   2   3
HETATM    3  C   UNL     1     -22.037  -4.243 -11.046  1.00  0.00     0.000 C 
BRANCH   3   4
HETATM    4  C   UNL     1     -23.302  -4.634 -10.286  1.00  0.00     0.000 C 
BRANCH   4   5
HETATM    5  C   UNL     1     -23.253  -4.120  -8.852  1.00  0.00    -0.000 C 
BRANCH   5   6
HETATM    6  C   UNL     1     -22.037  -4.671  -8.113  1.00  0.00    -0.005 C 
HETATM    7  C   UNL     1     -21.353  -3.577  -7.314  1.00  0.00     0.005 C 
ENDBRANCH   5   6
ENDBRANCH   4   5
ENDBRANCH   3   4
ENDBRANCH   2   3
ENDBRANCH   1   2
BRANCH   1   8
HETATM    8  C   UNL     1     -23.924  -2.289 -13.445  1.00  0.00     0.240 C 
HETATM    9  O   UNL     1     -24.999  -2.596 -12.942  1.00  0.00    -0.271 OA
HETATM   10  N   UNL     1     -23.815  -1.241 -14.317  1.00  0.00    -0.237 N 
HETATM   11  H   UNL     1     -22.965  -0.929 -14.771  1.00  0.00     0.197 HD
BRANCH  10  12
HETATM   12  O   UNL     1     -25.006  -0.535 -14.602  1.00  0.00    -0.287 OA
HETATM   13  H   UNL     1     -25.506  -0.622 -13.760  1.00  0.00     0.244 HD
ENDBRANCH  10  12
ENDBRANCH   1   8
TORSDOF 7
ENDMDL
MODEL 4
REMARK VINA RESULT:      -6.0      1.576      2.405
REMARK  7 active torsions:
REMARK  status: ('A' for Active; 'I' for Inactive)
REMARK    1  A    between atoms: C_2  and  C_3 
REMARK    2  A    between atoms: C_3  and  C_4 
REMARK    3  A    between atoms: C_4  and  C_5 
REMARK    4  A    between atoms: C_5  and  C_6 
REMARK    5  A    between atoms: C_6  and  C_7 
REMARK    6  A    between atoms: C_7  and  C_8 
REMARK       I    between atoms: C_8  and  N_10 
REMARK    7  A    between atoms: N_10  and  O_11 
ROOT
HETATM    1  C   UNL     1     -23.002  -3.258 -11.454  1.00  0.00     0.105 C 
ENDROOT
BRANCH   1   2
HETATM    2  C   UNL     1     -21.498  -3.400 -11.231  1.00  0.00     0.009 C 
BRANCH   2   3
HETATM    3  C   UNL     1     -21.181  -4.137  -9.935  1.00  0.00     0.000 C 
BRANCH   3   4
HETATM    4  C   UNL     1     -22.295  -3.922  -8.914  1.00  0.00     0.000 C 
BRANCH   4   5
HETATM    5  C   UNL     1     -21.721  -3.765  -7.510  1.00  0.00    -0.000 C 
BRANCH   5   6
HETATM    6  C   UNL     1     -20.240  -4.129  -7.480  1.00  0.00    -0.005 C 
HETATM    7  C   UNL     1     -19.888  -4.839  -6.185  1.00  0.00     0.005 C 
ENDBRANCH   5   6
ENDBRANCH   4   5
ENDBRANCH   3   4
ENDBRANCH   2   3
ENDBRANCH   1   2
BRANCH   1   8
HETATM    8  C   UNL     1     -23.313  -2.995 -12.911  1.00  0.00     0.240 C 
HETATM    9  O   UNL     1     -24.401  -2.611 -13.326  1.00  0.00    -0.271 OA
HETATM   10  N   UNL     1     -22.264  -3.223 -13.758  1.00  0.00    -0.237 N 
HETATM   11  H   UNL     1     -21.340  -3.539 -13.490  1.00  0.00     0.197 HD
BRANCH  10  12
HETATM   12  O   UNL     1     -22.504  -2.992 -15.131  1.00  0.00    -0.287 OA
HETATM   13  H   UNL     1     -21.661  -2.577 -15.423  1.00  0.00     0.244 HD
ENDBRANCH  10  12
ENDBRANCH   1   8
TORSDOF 7
ENDMDL
MODEL 5
REMARK VINA RESULT:      -5.9      3.214      3.634
REMARK  7 active torsions:
REMARK  status: ('A' for Active; 'I' for Inactive)
REMARK    1  A    between atoms: C_2  and  C_3 
REMARK    2  A    between atoms: C_3  and  C_4 
REMARK    3  A    between atoms: C_4  and  C_5 
REMARK    4  A    between atoms: C_5  and  C_6 
REMARK    5  A    between atoms: C_6  and  C_7 
REMARK    6  A    between atoms: C_7  and  C_8 
REMARK       I    between atoms: C_8  and  N_10 
REMARK    7  A    between atoms: N_10  and  O_11 
ROOT
HETATM    1  C   UNL     1     -22.961  -4.587 -11.044  1.00  0.00     0.105 C 
ENDROOT
BRANCH   1   2
HETATM    2  C   UNL     1     -21.798  -3.772 -11.603  1.00  0.00     0.009 C 
BRANCH   2   3
HETATM    3  C   UNL     1     -20.576  -3.822 -10.692  1.00  0.00     0.000 C 
BRANCH   3   4
HETATM    4  C   UNL     1     -20.974  -4.299  -9.297  1.00  0.00     0.000 C 
BRANCH   4   5
HETATM    5  C   UNL     1     -19.744  -4.459  -8.409  1.00  0.00    -0.000 C 
BRANCH   5   6
HETATM    6  C   UNL     1     -20.024  -5.417  -7.255  1.00  0.00    -0.005 C 
HETATM    7  C   UNL     1     -20.241  -4.651  -5.962  1.00  0.00     0.005 C 
ENDBRANCH   5   6
ENDBRANCH   4   5
ENDBRANCH   3   4
ENDBRANCH   2   3
ENDBRANCH   1   2
BRANCH   1   8
HETATM    8  C   UNL     1     -24.208  -3.739 -10.919  1.00  0.00     0.240 C 
HETATM    9  O   UNL     1     -24.539  -2.874 -11.723  1.00  0.00    -0.271 OA
HETATM   10  N   UNL     1     -24.962  -4.012  -9.811  1.00  0.00    -0.237 N 
HETATM   11  H   UNL     1     -24.754  -4.708  -9.105  1.00  0.00     0.197 HD
BRANCH  10  12
HETATM   12  O   UNL     1     -26.139  -3.246  -9.648  1.00  0.00    -0.287 OA
HETATM   13  H   UNL     1     -26.829  -3.843 -10.016  1.00  0.00     0.244 HD
ENDBRANCH  10  12
ENDBRANCH   1   8
TORSDOF 7
ENDMDL
MODEL 6
REMARK VINA RESULT:      -5.6      3.855      4.795
REMARK  7 active torsions:
REMARK  status: ('A' for Active; 'I' for Inactive)
REMARK    1  A    between atoms: C_2  and  C_3 
REMARK    2  A    between atoms: C_3  and  C_4 
REMARK    3  A    between atoms: C_4  and  C_5 
REMARK    4  A    between atoms: C_5  and  C_6 
REMARK    5  A    between atoms: C_6  and  C_7 
REMARK    6  A    between atoms: C_7  and  C_8 
REMARK       I    between atoms: C_8  and  N_10 
REMARK    7  A    between atoms: N_10  and  O_11 
ROOT
HETATM    1  C   UNL     1     -22.270  -3.816  -8.517  1.00  0.00     0.105 C 
ENDROOT
BRANCH   1   2
HETATM    2  C   UNL     1     -21.020  -4.364  -9.200  1.00  0.00     0.009 C 
BRANCH   2   3
HETATM    3  C   UNL     1     -19.802  -4.318  -8.284  1.00  0.00     0.000 C 
BRANCH   3   4
HETATM    4  C   UNL     1     -19.911  -5.389  -7.201  1.00  0.00     0.000 C 
BRANCH   4   5
HETATM    5  C   UNL     1     -19.983  -4.753  -5.816  1.00  0.00    -0.000 C 
BRANCH   5   6
HETATM    6  C   UNL     1     -20.808  -5.612  -4.863  1.00  0.00    -0.005 C 
HETATM    7  C   UNL     1     -22.071  -6.109  -5.543  1.00  0.00     0.005 C 
ENDBRANCH   5   6
ENDBRANCH   4   5
ENDBRANCH   3   4
ENDBRANCH   2   3
ENDBRANCH   1   2
BRANCH   1   8
HETATM    8  C   UNL     1     -23.411  -3.679  -9.501  1.00  0.00     0.240 C 
HETATM    9  O   UNL     1     -23.294  -3.802 -10.716  1.00  0.00    -0.271 OA
HETATM   10  N   UNL     1     -24.618  -3.396  -8.923  1.00  0.00    -0.237 N 
HETATM   11  H   UNL     1     -24.792  -3.281  -7.932  1.00  0.00     0.197 HD
BRANCH  10  12
HETATM   12  O   UNL     1     -25.717  -3.258  -9.801  1.00  0.00    -0.287 OA
HETATM   13  H   UNL     1     -25.276  -3.173 -10.676  1.00  0.00     0.244 HD
ENDBRANCH  10  12
ENDBRANCH   1   8
TORSDOF 7
ENDMDL
MODEL 7
REMARK VINA RESULT:      -4.9     13.061     13.731
REMARK  7 active torsions:
REMARK  status: ('A' for Active; 'I' for Inactive)
REMARK    1  A    between atoms: C_2  and  C_3 
REMARK    2  A    between atoms: C_3  and  C_4 
REMARK    3  A    between atoms: C_4  and  C_5 
REMARK    4  A    between atoms: C_5  and  C_6 
REMARK    5  A    between atoms: C_6  and  C_7 
REMARK    6  A    between atoms: C_7  and  C_8 
REMARK       I    between atoms: C_8  and  N_10 
REMARK    7  A    between atoms: N_10  and  O_11 
ROOT
HETATM    1  C   UNL     1     -35.812  -1.024 -16.670  1.00  0.00     0.105 C 
ENDROOT
BRANCH   1   2
HETATM    2  C   UNL     1     -36.187  -0.309 -15.374  1.00  0.00     0.009 C 
BRANCH   2   3
HETATM    3  C   UNL     1     -35.224   0.827 -15.050  1.00  0.00     0.000 C 
BRANCH   3   4
HETATM    4  C   UNL     1     -34.791   0.756 -13.588  1.00  0.00     0.000 C 
BRANCH   4   5
HETATM    5  C   UNL     1     -35.511  -0.377 -12.864  1.00  0.00    -0.000 C 
BRANCH   5   6
HETATM    6  C   UNL     1     -36.179   0.125 -11.588  1.00  0.00    -0.005 C 
HETATM    7  C   UNL     1     -37.667  -0.176 -11.606  1.00  0.00     0.005 C 
ENDBRANCH   5   6
ENDBRANCH   4   5
ENDBRANCH   3   4
ENDBRANCH   2   3
ENDBRANCH   1   2
BRANCH   1   8
HETATM    8  C   UNL     1     -34.875  -2.181 -16.400  1.00  0.00     0.240 C 
HETATM    9  O   UNL     1     -34.816  -2.789 -15.337  1.00  0.00    -0.271 OA
HETATM   10  N   UNL     1     -34.073  -2.511 -17.458  1.00  0.00    -0.237 N 
HETATM   11  H   UNL     1     -34.065  -2.057 -18.363  1.00  0.00     0.197 HD
BRANCH  10  12
HETATM   12  O   UNL     1     -33.179  -3.586 -17.257  1.00  0.00    -0.287 OA
HETATM   13  H   UNL     1     -33.775  -4.367 -17.313  1.00  0.00     0.244 HD
ENDBRANCH  10  12
ENDBRANCH   1   8
TORSDOF 7
ENDMDL
MODEL 8
REMARK VINA RESULT:      -4.9      8.528     10.837
REMARK  7 active torsions:
REMARK  status: ('A' for Active; 'I' for Inactive)
REMARK    1  A    between atoms: C_2  and  C_3 
REMARK    2  A    between atoms: C_3  and  C_4 
REMARK    3  A    between atoms: C_4  and  C_5 
REMARK    4  A    between atoms: C_5  and  C_6 
REMARK    5  A    between atoms: C_6  and  C_7 
REMARK    6  A    between atoms: C_7  and  C_8 
REMARK       I    between atoms: C_8  and  N_10 
REMARK    7  A    between atoms: N_10  and  O_11 
ROOT
HETATM    1  C   UNL     1     -21.225  -7.080  -3.426  1.00  0.00     0.105 C 
ENDROOT
BRANCH   1   2
HETATM    2  C   UNL     1     -21.802  -6.095  -2.413  1.00  0.00     0.009 C 
BRANCH   2   3
HETATM    3  C   UNL     1     -22.294  -6.797  -1.151  1.00  0.00     0.000 C 
BRANCH   3   4
HETATM    4  C   UNL     1     -21.546  -8.112  -0.949  1.00  0.00     0.000 C 
BRANCH   4   5
HETATM    5  C   UNL     1     -21.967  -8.779   0.357  1.00  0.00    -0.000 C 
BRANCH   5   6
HETATM    6  C   UNL     1     -23.456  -9.110   0.347  1.00  0.00    -0.005 C 
HETATM    7  C   UNL     1     -23.693 -10.500  -0.217  1.00  0.00     0.005 C 
ENDBRANCH   5   6
ENDBRANCH   4   5
ENDBRANCH   3   4
ENDBRANCH   2   3
ENDBRANCH   1   2
BRANCH   1   8
HETATM    8  C   UNL     1     -21.580  -6.676  -4.840  1.00  0.00     0.240 C 
HETATM    9  O   UNL     1     -22.605  -6.079  -5.151  1.00  0.00    -0.271 OA
HETATM   10  N   UNL     1     -20.649  -7.035  -5.775  1.00  0.00    -0.237 N 
HETATM   11  H   UNL     1     -19.782  -7.527  -5.595  1.00  0.00     0.197 HD
BRANCH  10  12
HETATM   12  O   UNL     1     -20.934  -6.680  -7.114  1.00  0.00    -0.287 OA
HETATM   13  H   UNL     1     -20.041  -6.463  -7.466  1.00  0.00     0.244 HD
ENDBRANCH  10  12
ENDBRANCH   1   8
TORSDOF 7
ENDMDL
MODEL 9
REMARK VINA RESULT:      -4.9      6.762      8.517
REMARK  7 active torsions:
REMARK  status: ('A' for Active; 'I' for Inactive)
REMARK    1  A    between atoms: C_2  and  C_3 
REMARK    2  A    between atoms: C_3  and  C_4 
REMARK    3  A    between atoms: C_4  and  C_5 
REMARK    4  A    between atoms: C_5  and  C_6 
REMARK    5  A    between atoms: C_6  and  C_7 
REMARK    6  A    between atoms: C_7  and  C_8 
REMARK       I    between atoms: C_8  and  N_10 
REMARK    7  A    between atoms: N_10  and  O_11 
ROOT
HETATM    1  C   UNL     1     -20.744  -6.582  -5.465  1.00  0.00     0.105 C 
ENDROOT
BRANCH   1   2
HETATM    2  C   UNL     1     -20.052  -5.287  -5.880  1.00  0.00     0.009 C 
BRANCH   2   3
HETATM    3  C   UNL     1     -20.962  -4.398  -6.722  1.00  0.00     0.000 C 
BRANCH   3   4
HETATM    4  C   UNL     1     -20.177  -3.776  -7.875  1.00  0.00     0.000 C 
BRANCH   4   5
HETATM    5  C   UNL     1     -20.014  -4.771  -9.019  1.00  0.00    -0.000 C 
BRANCH   5   6
HETATM    6  C   UNL     1     -21.047  -4.520 -10.113  1.00  0.00    -0.005 C 
HETATM    7  C   UNL     1     -20.577  -3.426 -11.055  1.00  0.00     0.005 C 
ENDBRANCH   5   6
ENDBRANCH   4   5
ENDBRANCH   3   4
ENDBRANCH   2   3
ENDBRANCH   1   2
BRANCH   1   8
HETATM    8  C   UNL     1     -21.924  -6.301  -4.560  1.00  0.00     0.240 C 
HETATM    9  O   UNL     1     -23.089  -6.256  -4.938  1.00  0.00    -0.271 OA
HETATM   10  N   UNL     1     -21.588  -6.092  -3.250  1.00  0.00    -0.237 N 
HETATM   11  H   UNL     1     -20.652  -6.113  -2.865  1.00  0.00     0.197 HD
BRANCH  10  12
HETATM   12  O   UNL     1     -22.656  -5.825  -2.363  1.00  0.00    -0.287 OA
HETATM   13  H   UNL     1     -23.430  -5.803  -2.970  1.00  0.00     0.244 HD
ENDBRANCH  10  12
ENDBRANCH   1   8
TORSDOF 7
ENDMDL
