MODEL 1
REMARK VINA RESULT:      -6.5      0.000      0.000
REMARK  3 active torsions:
REMARK  status: ('A' for Active; 'I' for Inactive)
REMARK    1  A    between atoms: C_4  and  O_10 
REMARK    2  A    between atoms: C_5  and  C_7 
REMARK    3  A    between atoms: C_7  and  O_9 
ROOT
HETATM    1  C   UNL     1     -21.831  -3.675 -11.064  1.00  0.00     0.001 A 
HETATM    2  C   UNL     1     -22.978  -3.827 -10.290  1.00  0.00     0.003 A 
HETATM    3  C   UNL     1     -24.232  -3.546 -10.835  1.00  0.00     0.037 A 
HETATM    4  C   UNL     1     -24.333  -3.112 -12.159  1.00  0.00     0.082 A 
HETATM    5  C   UNL     1     -23.188  -2.959 -12.953  1.00  0.00     0.070 A 
HETATM    6  C   UNL     1     -21.934  -3.244 -12.389  1.00  0.00     0.021 A 
ENDROOT
BRANCH   5   7
HETATM    7  C   UNL     1     -23.209  -2.510 -14.377  1.00  0.00     0.178 C 
HETATM    8  O   UNL     1     -23.982  -1.655 -14.783  1.00  0.00    -0.646 OA
BRANCH   7   9
HETATM    9  O   UNL     1     -22.314  -3.111 -15.187  1.00  0.00    -0.773 OA
HETATM   10  H   UNL     1     -22.494  -4.072 -15.291  1.00  0.00     0.167 HD
ENDBRANCH   7   9
ENDBRANCH   5   7
BRANCH   4  11
HETATM   11  O   UNL     1     -25.573  -2.833 -12.677  1.00  0.00    -0.360 OA
HETATM   12  H   UNL     1     -25.493  -2.067 -13.278  1.00  0.00     0.217 HD
ENDBRANCH   4  11
TORSDOF 3
ENDMDL
MODEL 2
REMARK VINA RESULT:      -6.3      2.209      3.601
REMARK  3 active torsions:
REMARK  status: ('A' for Active; 'I' for Inactive)
REMARK    1  A    between atoms: C_4  and  O_10 
REMARK    2  A    between atoms: C_5  and  C_7 
REMARK    3  A    between atoms: C_7  and  O_9 
ROOT
HETATM    1  C   UNL     1     -20.838  -4.041 -10.835  1.00  0.00     0.001 A 
HETATM    2  C   UNL     1     -20.554  -4.399  -9.519  1.00  0.00     0.003 A 
HETATM    3  C   UNL     1     -21.566  -4.391  -8.558  1.00  0.00     0.037 A 
HETATM    4  C   UNL     1     -22.865  -4.024  -8.920  1.00  0.00     0.082 A 
HETATM    5  C   UNL     1     -23.168  -3.667 -10.242  1.00  0.00     0.070 A 
HETATM    6  C   UNL     1     -22.137  -3.679 -11.196  1.00  0.00     0.021 A 
ENDROOT
BRANCH   5   7
HETATM    7  C   UNL     1     -24.529  -3.273 -10.713  1.00  0.00     0.178 C 
HETATM    8  O   UNL     1     -25.499  -3.254  -9.971  1.00  0.00    -0.646 OA
BRANCH   7   9
HETATM    9  O   UNL     1     -24.615  -2.936 -12.016  1.00  0.00    -0.773 OA
HETATM   10  H   UNL     1     -23.805  -2.480 -12.336  1.00  0.00     0.167 HD
ENDBRANCH   7   9
ENDBRANCH   5   7
BRANCH   4  11
HETATM   11  O   UNL     1     -23.847  -4.015  -7.962  1.00  0.00    -0.360 OA
HETATM   12  H   UNL     1     -23.530  -3.495  -7.198  1.00  0.00     0.217 HD
ENDBRANCH   4  11
TORSDOF 3
ENDMDL
MODEL 3
REMARK VINA RESULT:      -6.3      1.741      3.327
REMARK  3 active torsions:
REMARK  status: ('A' for Active; 'I' for Inactive)
REMARK    1  A    between atoms: C_4  and  O_10 
REMARK    2  A    between atoms: C_5  and  C_7 
REMARK    3  A    between atoms: C_7  and  O_9 
ROOT
HETATM    1  C   UNL     1     -21.564  -4.150  -8.906  1.00  0.00     0.001 A 
HETATM    2  C   UNL     1     -20.440  -4.294  -9.716  1.00  0.00     0.003 A 
HETATM    3  C   UNL     1     -20.543  -4.104 -11.095  1.00  0.00     0.037 A 
HETATM    4  C   UNL     1     -21.777  -3.768 -11.660  1.00  0.00     0.082 A 
HETATM    5  C   UNL     1     -22.916  -3.614 -10.857  1.00  0.00     0.070 A 
HETATM    6  C   UNL     1     -22.795  -3.811  -9.472  1.00  0.00     0.021 A 
ENDROOT
BRANCH   5   7
HETATM    7  C   UNL     1     -24.266  -3.248 -11.378  1.00  0.00     0.178 C 
HETATM    8  O   UNL     1     -24.463  -2.976 -12.554  1.00  0.00    -0.646 OA
BRANCH   7   9
HETATM    9  O   UNL     1     -25.257  -3.239 -10.464  1.00  0.00    -0.773 OA
HETATM   10  H   UNL     1     -25.066  -3.833  -9.704  1.00  0.00     0.167 HD
ENDBRANCH   7   9
ENDBRANCH   5   7
BRANCH   4  11
HETATM   11  O   UNL     1     -21.862  -3.592 -13.018  1.00  0.00    -0.360 OA
HETATM   12  H   UNL     1     -22.803  -3.629 -13.277  1.00  0.00     0.217 HD
ENDBRANCH   4  11
TORSDOF 3
ENDMDL
MODEL 4
REMARK VINA RESULT:      -6.3      1.994      3.773
REMARK  3 active torsions:
REMARK  status: ('A' for Active; 'I' for Inactive)
REMARK    1  A    between atoms: C_4  and  O_10 
REMARK    2  A    between atoms: C_5  and  C_7 
REMARK    3  A    between atoms: C_7  and  O_9 
ROOT
HETATM    1  C   UNL     1     -20.967  -4.173 -10.536  1.00  0.00     0.001 A 
HETATM    2  C   UNL     1     -20.956  -3.724 -11.855  1.00  0.00     0.003 A 
HETATM    3  C   UNL     1     -22.114  -3.191 -12.423  1.00  0.00     0.037 A 
HETATM    4  C   UNL     1     -23.285  -3.109 -11.665  1.00  0.00     0.082 A 
HETATM    5  C   UNL     1     -23.311  -3.551 -10.334  1.00  0.00     0.070 A 
HETATM    6  C   UNL     1     -22.137  -4.086  -9.779  1.00  0.00     0.021 A 
ENDROOT
BRANCH   5   7
HETATM    7  C   UNL     1     -24.516  -3.490  -9.454  1.00  0.00     0.178 C 
HETATM    8  O   UNL     1     -25.607  -3.122  -9.862  1.00  0.00    -0.646 OA
BRANCH   7   9
HETATM    9  O   UNL     1     -24.318  -3.871  -8.176  1.00  0.00    -0.773 OA
HETATM   10  H   UNL     1     -23.600  -3.358  -7.742  1.00  0.00     0.167 HD
ENDBRANCH   7   9
ENDBRANCH   5   7
BRANCH   4  11
HETATM   11  O   UNL     1     -24.417  -2.590 -12.240  1.00  0.00    -0.360 OA
HETATM   12  H   UNL     1     -24.526  -2.988 -13.126  1.00  0.00     0.217 HD
ENDBRANCH   4  11
TORSDOF 3
ENDMDL
MODEL 5
REMARK VINA RESULT:      -6.0      3.268      4.738
REMARK  3 active torsions:
REMARK  status: ('A' for Active; 'I' for Inactive)
REMARK    1  A    between atoms: C_4  and  O_10 
REMARK    2  A    between atoms: C_5  and  C_7 
REMARK    3  A    between atoms: C_7  and  O_9 
ROOT
HETATM    1  C   UNL     1     -21.485  -3.958 -11.409  1.00  0.00     0.001 A 
HETATM    2  C   UNL     1     -22.612  -3.475 -12.069  1.00  0.00     0.003 A 
HETATM    3  C   UNL     1     -23.761  -3.150 -11.345  1.00  0.00     0.037 A 
HETATM    4  C   UNL     1     -23.776  -3.311  -9.957  1.00  0.00     0.082 A 
HETATM    5  C   UNL     1     -22.647  -3.791  -9.277  1.00  0.00     0.070 A 
HETATM    6  C   UNL     1     -21.501  -4.115 -10.021  1.00  0.00     0.021 A 
ENDROOT
BRANCH   5   7
HETATM    7  C   UNL     1     -22.578  -3.983  -7.799  1.00  0.00     0.178 C 
HETATM    8  O   UNL     1     -21.548  -3.810  -7.163  1.00  0.00    -0.646 OA
BRANCH   7   9
HETATM    9  O   UNL     1     -23.730  -4.360  -7.209  1.00  0.00    -0.773 OA
HETATM   10  H   UNL     1     -23.831  -3.974  -6.310  1.00  0.00     0.167 HD
ENDBRANCH   7   9
ENDBRANCH   5   7
BRANCH   4  11
HETATM   11  O   UNL     1     -24.916  -2.994  -9.261  1.00  0.00    -0.360 OA
HETATM   12  H   UNL     1     -24.727  -3.070  -8.306  1.00  0.00     0.217 HD
ENDBRANCH   4  11
TORSDOF 3
ENDMDL
MODEL 6
REMARK VINA RESULT:      -5.9     11.008     11.770
REMARK  3 active torsions:
REMARK  status: ('A' for Active; 'I' for Inactive)
REMARK    1  A    between atoms: C_4  and  O_10 
REMARK    2  A    between atoms: C_5  and  C_7 
REMARK    3  A    between atoms: C_7  and  O_9 
ROOT
HETATM    1  C   UNL     1     -33.659  -3.082 -10.876  1.00  0.00     0.001 A 
HETATM    2  C   UNL     1     -34.012  -2.873 -12.207  1.00  0.00     0.003 A 
HETATM    3  C   UNL     1     -34.520  -3.926 -12.969  1.00  0.00     0.037 A 
HETATM    4  C   UNL     1     -34.673  -5.190 -12.394  1.00  0.00     0.082 A 
HETATM    5  C   UNL     1     -34.327  -5.415 -11.054  1.00  0.00     0.070 A 
HETATM    6  C   UNL     1     -33.816  -4.346 -10.302  1.00  0.00     0.021 A 
ENDROOT
BRANCH   5   7
HETATM    7  C   UNL     1     -34.468  -6.731 -10.361  1.00  0.00     0.178 C 
HETATM    8  O   UNL     1     -35.335  -6.942  -9.526  1.00  0.00    -0.646 OA
BRANCH   7   9
HETATM    9  O   UNL     1     -33.572  -7.673 -10.721  1.00  0.00    -0.773 OA
HETATM   10  H   UNL     1     -32.882  -7.318 -11.325  1.00  0.00     0.167 HD
ENDBRANCH   7   9
ENDBRANCH   5   7
BRANCH   4  11
HETATM   11  O   UNL     1     -35.167  -6.216 -13.160  1.00  0.00    -0.360 OA
HETATM   12  H   UNL     1     -36.111  -6.043 -13.340  1.00  0.00     0.217 HD
ENDBRANCH   4  11
TORSDOF 3
ENDMDL
MODEL 7
REMARK VINA RESULT:      -5.8     10.220     11.457
REMARK  3 active torsions:
REMARK  status: ('A' for Active; 'I' for Inactive)
REMARK    1  A    between atoms: C_4  and  O_10 
REMARK    2  A    between atoms: C_5  and  C_7 
REMARK    3  A    between atoms: C_7  and  O_9 
ROOT
HETATM    1  C   UNL     1     -32.710  -4.722 -11.755  1.00  0.00     0.001 A 
HETATM    2  C   UNL     1     -33.508  -5.634 -11.069  1.00  0.00     0.003 A 
HETATM    3  C   UNL     1     -34.798  -5.276 -10.674  1.00  0.00     0.037 A 
HETATM    4  C   UNL     1     -35.287  -4.000 -10.969  1.00  0.00     0.082 A 
HETATM    5  C   UNL     1     -34.497  -3.073 -11.664  1.00  0.00     0.070 A 
HETATM    6  C   UNL     1     -33.201  -3.449 -12.052  1.00  0.00     0.021 A 
ENDROOT
BRANCH   5   7
HETATM    7  C   UNL     1     -34.945  -1.696 -12.027  1.00  0.00     0.178 C 
HETATM    8  O   UNL     1     -34.350  -0.695 -11.658  1.00  0.00    -0.646 OA
BRANCH   7   9
HETATM    9  O   UNL     1     -36.054  -1.631 -12.792  1.00  0.00    -0.773 OA
HETATM   10  H   UNL     1     -35.903  -1.126 -13.622  1.00  0.00     0.167 HD
ENDBRANCH   7   9
ENDBRANCH   5   7
BRANCH   4  11
HETATM   11  O   UNL     1     -36.554  -3.662 -10.568  1.00  0.00    -0.360 OA
HETATM   12  H   UNL     1     -36.704  -4.026  -9.674  1.00  0.00     0.217 HD
ENDBRANCH   4  11
TORSDOF 3
ENDMDL
MODEL 8
REMARK VINA RESULT:      -5.7      6.281      7.320
REMARK  3 active torsions:
REMARK  status: ('A' for Active; 'I' for Inactive)
REMARK    1  A    between atoms: C_4  and  O_10 
REMARK    2  A    between atoms: C_5  and  C_7 
REMARK    3  A    between atoms: C_7  and  O_9 
ROOT
HETATM    1  C   UNL     1     -27.908  -6.076 -18.735  1.00  0.00     0.001 A 
HETATM    2  C   UNL     1     -29.108  -6.485 -18.158  1.00  0.00     0.003 A 
HETATM    3  C   UNL     1     -29.124  -6.976 -16.852  1.00  0.00     0.037 A 
HETATM    4  C   UNL     1     -27.934  -7.057 -16.124  1.00  0.00     0.082 A 
HETATM    5  C   UNL     1     -26.718  -6.644 -16.689  1.00  0.00     0.070 A 
HETATM    6  C   UNL     1     -26.719  -6.154 -18.005  1.00  0.00     0.021 A 
ENDROOT
BRANCH   5   7
HETATM    7  C   UNL     1     -25.406  -6.688 -15.979  1.00  0.00     0.178 C 
HETATM    8  O   UNL     1     -24.813  -7.735 -15.762  1.00  0.00    -0.646 OA
BRANCH   7   9
HETATM    9  O   UNL     1     -24.916  -5.493 -15.593  1.00  0.00    -0.773 OA
HETATM   10  H   UNL     1     -23.934  -5.492 -15.542  1.00  0.00     0.167 HD
ENDBRANCH   7   9
ENDBRANCH   5   7
BRANCH   4  11
HETATM   11  O   UNL     1     -27.966  -7.549 -14.844  1.00  0.00    -0.360 OA
HETATM   12  H   UNL     1     -28.095  -6.802 -14.228  1.00  0.00     0.217 HD
ENDBRANCH   4  11
TORSDOF 3
ENDMDL
MODEL 9
REMARK VINA RESULT:      -5.7     10.495     11.508
REMARK  3 active torsions:
REMARK  status: ('A' for Active; 'I' for Inactive)
REMARK    1  A    between atoms: C_4  and  O_10 
REMARK    2  A    between atoms: C_5  and  C_7 
REMARK    3  A    between atoms: C_7  and  O_9 
ROOT
HETATM    1  C   UNL     1     -33.575  -3.298 -10.482  1.00  0.00     0.001 A 
HETATM    2  C   UNL     1     -33.206  -4.241 -11.439  1.00  0.00     0.003 A 
HETATM    3  C   UNL     1     -33.593  -4.075 -12.770  1.00  0.00     0.037 A 
HETATM    4  C   UNL     1     -34.350  -2.960 -13.140  1.00  0.00     0.082 A 
HETATM    5  C   UNL     1     -34.724  -2.000 -12.189  1.00  0.00     0.070 A 
HETATM    6  C   UNL     1     -34.329  -2.183 -10.854  1.00  0.00     0.021 A 
ENDROOT
BRANCH   5   7
HETATM    7  C   UNL     1     -35.523  -0.778 -12.502  1.00  0.00     0.178 C 
HETATM    8  O   UNL     1     -35.214   0.331 -12.090  1.00  0.00    -0.646 OA
BRANCH   7   9
HETATM    9  O   UNL     1     -36.611  -0.979 -13.273  1.00  0.00    -0.773 OA
HETATM   10  H   UNL     1     -36.472  -1.695 -13.932  1.00  0.00     0.167 HD
ENDBRANCH   7   9
ENDBRANCH   5   7
BRANCH   4  11
HETATM   11  O   UNL     1     -34.728  -2.816 -14.451  1.00  0.00    -0.360 OA
HETATM   12  H   UNL     1     -35.517  -2.240 -14.485  1.00  0.00     0.217 HD
ENDBRANCH   4  11
TORSDOF 3
ENDMDL
