MODEL 1
REMARK VINA RESULT:      -5.1      0.000      0.000
REMARK  4 active torsions:
REMARK  status: ('A' for Active; 'I' for Inactive)
REMARK    1  A    between atoms: CB_2  and  CA_4 
REMARK    2  A    between atoms: CA_4  and  C_5 
REMARK    3  A    between atoms: CA_4  and  N_8 
REMARK    4  A    between atoms: C_5  and  OXT_7 
ROOT
ATOM      1  CA  VAL A   1     -22.876  -3.785 -12.109  1.00  0.00     0.317 C 
ENDROOT
BRANCH   1   2
ATOM      2  CB  VAL A   1     -22.057  -3.449 -10.842  1.00  0.00     0.021 C 
ATOM      3  CG1 VAL A   1     -22.312  -4.451  -9.709  1.00  0.00     0.012 C 
ATOM      4  CG2 VAL A   1     -20.551  -3.415 -11.135  1.00  0.00     0.012 C 
ENDBRANCH   1   2
BRANCH   1   5
ATOM      5  C   VAL A   1     -24.243  -3.067 -12.109  1.00  0.00     0.174 C 
ATOM      6  O   VAL A   1     -25.055  -3.141 -11.195  1.00  0.00    -0.648 OA
BRANCH   5   7
ATOM      7  OXT VAL A   1     -24.468  -2.316 -13.211  1.00  0.00    -0.775 OA
ATOM      8  HXT VAL A   1     -24.623  -2.832 -14.024  1.00  0.00     0.167 HD
ENDBRANCH   5   7
ENDBRANCH   1   5
BRANCH   1   9
ATOM      9  N   VAL A   1     -22.135  -3.382 -13.328  1.00  0.00     0.093 N 
ATOM     10  H1  VAL A   1     -21.161  -3.214 -13.054  1.00  0.00     0.314 HD
ATOM     11  H2  VAL A   1     -22.463  -2.460 -13.624  1.00  0.00     0.314 HD
ENDBRANCH   1   9
TORSDOF 4
ENDMDL
MODEL 2
REMARK VINA RESULT:      -4.9      1.806      2.413
REMARK  4 active torsions:
REMARK  status: ('A' for Active; 'I' for Inactive)
REMARK    1  A    between atoms: CB_2  and  CA_4 
REMARK    2  A    between atoms: CA_4  and  C_5 
REMARK    3  A    between atoms: CA_4  and  N_8 
REMARK    4  A    between atoms: C_5  and  OXT_7 
ROOT
ATOM      1  CA  VAL A   1     -23.129  -4.513 -10.534  1.00  0.00     0.317 C 
ENDROOT
BRANCH   1   2
ATOM      2  CB  VAL A   1     -21.872  -3.617 -10.617  1.00  0.00     0.021 C 
ATOM      3  CG1 VAL A   1     -20.582  -4.441 -10.704  1.00  0.00     0.012 C 
ATOM      4  CG2 VAL A   1     -21.931  -2.671 -11.824  1.00  0.00     0.012 C 
ENDBRANCH   1   2
BRANCH   1   5
ATOM      5  C   VAL A   1     -24.316  -3.769  -9.885  1.00  0.00     0.174 C 
ATOM      6  O   VAL A   1     -25.225  -3.247 -10.517  1.00  0.00    -0.648 OA
BRANCH   5   7
ATOM      7  OXT VAL A   1     -24.282  -3.757  -8.533  1.00  0.00    -0.775 OA
ATOM      8  HXT VAL A   1     -24.509  -4.611  -8.117  1.00  0.00     0.167 HD
ENDBRANCH   5   7
ENDBRANCH   1   5
BRANCH   1   9
ATOM      9  N   VAL A   1     -23.539  -4.959 -11.887  1.00  0.00     0.093 N 
ATOM     10  H1  VAL A   1     -23.296  -5.952 -11.971  1.00  0.00     0.314 HD
ATOM     11  H2  VAL A   1     -22.939  -4.505 -12.579  1.00  0.00     0.314 HD
ENDBRANCH   1   9
TORSDOF 4
ENDMDL
MODEL 3
REMARK VINA RESULT:      -4.9      2.068      2.648
REMARK  4 active torsions:
REMARK  status: ('A' for Active; 'I' for Inactive)
REMARK    1  A    between atoms: CB_2  and  CA_4 
REMARK    2  A    between atoms: CA_4  and  C_5 
REMARK    3  A    between atoms: CA_4  and  N_8 
REMARK    4  A    between atoms: C_5  and  OXT_7 
ROOT
ATOM      1  CA  VAL A   1     -23.502  -2.673 -12.646  1.00  0.00     0.317 C 
ENDROOT
BRANCH   1   2
ATOM      2  CB  VAL A   1     -22.515  -3.753 -12.148  1.00  0.00     0.021 C 
ATOM      3  CG1 VAL A   1     -21.357  -3.150 -11.345  1.00  0.00     0.012 C 
ATOM      4  CG2 VAL A   1     -23.220  -4.803 -11.276  1.00  0.00     0.012 C 
ENDBRANCH   1   2
BRANCH   1   5
ATOM      5  C   VAL A   1     -23.343  -2.413 -14.160  1.00  0.00     0.174 C 
ATOM      6  O   VAL A   1     -24.037  -1.632 -14.797  1.00  0.00    -0.648 OA
BRANCH   5   7
ATOM      7  OXT VAL A   1     -22.340  -3.116 -14.734  1.00  0.00    -0.775 OA
ATOM      8  HXT VAL A   1     -21.997  -3.847 -14.186  1.00  0.00     0.167 HD
ENDBRANCH   5   7
ENDBRANCH   1   5
BRANCH   1   9
ATOM      9  N   VAL A   1     -24.901  -3.087 -12.385  1.00  0.00     0.093 N 
ATOM     10  H1  VAL A   1     -25.191  -3.695 -13.159  1.00  0.00     0.314 HD
ATOM     11  H2  VAL A   1     -25.510  -2.272 -12.479  1.00  0.00     0.314 HD
ENDBRANCH   1   9
TORSDOF 4
ENDMDL
MODEL 4
REMARK VINA RESULT:      -4.8      2.332      2.945
REMARK  4 active torsions:
REMARK  status: ('A' for Active; 'I' for Inactive)
REMARK    1  A    between atoms: CB_2  and  CA_4 
REMARK    2  A    between atoms: CA_4  and  C_5 
REMARK    3  A    between atoms: CA_4  and  N_8 
REMARK    4  A    between atoms: C_5  and  OXT_7 
ROOT
ATOM      1  CA  VAL A   1     -23.434  -3.425  -9.415  1.00  0.00     0.317 C 
ENDROOT
BRANCH   1   2
ATOM      2  CB  VAL A   1     -22.261  -4.227 -10.025  1.00  0.00     0.021 C 
ATOM      3  CG1 VAL A   1     -21.440  -3.386 -11.011  1.00  0.00     0.012 C 
ATOM      4  CG2 VAL A   1     -21.319  -4.765  -8.939  1.00  0.00     0.012 C 
ENDBRANCH   1   2
BRANCH   1   5
ATOM      5  C   VAL A   1     -24.665  -3.422 -10.346  1.00  0.00     0.174 C 
ATOM      6  O   VAL A   1     -24.605  -3.563 -11.561  1.00  0.00    -0.648 OA
BRANCH   5   7
ATOM      7  OXT VAL A   1     -25.842  -3.271  -9.698  1.00  0.00    -0.775 OA
ATOM      8  HXT VAL A   1     -25.756  -3.130  -8.736  1.00  0.00     0.167 HD
ENDBRANCH   5   7
ENDBRANCH   1   5
BRANCH   1   9
ATOM      9  N   VAL A   1     -23.834  -4.004  -8.110  1.00  0.00     0.093 N 
ATOM     10  H1  VAL A   1     -23.662  -3.292  -7.392  1.00  0.00     0.314 HD
ATOM     11  H2  VAL A   1     -23.183  -4.753  -7.867  1.00  0.00     0.314 HD
ENDBRANCH   1   9
TORSDOF 4
ENDMDL
MODEL 5
REMARK VINA RESULT:      -4.7     10.506     11.424
REMARK  4 active torsions:
REMARK  status: ('A' for Active; 'I' for Inactive)
REMARK    1  A    between atoms: CB_2  and  CA_4 
REMARK    2  A    between atoms: CA_4  and  C_5 
REMARK    3  A    between atoms: CA_4  and  N_8 
REMARK    4  A    between atoms: C_5  and  OXT_7 
ROOT
ATOM      1  CA  VAL A   1     -33.751  -2.385 -11.353  1.00  0.00     0.317 C 
ENDROOT
BRANCH   1   2
ATOM      2  CB  VAL A   1     -33.372  -3.838 -10.985  1.00  0.00     0.021 C 
ATOM      3  CG1 VAL A   1     -34.608  -4.726 -10.800  1.00  0.00     0.012 C 
ATOM      4  CG2 VAL A   1     -32.468  -4.473 -12.051  1.00  0.00     0.012 C 
ENDBRANCH   1   2
BRANCH   1   5
ATOM      5  C   VAL A   1     -34.942  -2.340 -12.334  1.00  0.00     0.174 C 
ATOM      6  O   VAL A   1     -36.084  -2.039 -12.011  1.00  0.00    -0.648 OA
BRANCH   5   7
ATOM      7  OXT VAL A   1     -34.613  -2.644 -13.610  1.00  0.00    -0.775 OA
ATOM      8  HXT VAL A   1     -34.391  -1.871 -14.164  1.00  0.00     0.167 HD
ENDBRANCH   5   7
ENDBRANCH   1   5
BRANCH   1   9
ATOM      9  N   VAL A   1     -34.115  -1.620 -10.137  1.00  0.00     0.093 N 
ATOM     10  H1  VAL A   1     -33.768  -2.145  -9.327  1.00  0.00     0.314 HD
ATOM     11  H2  VAL A   1     -35.131  -1.646 -10.023  1.00  0.00     0.314 HD
ENDBRANCH   1   9
TORSDOF 4
ENDMDL
MODEL 6
REMARK VINA RESULT:      -4.7     10.186     11.218
REMARK  4 active torsions:
REMARK  status: ('A' for Active; 'I' for Inactive)
REMARK    1  A    between atoms: CB_2  and  CA_4 
REMARK    2  A    between atoms: CA_4  and  C_5 
REMARK    3  A    between atoms: CA_4  and  N_8 
REMARK    4  A    between atoms: C_5  and  OXT_7 
ROOT
ATOM      1  CA  VAL A   1     -34.454  -3.519 -12.640  1.00  0.00     0.317 C 
ENDROOT
BRANCH   1   2
ATOM      2  CB  VAL A   1     -33.456  -3.850 -11.506  1.00  0.00     0.021 C 
ATOM      3  CG1 VAL A   1     -34.068  -4.783 -10.454  1.00  0.00     0.012 C 
ATOM      4  CG2 VAL A   1     -32.177  -4.501 -12.051  1.00  0.00     0.012 C 
ENDBRANCH   1   2
BRANCH   1   5
ATOM      5  C   VAL A   1     -34.726  -2.002 -12.732  1.00  0.00     0.174 C 
ATOM      6  O   VAL A   1     -35.205  -1.451 -13.714  1.00  0.00    -0.648 OA
BRANCH   5   7
ATOM      7  OXT VAL A   1     -34.406  -1.319 -11.609  1.00  0.00    -0.775 OA
ATOM      8  HXT VAL A   1     -35.173  -0.943 -11.136  1.00  0.00     0.167 HD
ENDBRANCH   5   7
ENDBRANCH   1   5
BRANCH   1   9
ATOM      9  N   VAL A   1     -33.926  -3.981 -13.946  1.00  0.00     0.093 N 
ATOM     10  H1  VAL A   1     -32.917  -4.128 -13.836  1.00  0.00     0.314 HD
ATOM     11  H2  VAL A   1     -33.987  -3.213 -14.617  1.00  0.00     0.314 HD
ENDBRANCH   1   9
TORSDOF 4
ENDMDL
MODEL 7
REMARK VINA RESULT:      -4.6     13.118     13.994
REMARK  4 active torsions:
REMARK  status: ('A' for Active; 'I' for Inactive)
REMARK    1  A    between atoms: CB_2  and  CA_4 
REMARK    2  A    between atoms: CA_4  and  C_5 
REMARK    3  A    between atoms: CA_4  and  N_8 
REMARK    4  A    between atoms: C_5  and  OXT_7 
ROOT
ATOM      1  CA  VAL A   1     -35.503   0.222 -15.436  1.00  0.00     0.317 C 
ENDROOT
BRANCH   1   2
ATOM      2  CB  VAL A   1     -35.796  -0.292 -14.008  1.00  0.00     0.021 C 
ATOM      3  CG1 VAL A   1     -34.957   0.436 -12.950  1.00  0.00     0.012 C 
ATOM      4  CG2 VAL A   1     -37.280  -0.140 -13.645  1.00  0.00     0.012 C 
ENDBRANCH   1   2
BRANCH   1   5
ATOM      5  C   VAL A   1     -35.614  -0.910 -16.480  1.00  0.00     0.174 C 
ATOM      6  O   VAL A   1     -34.857  -1.871 -16.532  1.00  0.00    -0.648 OA
BRANCH   5   7
ATOM      7  OXT VAL A   1     -36.649  -0.764 -17.338  1.00  0.00    -0.775 OA
ATOM      8  HXT VAL A   1     -36.816   0.157 -17.614  1.00  0.00     0.167 HD
ENDBRANCH   5   7
ENDBRANCH   1   5
BRANCH   1   9
ATOM      9  N   VAL A   1     -36.455   1.296 -15.806  1.00  0.00     0.093 N 
ATOM     10  H1  VAL A   1     -36.211   2.127 -15.255  1.00  0.00     0.314 HD
ATOM     11  H2  VAL A   1     -37.385   1.046 -15.463  1.00  0.00     0.314 HD
ENDBRANCH   1   9
TORSDOF 4
ENDMDL
MODEL 8
REMARK VINA RESULT:      -4.5      3.140      3.838
REMARK  4 active torsions:
REMARK  status: ('A' for Active; 'I' for Inactive)
REMARK    1  A    between atoms: CB_2  and  CA_4 
REMARK    2  A    between atoms: CA_4  and  C_5 
REMARK    3  A    between atoms: CA_4  and  N_8 
REMARK    4  A    between atoms: C_5  and  OXT_7 
ROOT
ATOM      1  CA  VAL A   1     -23.503  -4.339  -9.795  1.00  0.00     0.317 C 
ENDROOT
BRANCH   1   2
ATOM      2  CB  VAL A   1     -22.807  -3.478 -10.874  1.00  0.00     0.021 C 
ATOM      3  CG1 VAL A   1     -21.722  -4.261 -11.624  1.00  0.00     0.012 C 
ATOM      4  CG2 VAL A   1     -23.812  -2.933 -11.898  1.00  0.00     0.012 C 
ENDBRANCH   1   2
BRANCH   1   5
ATOM      5  C   VAL A   1     -22.933  -4.058  -8.389  1.00  0.00     0.174 C 
ATOM      6  O   VAL A   1     -21.786  -3.684  -8.177  1.00  0.00    -0.648 OA
BRANCH   5   7
ATOM      7  OXT VAL A   1     -23.825  -4.240  -7.389  1.00  0.00    -0.775 OA
ATOM      8  HXT VAL A   1     -24.390  -3.465  -7.208  1.00  0.00     0.167 HD
ENDBRANCH   5   7
ENDBRANCH   1   5
BRANCH   1   9
ATOM      9  N   VAL A   1     -24.960  -4.066  -9.774  1.00  0.00     0.093 N 
ATOM     10  H1  VAL A   1     -25.095  -3.094 -10.075  1.00  0.00     0.314 HD
ATOM     11  H2  VAL A   1     -25.281  -4.064  -8.804  1.00  0.00     0.314 HD
ENDBRANCH   1   9
TORSDOF 4
ENDMDL
MODEL 9
REMARK VINA RESULT:      -4.4      3.480      4.206
REMARK  4 active torsions:
REMARK  status: ('A' for Active; 'I' for Inactive)
REMARK    1  A    between atoms: CB_2  and  CA_4 
REMARK    2  A    between atoms: CA_4  and  C_5 
REMARK    3  A    between atoms: CA_4  and  N_8 
REMARK    4  A    between atoms: C_5  and  OXT_7 
ROOT
ATOM      1  CA  VAL A   1     -22.985  -4.314  -9.243  1.00  0.00     0.317 C 
ENDROOT
BRANCH   1   2
ATOM      2  CB  VAL A   1     -22.366  -3.505 -10.406  1.00  0.00     0.021 C 
ATOM      3  CG1 VAL A   1     -21.237  -4.273 -11.105  1.00  0.00     0.012 C 
ATOM      4  CG2 VAL A   1     -23.421  -3.125 -11.454  1.00  0.00     0.012 C 
ENDBRANCH   1   2
BRANCH   1   5
ATOM      5  C   VAL A   1     -22.009  -4.436  -8.053  1.00  0.00     0.174 C 
ATOM      6  O   VAL A   1     -21.405  -5.462  -7.765  1.00  0.00    -0.648 OA
BRANCH   5   7
ATOM      7  OXT VAL A   1     -21.852  -3.290  -7.353  1.00  0.00    -0.775 OA
ATOM      8  HXT VAL A   1     -22.679  -2.935  -6.973  1.00  0.00     0.167 HD
ENDBRANCH   5   7
ENDBRANCH   1   5
BRANCH   1   9
ATOM      9  N   VAL A   1     -24.229  -3.666  -8.764  1.00  0.00     0.093 N 
ATOM     10  H1  VAL A   1     -24.658  -3.192  -9.567  1.00  0.00     0.314 HD
ATOM     11  H2  VAL A   1     -23.981  -2.898  -8.137  1.00  0.00     0.314 HD
ENDBRANCH   1   9
TORSDOF 4
ENDMDL
