MODEL 1
REMARK VINA RESULT:      -6.2      0.000      0.000
REMARK  18 active torsions:
REMARK  status: ('A' for Active; 'I' for Inactive)
REMARK    1  A    between atoms: C_2  and  C_3 
REMARK    2  A    between atoms: C_3  and  C_4 
REMARK    3  A    between atoms: C_4  and  C_5 
REMARK    4  A    between atoms: C_5  and  C_6 
REMARK    5  A    between atoms: C_6  and  C_7 
REMARK    6  A    between atoms: C_7  and  C_8 
REMARK    7  A    between atoms: C_8  and  C_9 
REMARK    8  A    between atoms: C_9  and  C_10 
REMARK    9  A    between atoms: C_10  and  C_11 
REMARK   10  A    between atoms: C_11  and  C_12 
REMARK   11  A    between atoms: C_12  and  C_13 
REMARK   12  A    between atoms: C_13  and  C_14 
REMARK       I    between atoms: C_14  and  N_16 
REMARK   13  A    between atoms: N_16  and  C_17 
REMARK   14  A    between atoms: N_16  and  C_21 
REMARK   15  A    between atoms: C_17  and  C_18 
REMARK   16  A    between atoms: C_18  and  O_20 
REMARK   17  A    between atoms: C_21  and  C_22 
REMARK   18  A    between atoms: C_22  and  O_24 
ROOT
HETATM    1  C   UNL     1     -21.960  -6.542  -4.451  1.00  0.00     0.103 C 
ENDROOT
BRANCH   1   2
HETATM    2  C   UNL     1     -20.818  -5.711  -5.031  1.00  0.00     0.009 C 
BRANCH   2   3
HETATM    3  C   UNL     1     -20.138  -6.483  -6.165  1.00  0.00     0.000 C 
BRANCH   3   4
HETATM    4  C   UNL     1     -20.114  -5.735  -7.493  1.00  0.00     0.000 C 
BRANCH   4   5
HETATM    5  C   UNL     1     -20.075  -4.219  -7.324  1.00  0.00     0.000 C 
BRANCH   5   6
HETATM    6  C   UNL     1     -21.424  -3.610  -7.685  1.00  0.00     0.000 C 
BRANCH   6   7
HETATM    7  C   UNL     1     -22.257  -4.580  -8.515  1.00  0.00     0.000 C 
BRANCH   7   8
HETATM    8  C   UNL     1     -23.704  -4.108  -8.569  1.00  0.00     0.000 C 
BRANCH   8   9
HETATM    9  C   UNL     1     -24.339  -4.437  -9.914  1.00  0.00     0.000 C 
BRANCH   9  10
HETATM   10  C   UNL     1     -24.126  -3.290 -10.897  1.00  0.00     0.000 C 
BRANCH  10  11
HETATM   11  C   UNL     1     -23.799  -3.824 -12.287  1.00  0.00    -0.000 C 
BRANCH  11  12
HETATM   12  C   UNL     1     -22.453  -3.295 -12.774  1.00  0.00    -0.005 C 
HETATM   13  C   UNL     1     -21.614  -2.789 -11.613  1.00  0.00     0.005 C 
ENDBRANCH  11  12
ENDBRANCH  10  11
ENDBRANCH   9  10
ENDBRANCH   8   9
ENDBRANCH   7   8
ENDBRANCH   6   7
ENDBRANCH   5   6
ENDBRANCH   4   5
ENDBRANCH   3   4
ENDBRANCH   2   3
ENDBRANCH   1   2
BRANCH   1  14
HETATM   14  C   UNL     1     -21.849  -6.686  -2.950  1.00  0.00     0.219 C 
HETATM   15  O   UNL     1     -22.384  -5.844  -2.228  1.00  0.00    -0.273 OA
HETATM   16  N   UNL     1     -21.189  -7.790  -2.418  1.00  0.00    -0.347 N 
BRANCH  16  17
HETATM   17  C   UNL     1     -20.495  -8.832  -3.191  1.00  0.00     0.157 C 
BRANCH  17  18
HETATM   18  C   UNL     1     -21.385  -9.906  -3.863  1.00  0.00     0.132 C 
HETATM   19  C   UNL     1     -21.035 -10.220  -5.314  1.00  0.00     0.041 C 
BRANCH  18  20
HETATM   20  O   UNL     1     -21.280 -11.122  -3.110  1.00  0.00    -0.394 OA
HETATM   21  H   UNL     1     -21.870 -11.785  -3.507  1.00  0.00     0.210 HD
ENDBRANCH  18  20
ENDBRANCH  17  18
ENDBRANCH  16  17
BRANCH  16  22
HETATM   22  C   UNL     1     -21.236  -7.941  -0.962  1.00  0.00     0.157 C 
BRANCH  22  23
HETATM   23  C   UNL     1     -22.352  -8.874  -0.443  1.00  0.00     0.132 C 
HETATM   24  C   UNL     1     -21.831 -10.114   0.277  1.00  0.00     0.041 C 
BRANCH  23  25
HETATM   25  O   UNL     1     -23.197  -8.151   0.457  1.00  0.00    -0.394 OA
HETATM   26  H   UNL     1     -24.119  -8.416   0.290  1.00  0.00     0.210 HD
ENDBRANCH  23  25
ENDBRANCH  22  23
ENDBRANCH  16  22
ENDBRANCH   1  14
TORSDOF 18
ENDMDL
MODEL 2
REMARK VINA RESULT:      -6.0      1.294      2.155
REMARK  18 active torsions:
REMARK  status: ('A' for Active; 'I' for Inactive)
REMARK    1  A    between atoms: C_2  and  C_3 
REMARK    2  A    between atoms: C_3  and  C_4 
REMARK    3  A    between atoms: C_4  and  C_5 
REMARK    4  A    between atoms: C_5  and  C_6 
REMARK    5  A    between atoms: C_6  and  C_7 
REMARK    6  A    between atoms: C_7  and  C_8 
REMARK    7  A    between atoms: C_8  and  C_9 
REMARK    8  A    between atoms: C_9  and  C_10 
REMARK    9  A    between atoms: C_10  and  C_11 
REMARK   10  A    between atoms: C_11  and  C_12 
REMARK   11  A    between atoms: C_12  and  C_13 
REMARK   12  A    between atoms: C_13  and  C_14 
REMARK       I    between atoms: C_14  and  N_16 
REMARK   13  A    between atoms: N_16  and  C_17 
REMARK   14  A    between atoms: N_16  and  C_21 
REMARK   15  A    between atoms: C_17  and  C_18 
REMARK   16  A    between atoms: C_18  and  O_20 
REMARK   17  A    between atoms: C_21  and  C_22 
REMARK   18  A    between atoms: C_22  and  O_24 
ROOT
HETATM    1  C   UNL     1     -21.878  -6.958  -4.642  1.00  0.00     0.103 C 
ENDROOT
BRANCH   1   2
HETATM    2  C   UNL     1     -20.511  -6.619  -5.231  1.00  0.00     0.009 C 
BRANCH   2   3
HETATM    3  C   UNL     1     -20.479  -5.149  -5.656  1.00  0.00     0.000 C 
BRANCH   3   4
HETATM    4  C   UNL     1     -21.719  -4.700  -6.420  1.00  0.00     0.000 C 
BRANCH   4   5
HETATM    5  C   UNL     1     -21.408  -3.699  -7.529  1.00  0.00     0.000 C 
BRANCH   5   6
HETATM    6  C   UNL     1     -21.430  -4.389  -8.888  1.00  0.00     0.000 C 
BRANCH   6   7
HETATM    7  C   UNL     1     -20.129  -4.149  -9.644  1.00  0.00     0.000 C 
BRANCH   7   8
HETATM    8  C   UNL     1     -20.430  -3.696 -11.067  1.00  0.00     0.000 C 
BRANCH   8   9
HETATM    9  C   UNL     1     -21.696  -4.356 -11.597  1.00  0.00     0.000 C 
BRANCH   9  10
HETATM   10  C   UNL     1     -22.551  -3.340 -12.349  1.00  0.00     0.000 C 
BRANCH  10  11
HETATM   11  C   UNL     1     -24.007  -3.425 -11.905  1.00  0.00    -0.000 C 
BRANCH  11  12
HETATM   12  C   UNL     1     -24.142  -3.139 -10.413  1.00  0.00    -0.005 C 
HETATM   13  C   UNL     1     -24.862  -4.272  -9.703  1.00  0.00     0.005 C 
ENDBRANCH  11  12
ENDBRANCH  10  11
ENDBRANCH   9  10
ENDBRANCH   8   9
ENDBRANCH   7   8
ENDBRANCH   6   7
ENDBRANCH   5   6
ENDBRANCH   4   5
ENDBRANCH   3   4
ENDBRANCH   2   3
ENDBRANCH   1   2
BRANCH   1  14
HETATM   14  C   UNL     1     -21.880  -6.879  -3.132  1.00  0.00     0.219 C 
HETATM   15  O   UNL     1     -22.398  -5.904  -2.587  1.00  0.00    -0.273 OA
HETATM   16  N   UNL     1     -21.342  -7.928  -2.394  1.00  0.00    -0.347 N 
BRANCH  16  17
HETATM   17  C   UNL     1     -20.677  -9.117  -2.948  1.00  0.00     0.157 C 
BRANCH  17  18
HETATM   18  C   UNL     1     -19.181  -9.305  -2.593  1.00  0.00     0.132 C 
HETATM   19  C   UNL     1     -18.840 -10.625  -1.910  1.00  0.00     0.041 C 
BRANCH  18  20
HETATM   20  O   UNL     1     -18.411  -9.219  -3.798  1.00  0.00    -0.394 OA
HETATM   21  H   UNL     1     -18.936  -8.753  -4.471  1.00  0.00     0.210 HD
ENDBRANCH  18  20
ENDBRANCH  17  18
ENDBRANCH  16  17
BRANCH  16  22
HETATM   22  C   UNL     1     -21.498  -7.852  -0.939  1.00  0.00     0.157 C 
BRANCH  22  23
HETATM   23  C   UNL     1     -22.585  -8.780  -0.356  1.00  0.00     0.132 C 
HETATM   24  C   UNL     1     -22.027 -10.006   0.360  1.00  0.00     0.041 C 
BRANCH  23  25
HETATM   25  O   UNL     1     -23.392  -8.045   0.570  1.00  0.00    -0.394 OA
HETATM   26  H   UNL     1     -22.815  -7.433   1.060  1.00  0.00     0.210 HD
ENDBRANCH  23  25
ENDBRANCH  22  23
ENDBRANCH  16  22
ENDBRANCH   1  14
TORSDOF 18
ENDMDL
MODEL 3
REMARK VINA RESULT:      -5.8      1.772      3.323
REMARK  18 active torsions:
REMARK  status: ('A' for Active; 'I' for Inactive)
REMARK    1  A    between atoms: C_2  and  C_3 
REMARK    2  A    between atoms: C_3  and  C_4 
REMARK    3  A    between atoms: C_4  and  C_5 
REMARK    4  A    between atoms: C_5  and  C_6 
REMARK    5  A    between atoms: C_6  and  C_7 
REMARK    6  A    between atoms: C_7  and  C_8 
REMARK    7  A    between atoms: C_8  and  C_9 
REMARK    8  A    between atoms: C_9  and  C_10 
REMARK    9  A    between atoms: C_10  and  C_11 
REMARK   10  A    between atoms: C_11  and  C_12 
REMARK   11  A    between atoms: C_12  and  C_13 
REMARK   12  A    between atoms: C_13  and  C_14 
REMARK       I    between atoms: C_14  and  N_16 
REMARK   13  A    between atoms: N_16  and  C_17 
REMARK   14  A    between atoms: N_16  and  C_21 
REMARK   15  A    between atoms: C_17  and  C_18 
REMARK   16  A    between atoms: C_18  and  O_20 
REMARK   17  A    between atoms: C_21  and  C_22 
REMARK   18  A    between atoms: C_22  and  O_24 
ROOT
HETATM    1  C   UNL     1     -21.394  -7.619  -0.717  1.00  0.00     0.103 C 
ENDROOT
BRANCH   1   2
HETATM    2  C   UNL     1     -22.278  -6.660  -1.511  1.00  0.00     0.009 C 
BRANCH   2   3
HETATM    3  C   UNL     1     -21.564  -6.241  -2.799  1.00  0.00     0.000 C 
BRANCH   3   4
HETATM    4  C   UNL     1     -21.809  -7.181  -3.974  1.00  0.00     0.000 C 
BRANCH   4   5
HETATM    5  C   UNL     1     -21.794  -6.467  -5.323  1.00  0.00     0.000 C 
BRANCH   5   6
HETATM    6  C   UNL     1     -20.417  -5.871  -5.592  1.00  0.00     0.000 C 
BRANCH   6   7
HETATM    7  C   UNL     1     -20.534  -4.502  -6.251  1.00  0.00     0.000 C 
BRANCH   7   8
HETATM    8  C   UNL     1     -21.807  -4.435  -7.086  1.00  0.00     0.000 C 
BRANCH   8   9
HETATM    9  C   UNL     1     -21.540  -3.801  -8.444  1.00  0.00     0.000 C 
BRANCH   9  10
HETATM   10  C   UNL     1     -20.287  -4.403  -9.074  1.00  0.00     0.000 C 
BRANCH  10  11
HETATM   11  C   UNL     1     -20.390  -4.397 -10.595  1.00  0.00    -0.000 C 
BRANCH  11  12
HETATM   12  C   UNL     1     -21.848  -4.368 -11.045  1.00  0.00    -0.005 C 
HETATM   13  C   UNL     1     -22.085  -3.262 -12.058  1.00  0.00     0.005 C 
ENDBRANCH  11  12
ENDBRANCH  10  11
ENDBRANCH   9  10
ENDBRANCH   8   9
ENDBRANCH   7   8
ENDBRANCH   6   7
ENDBRANCH   5   6
ENDBRANCH   4   5
ENDBRANCH   3   4
ENDBRANCH   2   3
ENDBRANCH   1   2
BRANCH   1  14
HETATM   14  C   UNL     1     -22.063  -8.957  -0.499  1.00  0.00     0.219 C 
HETATM   15  O   UNL     1     -23.194  -8.987  -0.014  1.00  0.00    -0.273 OA
HETATM   16  N   UNL     1     -21.407 -10.119  -0.895  1.00  0.00    -0.347 N 
BRANCH  16  17
HETATM   17  C   UNL     1     -20.049 -10.192  -1.454  1.00  0.00     0.157 C 
BRANCH  17  18
HETATM   18  C   UNL     1     -19.928 -10.122  -2.996  1.00  0.00     0.132 C 
HETATM   19  C   UNL     1     -18.731  -9.332  -3.515  1.00  0.00     0.041 C 
BRANCH  18  20
HETATM   20  O   UNL     1     -19.833 -11.457  -3.508  1.00  0.00    -0.394 OA
HETATM   21  H   UNL     1     -18.894 -11.673  -3.641  1.00  0.00     0.210 HD
ENDBRANCH  18  20
ENDBRANCH  17  18
ENDBRANCH  16  17
BRANCH  16  22
HETATM   22  C   UNL     1     -22.164 -11.368  -0.782  1.00  0.00     0.157 C 
BRANCH  22  23
HETATM   23  C   UNL     1     -22.009 -12.099   0.569  1.00  0.00     0.132 C 
HETATM   24  C   UNL     1     -23.230 -12.925   0.964  1.00  0.00     0.041 C 
BRANCH  23  25
HETATM   25  O   UNL     1     -20.875 -12.970   0.512  1.00  0.00    -0.394 OA
HETATM   26  H   UNL     1     -20.276 -12.739   1.245  1.00  0.00     0.210 HD
ENDBRANCH  23  25
ENDBRANCH  22  23
ENDBRANCH  16  22
ENDBRANCH   1  14
TORSDOF 18
ENDMDL
MODEL 4
REMARK VINA RESULT:      -5.7      1.607      3.108
REMARK  18 active torsions:
REMARK  status: ('A' for Active; 'I' for Inactive)
REMARK    1  A    between atoms: C_2  and  C_3 
REMARK    2  A    between atoms: C_3  and  C_4 
REMARK    3  A    between atoms: C_4  and  C_5 
REMARK    4  A    between atoms: C_5  and  C_6 
REMARK    5  A    between atoms: C_6  and  C_7 
REMARK    6  A    between atoms: C_7  and  C_8 
REMARK    7  A    between atoms: C_8  and  C_9 
REMARK    8  A    between atoms: C_9  and  C_10 
REMARK    9  A    between atoms: C_10  and  C_11 
REMARK   10  A    between atoms: C_11  and  C_12 
REMARK   11  A    between atoms: C_12  and  C_13 
REMARK   12  A    between atoms: C_13  and  C_14 
REMARK       I    between atoms: C_14  and  N_16 
REMARK   13  A    between atoms: N_16  and  C_17 
REMARK   14  A    between atoms: N_16  and  C_21 
REMARK   15  A    between atoms: C_17  and  C_18 
REMARK   16  A    between atoms: C_18  and  O_20 
REMARK   17  A    between atoms: C_21  and  C_22 
REMARK   18  A    between atoms: C_22  and  O_24 
ROOT
HETATM    1  C   UNL     1     -20.836  -8.074  -3.601  1.00  0.00     0.103 C 
ENDROOT
BRANCH   1   2
HETATM    2  C   UNL     1     -21.815  -6.915  -3.770  1.00  0.00     0.009 C 
BRANCH   2   3
HETATM    3  C   UNL     1     -21.850  -6.474  -5.236  1.00  0.00     0.000 C 
BRANCH   3   4
HETATM    4  C   UNL     1     -20.668  -6.974  -6.059  1.00  0.00     0.000 C 
BRANCH   4   5
HETATM    5  C   UNL     1     -19.918  -5.850  -6.768  1.00  0.00     0.000 C 
BRANCH   5   6
HETATM    6  C   UNL     1     -20.580  -4.508  -6.485  1.00  0.00     0.000 C 
BRANCH   6   7
HETATM    7  C   UNL     1     -20.843  -3.744  -7.778  1.00  0.00     0.000 C 
BRANCH   7   8
HETATM    8  C   UNL     1     -19.903  -4.236  -8.871  1.00  0.00     0.000 C 
BRANCH   8   9
HETATM    9  C   UNL     1     -20.603  -4.268 -10.223  1.00  0.00     0.000 C 
BRANCH   9  10
HETATM   10  C   UNL     1     -22.090  -3.965 -10.059  1.00  0.00     0.000 C 
BRANCH  10  11
HETATM   11  C   UNL     1     -22.658  -3.339 -11.327  1.00  0.00    -0.000 C 
BRANCH  11  12
HETATM   12  C   UNL     1     -24.177  -3.228 -11.250  1.00  0.00    -0.005 C 
HETATM   13  C   UNL     1     -24.670  -3.463  -9.833  1.00  0.00     0.005 C 
ENDBRANCH  11  12
ENDBRANCH  10  11
ENDBRANCH   9  10
ENDBRANCH   8   9
ENDBRANCH   7   8
ENDBRANCH   6   7
ENDBRANCH   5   6
ENDBRANCH   4   5
ENDBRANCH   3   4
ENDBRANCH   2   3
ENDBRANCH   1   2
BRANCH   1  14
HETATM   14  C   UNL     1     -21.511  -9.309  -3.048  1.00  0.00     0.219 C 
HETATM   15  O   UNL     1     -22.188 -10.008  -3.803  1.00  0.00    -0.273 OA
HETATM   16  N   UNL     1     -21.313  -9.654  -1.715  1.00  0.00    -0.347 N 
BRANCH  16  17
HETATM   17  C   UNL     1     -20.550  -8.874  -0.728  1.00  0.00     0.157 C 
BRANCH  17  18
HETATM   18  C   UNL     1     -21.370  -7.992   0.244  1.00  0.00     0.132 C 
HETATM   19  C   UNL     1     -22.607  -7.339  -0.362  1.00  0.00     0.041 C 
BRANCH  18  20
HETATM   20  O   UNL     1     -21.794  -8.802   1.348  1.00  0.00    -0.394 OA
HETATM   21  H   UNL     1     -21.073  -8.843   1.999  1.00  0.00     0.210 HD
ENDBRANCH  18  20
ENDBRANCH  17  18
ENDBRANCH  16  17
BRANCH  16  22
HETATM   22  C   UNL     1     -21.882 -10.932  -1.279  1.00  0.00     0.157 C 
BRANCH  22  23
HETATM   23  C   UNL     1     -23.422 -10.956  -1.181  1.00  0.00     0.132 C 
HETATM   24  C   UNL     1     -24.026 -12.348  -1.331  1.00  0.00     0.041 C 
BRANCH  23  25
HETATM   25  O   UNL     1     -23.827 -10.421   0.084  1.00  0.00    -0.394 OA
HETATM   26  H   UNL     1     -23.753  -9.451   0.043  1.00  0.00     0.210 HD
ENDBRANCH  23  25
ENDBRANCH  22  23
ENDBRANCH  16  22
ENDBRANCH   1  14
TORSDOF 18
ENDMDL
MODEL 5
REMARK VINA RESULT:      -5.5      1.933      3.467
REMARK  18 active torsions:
REMARK  status: ('A' for Active; 'I' for Inactive)
REMARK    1  A    between atoms: C_2  and  C_3 
REMARK    2  A    between atoms: C_3  and  C_4 
REMARK    3  A    between atoms: C_4  and  C_5 
REMARK    4  A    between atoms: C_5  and  C_6 
REMARK    5  A    between atoms: C_6  and  C_7 
REMARK    6  A    between atoms: C_7  and  C_8 
REMARK    7  A    between atoms: C_8  and  C_9 
REMARK    8  A    between atoms: C_9  and  C_10 
REMARK    9  A    between atoms: C_10  and  C_11 
REMARK   10  A    between atoms: C_11  and  C_12 
REMARK   11  A    between atoms: C_12  and  C_13 
REMARK   12  A    between atoms: C_13  and  C_14 
REMARK       I    between atoms: C_14  and  N_16 
REMARK   13  A    between atoms: N_16  and  C_17 
REMARK   14  A    between atoms: N_16  and  C_21 
REMARK   15  A    between atoms: C_17  and  C_18 
REMARK   16  A    between atoms: C_18  and  O_20 
REMARK   17  A    between atoms: C_21  and  C_22 
REMARK   18  A    between atoms: C_22  and  O_24 
ROOT
HETATM    1  C   UNL     1     -20.544  -7.900  -2.514  1.00  0.00     0.103 C 
ENDROOT
BRANCH   1   2
HETATM    2  C   UNL     1     -20.832  -7.649  -3.992  1.00  0.00     0.009 C 
BRANCH   2   3
HETATM    3  C   UNL     1     -21.451  -6.261  -4.173  1.00  0.00     0.000 C 
BRANCH   3   4
HETATM    4  C   UNL     1     -21.307  -5.700  -5.584  1.00  0.00     0.000 C 
BRANCH   4   5
HETATM    5  C   UNL     1     -20.198  -4.659  -5.702  1.00  0.00     0.000 C 
BRANCH   5   6
HETATM    6  C   UNL     1     -19.513  -4.765  -7.059  1.00  0.00     0.000 C 
BRANCH   6   7
HETATM    7  C   UNL     1     -20.356  -4.112  -8.148  1.00  0.00     0.000 C 
BRANCH   7   8
HETATM    8  C   UNL     1     -20.090  -4.789  -9.487  1.00  0.00     0.000 C 
BRANCH   8   9
HETATM    9  C   UNL     1     -20.533  -3.906 -10.646  1.00  0.00     0.000 C 
BRANCH   9  10
HETATM   10  C   UNL     1     -21.923  -4.315 -11.125  1.00  0.00     0.000 C 
BRANCH  10  11
HETATM   11  C   UNL     1     -22.754  -3.089 -11.483  1.00  0.00    -0.000 C 
BRANCH  11  12
HETATM   12  C   UNL     1     -24.236  -3.335 -11.215  1.00  0.00    -0.005 C 
HETATM   13  C   UNL     1     -24.521  -3.376  -9.724  1.00  0.00     0.005 C 
ENDBRANCH  11  12
ENDBRANCH  10  11
ENDBRANCH   9  10
ENDBRANCH   8   9
ENDBRANCH   7   8
ENDBRANCH   6   7
ENDBRANCH   5   6
ENDBRANCH   4   5
ENDBRANCH   3   4
ENDBRANCH   2   3
ENDBRANCH   1   2
BRANCH   1  14
HETATM   14  C   UNL     1     -20.065  -9.311  -2.261  1.00  0.00     0.219 C 
HETATM   15  O   UNL     1     -18.872  -9.573  -2.417  1.00  0.00    -0.273 OA
HETATM   16  N   UNL     1     -20.971 -10.268  -1.813  1.00  0.00    -0.347 N 
BRANCH  16  17
HETATM   17  C   UNL     1     -22.416 -10.064  -1.625  1.00  0.00     0.157 C 
BRANCH  17  18
HETATM   18  C   UNL     1     -22.904  -9.860  -0.170  1.00  0.00     0.132 C 
HETATM   19  C   UNL     1     -23.082  -8.406   0.255  1.00  0.00     0.041 C 
BRANCH  18  20
HETATM   20  O   UNL     1     -24.165 -10.524  -0.014  1.00  0.00    -0.394 OA
HETATM   21  H   UNL     1     -24.352 -10.619   0.935  1.00  0.00     0.210 HD
ENDBRANCH  18  20
ENDBRANCH  17  18
ENDBRANCH  16  17
BRANCH  16  22
HETATM   22  C   UNL     1     -20.417 -11.577  -1.457  1.00  0.00     0.157 C 
BRANCH  22  23
HETATM   23  C   UNL     1     -19.491 -11.573  -0.222  1.00  0.00     0.132 C 
HETATM   24  C   UNL     1     -20.128 -10.960   1.022  1.00  0.00     0.041 C 
BRANCH  23  25
HETATM   25  O   UNL     1     -19.102 -12.916   0.086  1.00  0.00    -0.394 OA
HETATM   26  H   UNL     1     -18.655 -12.915   0.951  1.00  0.00     0.210 HD
ENDBRANCH  23  25
ENDBRANCH  22  23
ENDBRANCH  16  22
ENDBRANCH   1  14
TORSDOF 18
ENDMDL
MODEL 6
REMARK VINA RESULT:      -5.4     16.272     17.814
REMARK  18 active torsions:
REMARK  status: ('A' for Active; 'I' for Inactive)
REMARK    1  A    between atoms: C_2  and  C_3 
REMARK    2  A    between atoms: C_3  and  C_4 
REMARK    3  A    between atoms: C_4  and  C_5 
REMARK    4  A    between atoms: C_5  and  C_6 
REMARK    5  A    between atoms: C_6  and  C_7 
REMARK    6  A    between atoms: C_7  and  C_8 
REMARK    7  A    between atoms: C_8  and  C_9 
REMARK    8  A    between atoms: C_9  and  C_10 
REMARK    9  A    between atoms: C_10  and  C_11 
REMARK   10  A    between atoms: C_11  and  C_12 
REMARK   11  A    between atoms: C_12  and  C_13 
REMARK   12  A    between atoms: C_13  and  C_14 
REMARK       I    between atoms: C_14  and  N_16 
REMARK   13  A    between atoms: N_16  and  C_17 
REMARK   14  A    between atoms: N_16  and  C_21 
REMARK   15  A    between atoms: C_17  and  C_18 
REMARK   16  A    between atoms: C_18  and  O_20 
REMARK   17  A    between atoms: C_21  and  C_22 
REMARK   18  A    between atoms: C_22  and  O_24 
ROOT
HETATM    1  C   UNL     1     -18.410   9.143   2.481  1.00  0.00     0.103 C 
ENDROOT
BRANCH   1   2
HETATM    2  C   UNL     1     -19.741   9.871   2.644  1.00  0.00     0.009 C 
BRANCH   2   3
HETATM    3  C   UNL     1     -20.894   8.865   2.590  1.00  0.00     0.000 C 
BRANCH   3   4
HETATM    4  C   UNL     1     -22.247   9.456   2.971  1.00  0.00     0.000 C 
BRANCH   4   5
HETATM    5  C   UNL     1     -23.305   9.273   1.888  1.00  0.00     0.000 C 
BRANCH   5   6
HETATM    6  C   UNL     1     -22.708   8.566   0.677  1.00  0.00     0.000 C 
BRANCH   6   7
HETATM    7  C   UNL     1     -23.801   7.964  -0.198  1.00  0.00     0.000 C 
BRANCH   7   8
HETATM    8  C   UNL     1     -23.206   6.903  -1.116  1.00  0.00     0.000 C 
BRANCH   8   9
HETATM    9  C   UNL     1     -24.009   6.780  -2.404  1.00  0.00     0.000 C 
BRANCH   9  10
HETATM   10  C   UNL     1     -23.709   7.952  -3.333  1.00  0.00     0.000 C 
BRANCH  10  11
HETATM   11  C   UNL     1     -22.209   8.085  -3.568  1.00  0.00    -0.000 C 
BRANCH  11  12
HETATM   12  C   UNL     1     -21.758   9.536  -3.427  1.00  0.00    -0.005 C 
HETATM   13  C   UNL     1     -20.424   9.763  -4.116  1.00  0.00     0.005 C 
ENDBRANCH  11  12
ENDBRANCH  10  11
ENDBRANCH   9  10
ENDBRANCH   8   9
ENDBRANCH   7   8
ENDBRANCH   6   7
ENDBRANCH   5   6
ENDBRANCH   4   5
ENDBRANCH   3   4
ENDBRANCH   2   3
ENDBRANCH   1   2
BRANCH   1  14
HETATM   14  C   UNL     1     -17.494   9.365   3.663  1.00  0.00     0.219 C 
HETATM   15  O   UNL     1     -17.845   8.963   4.773  1.00  0.00    -0.273 OA
HETATM   16  N   UNL     1     -16.259   9.973   3.464  1.00  0.00    -0.347 N 
BRANCH  16  17
HETATM   17  C   UNL     1     -15.761  10.513   2.189  1.00  0.00     0.157 C 
BRANCH  17  18
HETATM   18  C   UNL     1     -14.930   9.550   1.305  1.00  0.00     0.132 C 
HETATM   19  C   UNL     1     -13.418   9.692   1.441  1.00  0.00     0.041 C 
BRANCH  18  20
HETATM   20  O   UNL     1     -15.280   8.202   1.643  1.00  0.00    -0.394 OA
HETATM   21  H   UNL     1     -16.179   8.198   2.014  1.00  0.00     0.210 HD
ENDBRANCH  18  20
ENDBRANCH  17  18
ENDBRANCH  16  17
BRANCH  16  22
HETATM   22  C   UNL     1     -15.365  10.034   4.624  1.00  0.00     0.157 C 
BRANCH  22  23
HETATM   23  C   UNL     1     -14.444   8.806   4.796  1.00  0.00     0.132 C 
HETATM   24  C   UNL     1     -13.213   9.078   5.655  1.00  0.00     0.041 C 
BRANCH  23  25
HETATM   25  O   UNL     1     -15.184   7.736   5.393  1.00  0.00    -0.394 OA
HETATM   26  H   UNL     1     -14.695   7.425   6.175  1.00  0.00     0.210 HD
ENDBRANCH  23  25
ENDBRANCH  22  23
ENDBRANCH  16  22
ENDBRANCH   1  14
TORSDOF 18
ENDMDL
MODEL 7
REMARK VINA RESULT:      -5.3      1.799      2.355
REMARK  18 active torsions:
REMARK  status: ('A' for Active; 'I' for Inactive)
REMARK    1  A    between atoms: C_2  and  C_3 
REMARK    2  A    between atoms: C_3  and  C_4 
REMARK    3  A    between atoms: C_4  and  C_5 
REMARK    4  A    between atoms: C_5  and  C_6 
REMARK    5  A    between atoms: C_6  and  C_7 
REMARK    6  A    between atoms: C_7  and  C_8 
REMARK    7  A    between atoms: C_8  and  C_9 
REMARK    8  A    between atoms: C_9  and  C_10 
REMARK    9  A    between atoms: C_10  and  C_11 
REMARK   10  A    between atoms: C_11  and  C_12 
REMARK   11  A    between atoms: C_12  and  C_13 
REMARK   12  A    between atoms: C_13  and  C_14 
REMARK       I    between atoms: C_14  and  N_16 
REMARK   13  A    between atoms: N_16  and  C_17 
REMARK   14  A    between atoms: N_16  and  C_21 
REMARK   15  A    between atoms: C_17  and  C_18 
REMARK   16  A    between atoms: C_18  and  O_20 
REMARK   17  A    between atoms: C_21  and  C_22 
REMARK   18  A    between atoms: C_22  and  O_24 
ROOT
HETATM    1  C   UNL     1     -20.852  -7.355  -3.038  1.00  0.00     0.103 C 
ENDROOT
BRANCH   1   2
HETATM    2  C   UNL     1     -21.940  -6.643  -3.838  1.00  0.00     0.009 C 
BRANCH   2   3
HETATM    3  C   UNL     1     -21.490  -6.473  -5.291  1.00  0.00     0.000 C 
BRANCH   3   4
HETATM    4  C   UNL     1     -20.645  -5.227  -5.533  1.00  0.00     0.000 C 
BRANCH   4   5
HETATM    5  C   UNL     1     -19.920  -5.249  -6.875  1.00  0.00     0.000 C 
BRANCH   5   6
HETATM    6  C   UNL     1     -20.923  -5.191  -8.021  1.00  0.00     0.000 C 
BRANCH   6   7
HETATM    7  C   UNL     1     -22.020  -4.172  -7.736  1.00  0.00     0.000 C 
BRANCH   7   8
HETATM    8  C   UNL     1     -22.538  -3.585  -9.043  1.00  0.00     0.000 C 
BRANCH   8   9
HETATM    9  C   UNL     1     -21.731  -4.094 -10.230  1.00  0.00     0.000 C 
BRANCH   9  10
HETATM   10  C   UNL     1     -21.827  -3.115 -11.397  1.00  0.00     0.000 C 
BRANCH  10  11
HETATM   11  C   UNL     1     -23.283  -2.833 -11.747  1.00  0.00    -0.000 C 
BRANCH  11  12
HETATM   12  C   UNL     1     -23.680  -3.533 -13.043  1.00  0.00    -0.005 C 
HETATM   13  C   UNL     1     -23.035  -2.864 -14.245  1.00  0.00     0.005 C 
ENDBRANCH  11  12
ENDBRANCH  10  11
ENDBRANCH   9  10
ENDBRANCH   8   9
ENDBRANCH   7   8
ENDBRANCH   6   7
ENDBRANCH   5   6
ENDBRANCH   4   5
ENDBRANCH   3   4
ENDBRANCH   2   3
ENDBRANCH   1   2
BRANCH   1  14
HETATM   14  C   UNL     1     -21.414  -8.080  -1.836  1.00  0.00     0.219 C 
HETATM   15  O   UNL     1     -22.121  -7.459  -1.041  1.00  0.00    -0.273 OA
HETATM   16  N   UNL     1     -21.162  -9.439  -1.681  1.00  0.00    -0.347 N 
BRANCH  16  17
HETATM   17  C   UNL     1     -20.311 -10.262  -2.554  1.00  0.00     0.157 C 
BRANCH  17  18
HETATM   18  C   UNL     1     -18.840 -10.455  -2.109  1.00  0.00     0.132 C 
HETATM   19  C   UNL     1     -18.219 -11.793  -2.493  1.00  0.00     0.041 C 
BRANCH  18  20
HETATM   20  O   UNL     1     -18.046  -9.414  -2.693  1.00  0.00    -0.394 OA
HETATM   21  H   UNL     1     -17.843  -8.755  -2.008  1.00  0.00     0.210 HD
ENDBRANCH  18  20
ENDBRANCH  17  18
ENDBRANCH  16  17
BRANCH  16  22
HETATM   22  C   UNL     1     -21.847 -10.109  -0.573  1.00  0.00     0.157 C 
BRANCH  22  23
HETATM   23  C   UNL     1     -22.718 -11.316  -0.984  1.00  0.00     0.132 C 
HETATM   24  C   UNL     1     -23.602 -11.848   0.139  1.00  0.00     0.041 C 
BRANCH  23  25
HETATM   25  O   UNL     1     -23.558 -10.944  -2.082  1.00  0.00    -0.394 OA
HETATM   26  H   UNL     1     -23.592 -11.690  -2.707  1.00  0.00     0.210 HD
ENDBRANCH  23  25
ENDBRANCH  22  23
ENDBRANCH  16  22
ENDBRANCH   1  14
TORSDOF 18
ENDMDL
MODEL 8
REMARK VINA RESULT:      -5.3     13.343     16.642
REMARK  18 active torsions:
REMARK  status: ('A' for Active; 'I' for Inactive)
REMARK    1  A    between atoms: C_2  and  C_3 
REMARK    2  A    between atoms: C_3  and  C_4 
REMARK    3  A    between atoms: C_4  and  C_5 
REMARK    4  A    between atoms: C_5  and  C_6 
REMARK    5  A    between atoms: C_6  and  C_7 
REMARK    6  A    between atoms: C_7  and  C_8 
REMARK    7  A    between atoms: C_8  and  C_9 
REMARK    8  A    between atoms: C_9  and  C_10 
REMARK    9  A    between atoms: C_10  and  C_11 
REMARK   10  A    between atoms: C_11  and  C_12 
REMARK   11  A    between atoms: C_12  and  C_13 
REMARK   12  A    between atoms: C_13  and  C_14 
REMARK       I    between atoms: C_14  and  N_16 
REMARK   13  A    between atoms: N_16  and  C_17 
REMARK   14  A    between atoms: N_16  and  C_21 
REMARK   15  A    between atoms: C_17  and  C_18 
REMARK   16  A    between atoms: C_18  and  O_20 
REMARK   17  A    between atoms: C_21  and  C_22 
REMARK   18  A    between atoms: C_22  and  O_24 
ROOT
HETATM    1  C   UNL     1     -35.117  -2.031 -10.688  1.00  0.00     0.103 C 
ENDROOT
BRANCH   1   2
HETATM    2  C   UNL     1     -33.663  -2.469 -10.527  1.00  0.00     0.009 C 
BRANCH   2   3
HETATM    3  C   UNL     1     -33.532  -3.961 -10.842  1.00  0.00     0.000 C 
BRANCH   3   4
HETATM    4  C   UNL     1     -33.034  -4.252 -12.254  1.00  0.00     0.000 C 
BRANCH   4   5
HETATM    5  C   UNL     1     -34.166  -4.492 -13.248  1.00  0.00     0.000 C 
BRANCH   5   6
HETATM    6  C   UNL     1     -33.911  -3.725 -14.540  1.00  0.00     0.000 C 
BRANCH   6   7
HETATM    7  C   UNL     1     -33.949  -4.657 -15.745  1.00  0.00     0.000 C 
BRANCH   7   8
HETATM    8  C   UNL     1     -32.934  -4.202 -16.786  1.00  0.00     0.000 C 
BRANCH   8   9
HETATM    9  C   UNL     1     -31.556  -4.785 -16.499  1.00  0.00     0.000 C 
BRANCH   9  10
HETATM   10  C   UNL     1     -31.402  -6.143 -17.177  1.00  0.00     0.000 C 
BRANCH  10  11
HETATM   11  C   UNL     1     -29.945  -6.590 -17.170  1.00  0.00    -0.000 C 
BRANCH  11  12
HETATM   12  C   UNL     1     -29.299  -6.328 -15.812  1.00  0.00    -0.005 C 
HETATM   13  C   UNL     1     -27.801  -6.574 -15.865  1.00  0.00     0.005 C 
ENDBRANCH  11  12
ENDBRANCH  10  11
ENDBRANCH   9  10
ENDBRANCH   8   9
ENDBRANCH   7   8
ENDBRANCH   6   7
ENDBRANCH   5   6
ENDBRANCH   4   5
ENDBRANCH   3   4
ENDBRANCH   2   3
ENDBRANCH   1   2
BRANCH   1  14
HETATM   14  C   UNL     1     -35.302  -1.100 -11.864  1.00  0.00     0.219 C 
HETATM   15  O   UNL     1     -34.400  -1.006 -12.698  1.00  0.00    -0.273 OA
HETATM   16  N   UNL     1     -36.501  -0.408 -12.003  1.00  0.00    -0.347 N 
BRANCH  16  17
HETATM   17  C   UNL     1     -37.622  -0.429 -11.052  1.00  0.00     0.157 C 
BRANCH  17  18
HETATM   18  C   UNL     1     -37.537   0.552  -9.857  1.00  0.00     0.132 C 
HETATM   19  C   UNL     1     -37.652  -0.095  -8.481  1.00  0.00     0.041 C 
BRANCH  18  20
HETATM   20  O   UNL     1     -36.281   1.239  -9.918  1.00  0.00    -0.394 OA
HETATM   21  H   UNL     1     -35.586   0.598 -10.144  1.00  0.00     0.210 HD
ENDBRANCH  18  20
ENDBRANCH  17  18
ENDBRANCH  16  17
BRANCH  16  22
HETATM   22  C   UNL     1     -36.667   0.370 -13.234  1.00  0.00     0.157 C 
BRANCH  22  23
HETATM   23  C   UNL     1     -37.331  -0.395 -14.399  1.00  0.00     0.132 C 
HETATM   24  C   UNL     1     -38.067   0.506 -15.386  1.00  0.00     0.041 C 
BRANCH  23  25
HETATM   25  O   UNL     1     -36.333  -1.130 -15.116  1.00  0.00    -0.394 OA
HETATM   26  H   UNL     1     -36.701  -2.002 -15.344  1.00  0.00     0.210 HD
ENDBRANCH  23  25
ENDBRANCH  22  23
ENDBRANCH  16  22
ENDBRANCH   1  14
TORSDOF 18
ENDMDL
MODEL 9
REMARK VINA RESULT:      -5.3      3.119      6.181
REMARK  18 active torsions:
REMARK  status: ('A' for Active; 'I' for Inactive)
REMARK    1  A    between atoms: C_2  and  C_3 
REMARK    2  A    between atoms: C_3  and  C_4 
REMARK    3  A    between atoms: C_4  and  C_5 
REMARK    4  A    between atoms: C_5  and  C_6 
REMARK    5  A    between atoms: C_6  and  C_7 
REMARK    6  A    between atoms: C_7  and  C_8 
REMARK    7  A    between atoms: C_8  and  C_9 
REMARK    8  A    between atoms: C_9  and  C_10 
REMARK    9  A    between atoms: C_10  and  C_11 
REMARK   10  A    between atoms: C_11  and  C_12 
REMARK   11  A    between atoms: C_12  and  C_13 
REMARK   12  A    between atoms: C_13  and  C_14 
REMARK       I    between atoms: C_14  and  N_16 
REMARK   13  A    between atoms: N_16  and  C_17 
REMARK   14  A    between atoms: N_16  and  C_21 
REMARK   15  A    between atoms: C_17  and  C_18 
REMARK   16  A    between atoms: C_18  and  O_20 
REMARK   17  A    between atoms: C_21  and  C_22 
REMARK   18  A    between atoms: C_22  and  O_24 
ROOT
HETATM    1  C   UNL     1     -21.793 -11.712  -0.811  1.00  0.00     0.103 C 
ENDROOT
BRANCH   1   2
HETATM    2  C   UNL     1     -22.770 -11.155   0.221  1.00  0.00     0.009 C 
BRANCH   2   3
HETATM    3  C   UNL     1     -23.430  -9.884  -0.321  1.00  0.00     0.000 C 
BRANCH   3   4
HETATM    4  C   UNL     1     -23.187  -8.648   0.538  1.00  0.00     0.000 C 
BRANCH   4   5
HETATM    5  C   UNL     1     -21.899  -7.914   0.177  1.00  0.00     0.000 C 
BRANCH   5   6
HETATM    6  C   UNL     1     -21.743  -7.830  -1.337  1.00  0.00     0.000 C 
BRANCH   6   7
HETATM    7  C   UNL     1     -22.191  -6.469  -1.857  1.00  0.00     0.000 C 
BRANCH   7   8
HETATM    8  C   UNL     1     -21.314  -6.045  -3.029  1.00  0.00     0.000 C 
BRANCH   8   9
HETATM    9  C   UNL     1     -21.880  -6.550  -4.349  1.00  0.00     0.000 C 
BRANCH   9  10
HETATM   10  C   UNL     1     -20.864  -6.360  -5.471  1.00  0.00     0.000 C 
BRANCH  10  11
HETATM   11  C   UNL     1     -20.362  -4.921  -5.507  1.00  0.00    -0.000 C 
BRANCH  11  12
HETATM   12  C   UNL     1     -20.882  -4.191  -6.743  1.00  0.00    -0.005 C 
HETATM   13  C   UNL     1     -20.252  -4.744  -8.009  1.00  0.00     0.005 C 
ENDBRANCH  11  12
ENDBRANCH  10  11
ENDBRANCH   9  10
ENDBRANCH   8   9
ENDBRANCH   7   8
ENDBRANCH   6   7
ENDBRANCH   5   6
ENDBRANCH   4   5
ENDBRANCH   3   4
ENDBRANCH   2   3
ENDBRANCH   1   2
BRANCH   1  14
HETATM   14  C   UNL     1     -20.374 -11.262  -0.549  1.00  0.00     0.219 C 
HETATM   15  O   UNL     1     -20.057 -10.923   0.592  1.00  0.00    -0.273 OA
HETATM   16  N   UNL     1     -19.449 -11.285  -1.588  1.00  0.00    -0.347 N 
BRANCH  16  17
HETATM   17  C   UNL     1     -19.734 -11.644  -2.986  1.00  0.00     0.157 C 
BRANCH  17  18
HETATM   18  C   UNL     1     -20.314 -10.525  -3.885  1.00  0.00     0.132 C 
HETATM   19  C   UNL     1     -19.284  -9.556  -4.457  1.00  0.00     0.041 C 
BRANCH  18  20
HETATM   20  O   UNL     1     -21.006 -11.134  -4.983  1.00  0.00    -0.394 OA
HETATM   21  H   UNL     1     -21.680 -10.514  -5.309  1.00  0.00     0.210 HD
ENDBRANCH  18  20
ENDBRANCH  17  18
ENDBRANCH  16  17
BRANCH  16  22
HETATM   22  C   UNL     1     -18.063 -10.968  -1.236  1.00  0.00     0.157 C 
BRANCH  22  23
HETATM   23  C   UNL     1     -17.278 -12.128  -0.586  1.00  0.00     0.132 C 
HETATM   24  C   UNL     1     -15.816 -12.198  -1.015  1.00  0.00     0.041 C 
BRANCH  23  25
HETATM   25  O   UNL     1     -17.325 -11.996   0.838  1.00  0.00    -0.394 OA
HETATM   26  H   UNL     1     -17.490 -11.061   1.053  1.00  0.00     0.210 HD
ENDBRANCH  23  25
ENDBRANCH  22  23
ENDBRANCH  16  22
ENDBRANCH   1  14
TORSDOF 18
ENDMDL
