MODEL 1
REMARK VINA RESULT:      -6.4      0.000      0.000
REMARK  21 active torsions:
REMARK  status: ('A' for Active; 'I' for Inactive)
REMARK    1  A    between atoms: C_2  and  C_3 
REMARK    2  A    between atoms: C_3  and  C_4 
REMARK    3  A    between atoms: C_4  and  C_5 
REMARK    4  A    between atoms: C_5  and  C_6 
REMARK    5  A    between atoms: C_6  and  C_7 
REMARK    6  A    between atoms: C_7  and  C_8 
REMARK    7  A    between atoms: C_8  and  C_9 
REMARK    8  A    between atoms: C_9  and  C_10 
REMARK    9  A    between atoms: C_10  and  C_11 
REMARK   10  A    between atoms: C_11  and  C_12 
REMARK   11  A    between atoms: C_12  and  C_13 
REMARK   12  A    between atoms: C_13  and  C_14 
REMARK   13  A    between atoms: C_14  and  C_15 
REMARK   14  A    between atoms: C_15  and  C_16 
REMARK   15  A    between atoms: C_16  and  C_17 
REMARK   16  A    between atoms: C_17  and  C_18 
REMARK   17  A    between atoms: C_18  and  C_19 
REMARK   18  A    between atoms: C_19  and  C_20 
REMARK   19  A    between atoms: C_20  and  C_21 
REMARK   20  A    between atoms: C_21  and  C_22 
REMARK   21  A    between atoms: C_22  and  O_23 
ROOT
HETATM    1  C   UNL     1     -20.469  -5.239  -5.132  1.00  0.00     0.000 C 
ENDROOT
BRANCH   1   2
HETATM    2  C   UNL     1     -21.588  -6.210  -5.461  1.00  0.00     0.000 C 
BRANCH   2   3
HETATM    3  C   UNL     1     -22.245  -6.700  -4.183  1.00  0.00     0.000 C 
BRANCH   3   4
HETATM    4  C   UNL     1     -21.487  -6.179  -2.975  1.00  0.00     0.000 C 
BRANCH   4   5
HETATM    5  C   UNL     1     -22.189  -6.603  -1.697  1.00  0.00     0.000 C 
BRANCH   5   6
HETATM    6  C   UNL     1     -21.370  -7.661  -0.976  1.00  0.00     0.000 C 
BRANCH   6   7
HETATM    7  C   UNL     1     -22.098  -8.122   0.276  1.00  0.00     0.000 C 
BRANCH   7   8
HETATM    8  C   UNL     1     -21.434  -9.368   0.842  1.00  0.00     0.000 C 
BRANCH   8   9
HETATM    9  C   UNL     1     -22.029 -10.621   0.213  1.00  0.00     0.000 C 
BRANCH   9  10
HETATM   10  C   UNL     1     -23.486 -10.385  -0.164  1.00  0.00    -0.000 C 
BRANCH  10  11
HETATM   11  C   UNL     1     -23.906 -11.300  -1.308  1.00  0.00    -0.005 C 
HETATM   12  C   UNL     1     -23.010 -11.098  -2.517  1.00  0.00     0.005 C 
ENDBRANCH  10  11
ENDBRANCH   9  10
ENDBRANCH   8   9
ENDBRANCH   7   8
ENDBRANCH   6   7
ENDBRANCH   5   6
ENDBRANCH   4   5
ENDBRANCH   3   4
ENDBRANCH   2   3
ENDBRANCH   1   2
BRANCH   1  13
HETATM   13  C   UNL     1     -19.785  -4.784  -6.407  1.00  0.00     0.000 C 
BRANCH  13  14
HETATM   14  C   UNL     1     -20.289  -5.595  -7.588  1.00  0.00     0.000 C 
BRANCH  14  15
HETATM   15  C   UNL     1     -20.604  -4.676  -8.755  1.00  0.00     0.000 C 
BRANCH  15  16
HETATM   16  C   UNL     1     -21.663  -3.662  -8.354  1.00  0.00     0.000 C 
BRANCH  16  17
HETATM   17  C   UNL     1     -23.023  -4.330  -8.267  1.00  0.00     0.000 C 
BRANCH  17  18
HETATM   18  C   UNL     1     -24.005  -3.648  -9.208  1.00  0.00     0.000 C 
BRANCH  18  19
HETATM   19  C   UNL     1     -24.097  -4.413 -10.518  1.00  0.00     0.000 C 
BRANCH  19  20
HETATM   20  C   UNL     1     -24.234  -3.445 -11.691  1.00  0.00     0.002 C 
BRANCH  20  21
HETATM   21  C   UNL     1     -22.955  -2.641 -11.887  1.00  0.00     0.026 C 
BRANCH  21  22
HETATM   22  C   UNL     1     -21.771  -3.557 -12.152  1.00  0.00     0.164 C 
BRANCH  22  23
HETATM   23  O   UNL     1     -20.574  -2.929 -11.716  1.00  0.00    -0.401 OA
HETATM   24  H   UNL     1     -20.221  -3.456 -10.980  1.00  0.00     0.209 HD
ENDBRANCH  22  23
ENDBRANCH  21  22
ENDBRANCH  20  21
ENDBRANCH  19  20
ENDBRANCH  18  19
ENDBRANCH  17  18
ENDBRANCH  16  17
ENDBRANCH  15  16
ENDBRANCH  14  15
ENDBRANCH  13  14
ENDBRANCH   1  13
TORSDOF 21
ENDMDL
MODEL 2
REMARK VINA RESULT:      -6.4      1.547      2.300
REMARK  21 active torsions:
REMARK  status: ('A' for Active; 'I' for Inactive)
REMARK    1  A    between atoms: C_2  and  C_3 
REMARK    2  A    between atoms: C_3  and  C_4 
REMARK    3  A    between atoms: C_4  and  C_5 
REMARK    4  A    between atoms: C_5  and  C_6 
REMARK    5  A    between atoms: C_6  and  C_7 
REMARK    6  A    between atoms: C_7  and  C_8 
REMARK    7  A    between atoms: C_8  and  C_9 
REMARK    8  A    between atoms: C_9  and  C_10 
REMARK    9  A    between atoms: C_10  and  C_11 
REMARK   10  A    between atoms: C_11  and  C_12 
REMARK   11  A    between atoms: C_12  and  C_13 
REMARK   12  A    between atoms: C_13  and  C_14 
REMARK   13  A    between atoms: C_14  and  C_15 
REMARK   14  A    between atoms: C_15  and  C_16 
REMARK   15  A    between atoms: C_16  and  C_17 
REMARK   16  A    between atoms: C_17  and  C_18 
REMARK   17  A    between atoms: C_18  and  C_19 
REMARK   18  A    between atoms: C_19  and  C_20 
REMARK   19  A    between atoms: C_20  and  C_21 
REMARK   20  A    between atoms: C_21  and  C_22 
REMARK   21  A    between atoms: C_22  and  O_23 
ROOT
HETATM    1  C   UNL     1     -20.726  -7.059  -5.101  1.00  0.00     0.000 C 
ENDROOT
BRANCH   1   2
HETATM    2  C   UNL     1     -21.866  -6.462  -4.296  1.00  0.00     0.000 C 
BRANCH   2   3
HETATM    3  C   UNL     1     -21.388  -6.111  -2.898  1.00  0.00     0.000 C 
BRANCH   3   4
HETATM    4  C   UNL     1     -21.501  -7.322  -1.989  1.00  0.00     0.000 C 
BRANCH   4   5
HETATM    5  C   UNL     1     -22.422  -7.012  -0.822  1.00  0.00     0.000 C 
BRANCH   5   6
HETATM    6  C   UNL     1     -22.050  -7.866   0.379  1.00  0.00     0.000 C 
BRANCH   6   7
HETATM    7  C   UNL     1     -22.086  -9.339   0.005  1.00  0.00     0.000 C 
BRANCH   7   8
HETATM    8  C   UNL     1     -23.524  -9.829  -0.068  1.00  0.00     0.000 C 
BRANCH   8   9
HETATM    9  C   UNL     1     -23.643 -10.985  -1.052  1.00  0.00     0.000 C 
BRANCH   9  10
HETATM   10  C   UNL     1     -23.742 -12.309  -0.306  1.00  0.00    -0.000 C 
BRANCH  10  11
HETATM   11  C   UNL     1     -22.357 -12.883  -0.030  1.00  0.00    -0.005 C 
HETATM   12  C   UNL     1     -22.228 -13.310   1.420  1.00  0.00     0.005 C 
ENDBRANCH  10  11
ENDBRANCH   9  10
ENDBRANCH   8   9
ENDBRANCH   7   8
ENDBRANCH   6   7
ENDBRANCH   5   6
ENDBRANCH   4   5
ENDBRANCH   3   4
ENDBRANCH   2   3
ENDBRANCH   1   2
BRANCH   1  13
HETATM   13  C   UNL     1     -20.521  -6.266  -6.378  1.00  0.00     0.000 C 
BRANCH  13  14
HETATM   14  C   UNL     1     -20.419  -4.784  -6.061  1.00  0.00     0.000 C 
BRANCH  14  15
HETATM   15  C   UNL     1     -20.288  -3.985  -7.345  1.00  0.00     0.000 C 
BRANCH  15  16
HETATM   16  C   UNL     1     -20.396  -4.904  -8.549  1.00  0.00     0.000 C 
BRANCH  16  17
HETATM   17  C   UNL     1     -21.416  -4.363  -9.534  1.00  0.00     0.000 C 
BRANCH  17  18
HETATM   18  C   UNL     1     -20.739  -4.004 -10.848  1.00  0.00     0.000 C 
BRANCH  18  19
HETATM   19  C   UNL     1     -21.649  -3.119 -11.684  1.00  0.00     0.000 C 
BRANCH  19  20
HETATM   20  C   UNL     1     -23.104  -3.298 -11.258  1.00  0.00     0.002 C 
BRANCH  20  21
HETATM   21  C   UNL     1     -24.052  -2.985 -12.409  1.00  0.00     0.026 C 
BRANCH  21  22
HETATM   22  C   UNL     1     -23.284  -2.755 -13.700  1.00  0.00     0.164 C 
BRANCH  22  23
HETATM   23  O   UNL     1     -23.706  -3.690 -14.682  1.00  0.00    -0.401 OA
HETATM   24  H   UNL     1     -24.194  -3.196 -15.362  1.00  0.00     0.209 HD
ENDBRANCH  22  23
ENDBRANCH  21  22
ENDBRANCH  20  21
ENDBRANCH  19  20
ENDBRANCH  18  19
ENDBRANCH  17  18
ENDBRANCH  16  17
ENDBRANCH  15  16
ENDBRANCH  14  15
ENDBRANCH  13  14
ENDBRANCH   1  13
TORSDOF 21
ENDMDL
MODEL 3
REMARK VINA RESULT:      -6.3      1.557      2.319
REMARK  21 active torsions:
REMARK  status: ('A' for Active; 'I' for Inactive)
REMARK    1  A    between atoms: C_2  and  C_3 
REMARK    2  A    between atoms: C_3  and  C_4 
REMARK    3  A    between atoms: C_4  and  C_5 
REMARK    4  A    between atoms: C_5  and  C_6 
REMARK    5  A    between atoms: C_6  and  C_7 
REMARK    6  A    between atoms: C_7  and  C_8 
REMARK    7  A    between atoms: C_8  and  C_9 
REMARK    8  A    between atoms: C_9  and  C_10 
REMARK    9  A    between atoms: C_10  and  C_11 
REMARK   10  A    between atoms: C_11  and  C_12 
REMARK   11  A    between atoms: C_12  and  C_13 
REMARK   12  A    between atoms: C_13  and  C_14 
REMARK   13  A    between atoms: C_14  and  C_15 
REMARK   14  A    between atoms: C_15  and  C_16 
REMARK   15  A    between atoms: C_16  and  C_17 
REMARK   16  A    between atoms: C_17  and  C_18 
REMARK   17  A    between atoms: C_18  and  C_19 
REMARK   18  A    between atoms: C_19  and  C_20 
REMARK   19  A    between atoms: C_20  and  C_21 
REMARK   20  A    between atoms: C_21  and  C_22 
REMARK   21  A    between atoms: C_22  and  O_23 
ROOT
HETATM    1  C   UNL     1     -22.172  -6.552  -4.809  1.00  0.00     0.000 C 
ENDROOT
BRANCH   1   2
HETATM    2  C   UNL     1     -21.348  -6.122  -3.609  1.00  0.00     0.000 C 
BRANCH   2   3
HETATM    3  C   UNL     1     -21.488  -7.138  -2.490  1.00  0.00     0.000 C 
BRANCH   3   4
HETATM    4  C   UNL     1     -22.307  -6.551  -1.353  1.00  0.00     0.000 C 
BRANCH   4   5
HETATM    5  C   UNL     1     -22.519  -7.596  -0.272  1.00  0.00     0.000 C 
BRANCH   5   6
HETATM    6  C   UNL     1     -21.180  -8.125   0.214  1.00  0.00     0.000 C 
BRANCH   6   7
HETATM    7  C   UNL     1     -21.379  -9.408   1.003  1.00  0.00     0.000 C 
BRANCH   7   8
HETATM    8  C   UNL     1     -20.588 -10.544   0.371  1.00  0.00     0.000 C 
BRANCH   8   9
HETATM    9  C   UNL     1     -21.527 -11.553  -0.274  1.00  0.00     0.000 C 
BRANCH   9  10
HETATM   10  C   UNL     1     -22.951 -11.350   0.228  1.00  0.00    -0.000 C 
BRANCH  10  11
HETATM   11  C   UNL     1     -23.938 -11.326  -0.933  1.00  0.00    -0.005 C 
HETATM   12  C   UNL     1     -23.210 -11.192  -2.259  1.00  0.00     0.005 C 
ENDBRANCH  10  11
ENDBRANCH   9  10
ENDBRANCH   8   9
ENDBRANCH   7   8
ENDBRANCH   6   7
ENDBRANCH   5   6
ENDBRANCH   4   5
ENDBRANCH   3   4
ENDBRANCH   2   3
ENDBRANCH   1   2
BRANCH   1  13
HETATM   13  C   UNL     1     -21.302  -6.590  -6.051  1.00  0.00     0.000 C 
BRANCH  13  14
HETATM   14  C   UNL     1     -20.945  -5.177  -6.479  1.00  0.00     0.000 C 
BRANCH  14  15
HETATM   15  C   UNL     1     -19.736  -5.202  -7.399  1.00  0.00     0.000 C 
BRANCH  15  16
HETATM   16  C   UNL     1     -19.785  -4.028  -8.362  1.00  0.00     0.000 C 
BRANCH  16  17
HETATM   17  C   UNL     1     -20.418  -4.452  -9.675  1.00  0.00     0.000 C 
BRANCH  17  18
HETATM   18  C   UNL     1     -20.609  -3.245 -10.581  1.00  0.00     0.000 C 
BRANCH  18  19
HETATM   19  C   UNL     1     -21.796  -3.461 -11.504  1.00  0.00     0.000 C 
BRANCH  19  20
HETATM   20  C   UNL     1     -22.583  -4.698 -11.078  1.00  0.00     0.002 C 
BRANCH  20  21
HETATM   21  C   UNL     1     -24.068  -4.384 -10.954  1.00  0.00     0.026 C 
BRANCH  21  22
HETATM   22  C   UNL     1     -24.317  -3.352  -9.866  1.00  0.00     0.164 C 
BRANCH  22  23
HETATM   23  O   UNL     1     -25.713  -3.130  -9.727  1.00  0.00    -0.401 OA
HETATM   24  H   UNL     1     -25.907  -2.257 -10.106  1.00  0.00     0.209 HD
ENDBRANCH  22  23
ENDBRANCH  21  22
ENDBRANCH  20  21
ENDBRANCH  19  20
ENDBRANCH  18  19
ENDBRANCH  17  18
ENDBRANCH  16  17
ENDBRANCH  15  16
ENDBRANCH  14  15
ENDBRANCH  13  14
ENDBRANCH   1  13
TORSDOF 21
ENDMDL
MODEL 4
REMARK VINA RESULT:      -6.2      1.715      2.245
REMARK  21 active torsions:
REMARK  status: ('A' for Active; 'I' for Inactive)
REMARK    1  A    between atoms: C_2  and  C_3 
REMARK    2  A    between atoms: C_3  and  C_4 
REMARK    3  A    between atoms: C_4  and  C_5 
REMARK    4  A    between atoms: C_5  and  C_6 
REMARK    5  A    between atoms: C_6  and  C_7 
REMARK    6  A    between atoms: C_7  and  C_8 
REMARK    7  A    between atoms: C_8  and  C_9 
REMARK    8  A    between atoms: C_9  and  C_10 
REMARK    9  A    between atoms: C_10  and  C_11 
REMARK   10  A    between atoms: C_11  and  C_12 
REMARK   11  A    between atoms: C_12  and  C_13 
REMARK   12  A    between atoms: C_13  and  C_14 
REMARK   13  A    between atoms: C_14  and  C_15 
REMARK   14  A    between atoms: C_15  and  C_16 
REMARK   15  A    between atoms: C_16  and  C_17 
REMARK   16  A    between atoms: C_17  and  C_18 
REMARK   17  A    between atoms: C_18  and  C_19 
REMARK   18  A    between atoms: C_19  and  C_20 
REMARK   19  A    between atoms: C_20  and  C_21 
REMARK   20  A    between atoms: C_21  and  C_22 
REMARK   21  A    between atoms: C_22  and  O_23 
ROOT
HETATM    1  C   UNL     1     -20.617  -5.372  -5.922  1.00  0.00     0.000 C 
ENDROOT
BRANCH   1   2
HETATM    2  C   UNL     1     -20.332  -6.837  -5.640  1.00  0.00     0.000 C 
BRANCH   2   3
HETATM    3  C   UNL     1     -21.622  -7.564  -5.310  1.00  0.00     0.000 C 
BRANCH   3   4
HETATM    4  C   UNL     1     -21.543  -8.159  -3.914  1.00  0.00     0.000 C 
BRANCH   4   5
HETATM    5  C   UNL     1     -21.117  -7.096  -2.919  1.00  0.00     0.000 C 
BRANCH   5   6
HETATM    6  C   UNL     1     -22.321  -6.605  -2.131  1.00  0.00     0.000 C 
BRANCH   6   7
HETATM    7  C   UNL     1     -22.095  -6.819  -0.643  1.00  0.00     0.000 C 
BRANCH   7   8
HETATM    8  C   UNL     1     -22.746  -8.118  -0.193  1.00  0.00     0.000 C 
BRANCH   8   9
HETATM    9  C   UNL     1     -21.688  -9.181   0.070  1.00  0.00     0.000 C 
BRANCH   9  10
HETATM   10  C   UNL     1     -22.321 -10.566   0.101  1.00  0.00    -0.000 C 
BRANCH  10  11
HETATM   11  C   UNL     1     -23.525 -10.634  -0.831  1.00  0.00    -0.005 C 
HETATM   12  C   UNL     1     -24.056 -12.053  -0.925  1.00  0.00     0.005 C 
ENDBRANCH  10  11
ENDBRANCH   9  10
ENDBRANCH   8   9
ENDBRANCH   7   8
ENDBRANCH   6   7
ENDBRANCH   5   6
ENDBRANCH   4   5
ENDBRANCH   3   4
ENDBRANCH   2   3
ENDBRANCH   1   2
BRANCH   1  13
HETATM   13  C   UNL     1     -21.927  -5.234  -6.674  1.00  0.00     0.000 C 
BRANCH  13  14
HETATM   14  C   UNL     1     -21.663  -5.143  -8.168  1.00  0.00     0.000 C 
BRANCH  14  15
HETATM   15  C   UNL     1     -20.254  -4.634  -8.417  1.00  0.00     0.000 C 
BRANCH  15  16
HETATM   16  C   UNL     1     -20.238  -3.702  -9.617  1.00  0.00     0.000 C 
BRANCH  16  17
HETATM   17  C   UNL     1     -21.018  -4.312 -10.767  1.00  0.00     0.000 C 
BRANCH  17  18
HETATM   18  C   UNL     1     -21.745  -3.225 -11.544  1.00  0.00     0.000 C 
BRANCH  18  19
HETATM   19  C   UNL     1     -23.237  -3.513 -11.582  1.00  0.00     0.000 C 
BRANCH  19  20
HETATM   20  C   UNL     1     -23.920  -2.643 -12.635  1.00  0.00     0.002 C 
BRANCH  20  21
HETATM   21  C   UNL     1     -23.146  -2.667 -13.947  1.00  0.00     0.026 C 
BRANCH  21  22
HETATM   22  C   UNL     1     -23.583  -1.531 -14.858  1.00  0.00     0.164 C 
BRANCH  22  23
HETATM   23  O   UNL     1     -24.760  -0.928 -14.342  1.00  0.00    -0.401 OA
HETATM   24  H   UNL     1     -25.380  -1.643 -14.121  1.00  0.00     0.209 HD
ENDBRANCH  22  23
ENDBRANCH  21  22
ENDBRANCH  20  21
ENDBRANCH  19  20
ENDBRANCH  18  19
ENDBRANCH  17  18
ENDBRANCH  16  17
ENDBRANCH  15  16
ENDBRANCH  14  15
ENDBRANCH  13  14
ENDBRANCH   1  13
TORSDOF 21
ENDMDL
MODEL 5
REMARK VINA RESULT:      -6.1      3.628     10.377
REMARK  21 active torsions:
REMARK  status: ('A' for Active; 'I' for Inactive)
REMARK    1  A    between atoms: C_2  and  C_3 
REMARK    2  A    between atoms: C_3  and  C_4 
REMARK    3  A    between atoms: C_4  and  C_5 
REMARK    4  A    between atoms: C_5  and  C_6 
REMARK    5  A    between atoms: C_6  and  C_7 
REMARK    6  A    between atoms: C_7  and  C_8 
REMARK    7  A    between atoms: C_8  and  C_9 
REMARK    8  A    between atoms: C_9  and  C_10 
REMARK    9  A    between atoms: C_10  and  C_11 
REMARK   10  A    between atoms: C_11  and  C_12 
REMARK   11  A    between atoms: C_12  and  C_13 
REMARK   12  A    between atoms: C_13  and  C_14 
REMARK   13  A    between atoms: C_14  and  C_15 
REMARK   14  A    between atoms: C_15  and  C_16 
REMARK   15  A    between atoms: C_16  and  C_17 
REMARK   16  A    between atoms: C_17  and  C_18 
REMARK   17  A    between atoms: C_18  and  C_19 
REMARK   18  A    between atoms: C_19  and  C_20 
REMARK   19  A    between atoms: C_20  and  C_21 
REMARK   20  A    between atoms: C_21  and  C_22 
REMARK   21  A    between atoms: C_22  and  O_23 
ROOT
HETATM    1  C   UNL     1     -21.229  -7.965  -5.011  1.00  0.00     0.000 C 
ENDROOT
BRANCH   1   2
HETATM    2  C   UNL     1     -21.255  -6.710  -5.865  1.00  0.00     0.000 C 
BRANCH   2   3
HETATM    3  C   UNL     1     -19.905  -6.503  -6.527  1.00  0.00     0.000 C 
BRANCH   3   4
HETATM    4  C   UNL     1     -19.581  -5.020  -6.597  1.00  0.00     0.000 C 
BRANCH   4   5
HETATM    5  C   UNL     1     -20.828  -4.202  -6.317  1.00  0.00     0.000 C 
BRANCH   5   6
HETATM    6  C   UNL     1     -21.273  -3.479  -7.578  1.00  0.00     0.000 C 
BRANCH   6   7
HETATM    7  C   UNL     1     -22.570  -4.079  -8.094  1.00  0.00     0.000 C 
BRANCH   7   8
HETATM    8  C   UNL     1     -22.367  -4.656  -9.487  1.00  0.00     0.000 C 
BRANCH   8   9
HETATM    9  C   UNL     1     -20.972  -4.328 -10.001  1.00  0.00     0.000 C 
BRANCH   9  10
HETATM   10  C   UNL     1     -21.049  -3.319 -11.140  1.00  0.00    -0.000 C 
BRANCH  10  11
HETATM   11  C   UNL     1     -22.102  -3.731 -12.161  1.00  0.00    -0.005 C 
HETATM   12  C   UNL     1     -23.047  -2.580 -12.456  1.00  0.00     0.005 C 
ENDBRANCH  10  11
ENDBRANCH   9  10
ENDBRANCH   8   9
ENDBRANCH   7   8
ENDBRANCH   6   7
ENDBRANCH   5   6
ENDBRANCH   4   5
ENDBRANCH   3   4
ENDBRANCH   2   3
ENDBRANCH   1   2
BRANCH   1  13
HETATM   13  C   UNL     1     -20.838  -7.617  -3.587  1.00  0.00     0.000 C 
BRANCH  13  14
HETATM   14  C   UNL     1     -21.289  -6.206  -3.253  1.00  0.00     0.000 C 
BRANCH  14  15
HETATM   15  C   UNL     1     -22.206  -6.225  -2.042  1.00  0.00     0.000 C 
BRANCH  15  16
HETATM   16  C   UNL     1     -21.863  -7.401  -1.143  1.00  0.00     0.000 C 
BRANCH  16  17
HETATM   17  C   UNL     1     -22.851  -7.491   0.005  1.00  0.00     0.000 C 
BRANCH  17  18
HETATM   18  C   UNL     1     -22.612  -8.762   0.806  1.00  0.00     0.000 C 
BRANCH  18  19
HETATM   19  C   UNL     1     -21.160  -8.840   1.248  1.00  0.00     0.000 C 
BRANCH  19  20
HETATM   20  C   UNL     1     -20.627 -10.260   1.078  1.00  0.00     0.002 C 
BRANCH  20  21
HETATM   21  C   UNL     1     -21.439 -11.026   0.041  1.00  0.00     0.026 C 
BRANCH  21  22
HETATM   22  C   UNL     1     -21.752 -12.433   0.524  1.00  0.00     0.164 C 
BRANCH  22  23
HETATM   23  O   UNL     1     -23.116 -12.516   0.910  1.00  0.00    -0.401 OA
HETATM   24  H   UNL     1     -23.370 -11.648   1.266  1.00  0.00     0.209 HD
ENDBRANCH  22  23
ENDBRANCH  21  22
ENDBRANCH  20  21
ENDBRANCH  19  20
ENDBRANCH  18  19
ENDBRANCH  17  18
ENDBRANCH  16  17
ENDBRANCH  15  16
ENDBRANCH  14  15
ENDBRANCH  13  14
ENDBRANCH   1  13
TORSDOF 21
ENDMDL
MODEL 6
REMARK VINA RESULT:      -6.1      2.747      9.656
REMARK  21 active torsions:
REMARK  status: ('A' for Active; 'I' for Inactive)
REMARK    1  A    between atoms: C_2  and  C_3 
REMARK    2  A    between atoms: C_3  and  C_4 
REMARK    3  A    between atoms: C_4  and  C_5 
REMARK    4  A    between atoms: C_5  and  C_6 
REMARK    5  A    between atoms: C_6  and  C_7 
REMARK    6  A    between atoms: C_7  and  C_8 
REMARK    7  A    between atoms: C_8  and  C_9 
REMARK    8  A    between atoms: C_9  and  C_10 
REMARK    9  A    between atoms: C_10  and  C_11 
REMARK   10  A    between atoms: C_11  and  C_12 
REMARK   11  A    between atoms: C_12  and  C_13 
REMARK   12  A    between atoms: C_13  and  C_14 
REMARK   13  A    between atoms: C_14  and  C_15 
REMARK   14  A    between atoms: C_15  and  C_16 
REMARK   15  A    between atoms: C_16  and  C_17 
REMARK   16  A    between atoms: C_17  and  C_18 
REMARK   17  A    between atoms: C_18  and  C_19 
REMARK   18  A    between atoms: C_19  and  C_20 
REMARK   19  A    between atoms: C_20  and  C_21 
REMARK   20  A    between atoms: C_21  and  C_22 
REMARK   21  A    between atoms: C_22  and  O_23 
ROOT
HETATM    1  C   UNL     1     -21.653  -7.834  -4.314  1.00  0.00     0.000 C 
ENDROOT
BRANCH   1   2
HETATM    2  C   UNL     1     -21.699  -6.559  -5.137  1.00  0.00     0.000 C 
BRANCH   2   3
HETATM    3  C   UNL     1     -20.326  -6.261  -5.711  1.00  0.00     0.000 C 
BRANCH   3   4
HETATM    4  C   UNL     1     -20.230  -4.795  -6.098  1.00  0.00     0.000 C 
BRANCH   4   5
HETATM    5  C   UNL     1     -21.189  -4.493  -7.235  1.00  0.00     0.000 C 
BRANCH   5   6
HETATM    6  C   UNL     1     -20.468  -3.745  -8.344  1.00  0.00     0.000 C 
BRANCH   6   7
HETATM    7  C   UNL     1     -20.387  -4.610  -9.591  1.00  0.00     0.000 C 
BRANCH   7   8
HETATM    8  C   UNL     1     -20.574  -3.756 -10.837  1.00  0.00     0.000 C 
BRANCH   8   9
HETATM    9  C   UNL     1     -22.040  -3.386 -11.014  1.00  0.00     0.000 C 
BRANCH   9  10
HETATM   10  C   UNL     1     -22.876  -4.633 -11.272  1.00  0.00    -0.000 C 
BRANCH  10  11
HETATM   11  C   UNL     1     -23.992  -4.762 -10.243  1.00  0.00    -0.005 C 
HETATM   12  C   UNL     1     -24.259  -3.430  -9.566  1.00  0.00     0.005 C 
ENDBRANCH  10  11
ENDBRANCH   9  10
ENDBRANCH   8   9
ENDBRANCH   7   8
ENDBRANCH   6   7
ENDBRANCH   5   6
ENDBRANCH   4   5
ENDBRANCH   3   4
ENDBRANCH   2   3
ENDBRANCH   1   2
BRANCH   1  13
HETATM   13  C   UNL     1     -21.204  -7.523  -2.899  1.00  0.00     0.000 C 
BRANCH  13  14
HETATM   14  C   UNL     1     -22.164  -6.541  -2.251  1.00  0.00     0.000 C 
BRANCH  14  15
HETATM   15  C   UNL     1     -22.296  -6.842  -0.768  1.00  0.00     0.000 C 
BRANCH  15  16
HETATM   16  C   UNL     1     -21.899  -8.281  -0.488  1.00  0.00     0.000 C 
BRANCH  16  17
HETATM   17  C   UNL     1     -23.099  -9.071   0.002  1.00  0.00     0.000 C 
BRANCH  17  18
HETATM   18  C   UNL     1     -22.876 -10.559  -0.222  1.00  0.00     0.000 C 
BRANCH  18  19
HETATM   19  C   UNL     1     -23.734 -11.052  -1.375  1.00  0.00     0.000 C 
BRANCH  19  20
HETATM   20  C   UNL     1     -22.895 -11.186  -2.644  1.00  0.00     0.002 C 
BRANCH  20  21
HETATM   21  C   UNL     1     -21.528 -11.781  -2.333  1.00  0.00     0.026 C 
BRANCH  21  22
HETATM   22  C   UNL     1     -20.480 -11.283  -3.315  1.00  0.00     0.164 C 
BRANCH  22  23
HETATM   23  O   UNL     1     -19.454 -10.595  -2.615  1.00  0.00    -0.401 OA
HETATM   24  H   UNL     1     -19.357 -11.023  -1.748  1.00  0.00     0.209 HD
ENDBRANCH  22  23
ENDBRANCH  21  22
ENDBRANCH  20  21
ENDBRANCH  19  20
ENDBRANCH  18  19
ENDBRANCH  17  18
ENDBRANCH  16  17
ENDBRANCH  15  16
ENDBRANCH  14  15
ENDBRANCH  13  14
ENDBRANCH   1  13
TORSDOF 21
ENDMDL
MODEL 7
REMARK VINA RESULT:      -5.9      1.672      3.830
REMARK  21 active torsions:
REMARK  status: ('A' for Active; 'I' for Inactive)
REMARK    1  A    between atoms: C_2  and  C_3 
REMARK    2  A    between atoms: C_3  and  C_4 
REMARK    3  A    between atoms: C_4  and  C_5 
REMARK    4  A    between atoms: C_5  and  C_6 
REMARK    5  A    between atoms: C_6  and  C_7 
REMARK    6  A    between atoms: C_7  and  C_8 
REMARK    7  A    between atoms: C_8  and  C_9 
REMARK    8  A    between atoms: C_9  and  C_10 
REMARK    9  A    between atoms: C_10  and  C_11 
REMARK   10  A    between atoms: C_11  and  C_12 
REMARK   11  A    between atoms: C_12  and  C_13 
REMARK   12  A    between atoms: C_13  and  C_14 
REMARK   13  A    between atoms: C_14  and  C_15 
REMARK   14  A    between atoms: C_15  and  C_16 
REMARK   15  A    between atoms: C_16  and  C_17 
REMARK   16  A    between atoms: C_17  and  C_18 
REMARK   17  A    between atoms: C_18  and  C_19 
REMARK   18  A    between atoms: C_19  and  C_20 
REMARK   19  A    between atoms: C_20  and  C_21 
REMARK   20  A    between atoms: C_21  and  C_22 
REMARK   21  A    between atoms: C_22  and  O_23 
ROOT
HETATM    1  C   UNL     1     -20.910  -9.007  -4.270  1.00  0.00     0.000 C 
ENDROOT
BRANCH   1   2
HETATM    2  C   UNL     1     -21.024 -10.423  -4.805  1.00  0.00     0.000 C 
BRANCH   2   3
HETATM    3  C   UNL     1     -22.256 -11.099  -4.233  1.00  0.00     0.000 C 
BRANCH   3   4
HETATM    4  C   UNL     1     -22.423 -10.726  -2.770  1.00  0.00     0.000 C 
BRANCH   4   5
HETATM    5  C   UNL     1     -23.493 -11.593  -2.131  1.00  0.00     0.000 C 
BRANCH   5   6
HETATM    6  C   UNL     1     -23.322 -11.608  -0.621  1.00  0.00     0.000 C 
BRANCH   6   7
HETATM    7  C   UNL     1     -23.050 -10.202  -0.111  1.00  0.00     0.000 C 
BRANCH   7   8
HETATM    8  C   UNL     1     -21.673 -10.131   0.531  1.00  0.00     0.000 C 
BRANCH   8   9
HETATM    9  C   UNL     1     -21.304  -8.687   0.843  1.00  0.00     0.000 C 
BRANCH   9  10
HETATM   10  C   UNL     1     -22.185  -7.731   0.049  1.00  0.00    -0.000 C 
BRANCH  10  11
HETATM   11  C   UNL     1     -21.497  -7.301  -1.240  1.00  0.00    -0.005 C 
HETATM   12  C   UNL     1     -22.269  -6.182  -1.916  1.00  0.00     0.005 C 
ENDBRANCH  10  11
ENDBRANCH   9  10
ENDBRANCH   8   9
ENDBRANCH   7   8
ENDBRANCH   6   7
ENDBRANCH   5   6
ENDBRANCH   4   5
ENDBRANCH   3   4
ENDBRANCH   2   3
ENDBRANCH   1   2
BRANCH   1  13
HETATM   13  C   UNL     1     -21.589  -8.037  -5.219  1.00  0.00     0.000 C 
BRANCH  13  14
HETATM   14  C   UNL     1     -20.575  -7.047  -5.765  1.00  0.00     0.000 C 
BRANCH  14  15
HETATM   15  C   UNL     1     -20.712  -5.714  -5.050  1.00  0.00     0.000 C 
BRANCH  15  16
HETATM   16  C   UNL     1     -20.063  -4.610  -5.868  1.00  0.00     0.000 C 
BRANCH  16  17
HETATM   17  C   UNL     1     -19.655  -5.137  -7.231  1.00  0.00     0.000 C 
BRANCH  17  18
HETATM   18  C   UNL     1     -19.607  -4.001  -8.241  1.00  0.00     0.000 C 
BRANCH  18  19
HETATM   19  C   UNL     1     -20.461  -4.337  -9.453  1.00  0.00     0.000 C 
BRANCH  19  20
HETATM   20  C   UNL     1     -21.912  -4.565  -9.035  1.00  0.00     0.002 C 
BRANCH  20  21
HETATM   21  C   UNL     1     -22.872  -3.920 -10.026  1.00  0.00     0.026 C 
BRANCH  21  22
HETATM   22  C   UNL     1     -24.083  -4.808 -10.267  1.00  0.00     0.164 C 
BRANCH  22  23
HETATM   23  O   UNL     1     -25.221  -4.249  -9.628  1.00  0.00    -0.401 OA
HETATM   24  H   UNL     1     -25.853  -4.973  -9.476  1.00  0.00     0.209 HD
ENDBRANCH  22  23
ENDBRANCH  21  22
ENDBRANCH  20  21
ENDBRANCH  19  20
ENDBRANCH  18  19
ENDBRANCH  17  18
ENDBRANCH  16  17
ENDBRANCH  15  16
ENDBRANCH  14  15
ENDBRANCH  13  14
ENDBRANCH   1  13
TORSDOF 21
ENDMDL
MODEL 8
REMARK VINA RESULT:      -5.9      1.809      4.274
REMARK  21 active torsions:
REMARK  status: ('A' for Active; 'I' for Inactive)
REMARK    1  A    between atoms: C_2  and  C_3 
REMARK    2  A    between atoms: C_3  and  C_4 
REMARK    3  A    between atoms: C_4  and  C_5 
REMARK    4  A    between atoms: C_5  and  C_6 
REMARK    5  A    between atoms: C_6  and  C_7 
REMARK    6  A    between atoms: C_7  and  C_8 
REMARK    7  A    between atoms: C_8  and  C_9 
REMARK    8  A    between atoms: C_9  and  C_10 
REMARK    9  A    between atoms: C_10  and  C_11 
REMARK   10  A    between atoms: C_11  and  C_12 
REMARK   11  A    between atoms: C_12  and  C_13 
REMARK   12  A    between atoms: C_13  and  C_14 
REMARK   13  A    between atoms: C_14  and  C_15 
REMARK   14  A    between atoms: C_15  and  C_16 
REMARK   15  A    between atoms: C_16  and  C_17 
REMARK   16  A    between atoms: C_17  and  C_18 
REMARK   17  A    between atoms: C_18  and  C_19 
REMARK   18  A    between atoms: C_19  and  C_20 
REMARK   19  A    between atoms: C_20  and  C_21 
REMARK   20  A    between atoms: C_21  and  C_22 
REMARK   21  A    between atoms: C_22  and  O_23 
ROOT
HETATM    1  C   UNL     1     -22.318  -7.323  -1.349  1.00  0.00     0.000 C 
ENDROOT
BRANCH   1   2
HETATM    2  C   UNL     1     -21.166  -7.888  -0.537  1.00  0.00     0.000 C 
BRANCH   2   3
HETATM    3  C   UNL     1     -21.692  -8.858   0.506  1.00  0.00     0.000 C 
BRANCH   3   4
HETATM    4  C   UNL     1     -23.052  -9.388   0.086  1.00  0.00     0.000 C 
BRANCH   4   5
HETATM    5  C   UNL     1     -22.927 -10.824  -0.389  1.00  0.00     0.000 C 
BRANCH   5   6
HETATM    6  C   UNL     1     -23.688 -11.012  -1.692  1.00  0.00     0.000 C 
BRANCH   6   7
HETATM    7  C   UNL     1     -22.760 -11.555  -2.766  1.00  0.00     0.000 C 
BRANCH   7   8
HETATM    8  C   UNL     1     -22.188 -10.415  -3.595  1.00  0.00     0.000 C 
BRANCH   8   9
HETATM    9  C   UNL     1     -20.715 -10.657  -3.890  1.00  0.00     0.000 C 
BRANCH   9  10
HETATM   10  C   UNL     1     -19.892  -9.425  -3.533  1.00  0.00    -0.000 C 
BRANCH  10  11
HETATM   11  C   UNL     1     -18.705  -9.799  -2.654  1.00  0.00    -0.005 C 
HETATM   12  C   UNL     1     -19.071 -10.925  -1.703  1.00  0.00     0.005 C 
ENDBRANCH  10  11
ENDBRANCH   9  10
ENDBRANCH   8   9
ENDBRANCH   7   8
ENDBRANCH   6   7
ENDBRANCH   5   6
ENDBRANCH   4   5
ENDBRANCH   3   4
ENDBRANCH   2   3
ENDBRANCH   1   2
BRANCH   1  13
HETATM   13  C   UNL     1     -21.817  -6.219  -2.261  1.00  0.00     0.000 C 
BRANCH  13  14
HETATM   14  C   UNL     1     -22.033  -6.605  -3.714  1.00  0.00     0.000 C 
BRANCH  14  15
HETATM   15  C   UNL     1     -21.005  -5.916  -4.595  1.00  0.00     0.000 C 
BRANCH  15  16
HETATM   16  C   UNL     1     -21.292  -6.202  -6.059  1.00  0.00     0.000 C 
BRANCH  16  17
HETATM   17  C   UNL     1     -20.425  -5.326  -6.945  1.00  0.00     0.000 C 
BRANCH  17  18
HETATM   18  C   UNL     1     -21.277  -4.272  -7.637  1.00  0.00     0.000 C 
BRANCH  18  19
HETATM   19  C   UNL     1     -20.990  -4.260  -9.129  1.00  0.00     0.000 C 
BRANCH  19  20
HETATM   20  C   UNL     1     -22.228  -3.817  -9.905  1.00  0.00     0.002 C 
BRANCH  20  21
HETATM   21  C   UNL     1     -23.455  -3.783  -9.002  1.00  0.00     0.026 C 
BRANCH  21  22
HETATM   22  C   UNL     1     -24.706  -3.443  -9.795  1.00  0.00     0.164 C 
BRANCH  22  23
HETATM   23  O   UNL     1     -24.344  -2.990 -11.091  1.00  0.00    -0.401 OA
HETATM   24  H   UNL     1     -23.692  -3.617 -11.446  1.00  0.00     0.209 HD
ENDBRANCH  22  23
ENDBRANCH  21  22
ENDBRANCH  20  21
ENDBRANCH  19  20
ENDBRANCH  18  19
ENDBRANCH  17  18
ENDBRANCH  16  17
ENDBRANCH  15  16
ENDBRANCH  14  15
ENDBRANCH  13  14
ENDBRANCH   1  13
TORSDOF 21
ENDMDL
MODEL 9
REMARK VINA RESULT:      -5.8      1.458      3.340
REMARK  21 active torsions:
REMARK  status: ('A' for Active; 'I' for Inactive)
REMARK    1  A    between atoms: C_2  and  C_3 
REMARK    2  A    between atoms: C_3  and  C_4 
REMARK    3  A    between atoms: C_4  and  C_5 
REMARK    4  A    between atoms: C_5  and  C_6 
REMARK    5  A    between atoms: C_6  and  C_7 
REMARK    6  A    between atoms: C_7  and  C_8 
REMARK    7  A    between atoms: C_8  and  C_9 
REMARK    8  A    between atoms: C_9  and  C_10 
REMARK    9  A    between atoms: C_10  and  C_11 
REMARK   10  A    between atoms: C_11  and  C_12 
REMARK   11  A    between atoms: C_12  and  C_13 
REMARK   12  A    between atoms: C_13  and  C_14 
REMARK   13  A    between atoms: C_14  and  C_15 
REMARK   14  A    between atoms: C_15  and  C_16 
REMARK   15  A    between atoms: C_16  and  C_17 
REMARK   16  A    between atoms: C_17  and  C_18 
REMARK   17  A    between atoms: C_18  and  C_19 
REMARK   18  A    between atoms: C_19  and  C_20 
REMARK   19  A    between atoms: C_20  and  C_21 
REMARK   20  A    between atoms: C_21  and  C_22 
REMARK   21  A    between atoms: C_22  and  O_23 
ROOT
HETATM    1  C   UNL     1     -21.856  -8.145  -4.277  1.00  0.00     0.000 C 
ENDROOT
BRANCH   1   2
HETATM    2  C   UNL     1     -20.780  -8.837  -5.093  1.00  0.00     0.000 C 
BRANCH   2   3
HETATM    3  C   UNL     1     -21.031 -10.334  -5.124  1.00  0.00     0.000 C 
BRANCH   3   4
HETATM    4  C   UNL     1     -21.160 -10.870  -3.708  1.00  0.00     0.000 C 
BRANCH   4   5
HETATM    5  C   UNL     1     -22.196 -11.978  -3.664  1.00  0.00     0.000 C 
BRANCH   5   6
HETATM    6  C   UNL     1     -22.694 -12.172  -2.241  1.00  0.00     0.000 C 
BRANCH   6   7
HETATM    7  C   UNL     1     -23.511 -10.968  -1.804  1.00  0.00     0.000 C 
BRANCH   7   8
HETATM    8  C   UNL     1     -23.420 -10.788  -0.296  1.00  0.00     0.000 C 
BRANCH   8   9
HETATM    9  C   UNL     1     -21.965 -10.704   0.144  1.00  0.00     0.000 C 
BRANCH   9  10
HETATM   10  C   UNL     1     -21.363  -9.367  -0.269  1.00  0.00    -0.000 C 
BRANCH  10  11
HETATM   11  C   UNL     1     -22.114  -8.209   0.377  1.00  0.00    -0.005 C 
HETATM   12  C   UNL     1     -22.482  -7.160  -0.658  1.00  0.00     0.005 C 
ENDBRANCH  10  11
ENDBRANCH   9  10
ENDBRANCH   8   9
ENDBRANCH   7   8
ENDBRANCH   6   7
ENDBRANCH   5   6
ENDBRANCH   4   5
ENDBRANCH   3   4
ENDBRANCH   2   3
ENDBRANCH   1   2
BRANCH   1  13
HETATM   13  C   UNL     1     -21.662  -6.641  -4.329  1.00  0.00     0.000 C 
BRANCH  13  14
HETATM   14  C   UNL     1     -21.177  -6.226  -5.707  1.00  0.00     0.000 C 
BRANCH  14  15
HETATM   15  C   UNL     1     -20.204  -5.066  -5.589  1.00  0.00     0.000 C 
BRANCH  15  16
HETATM   16  C   UNL     1     -20.190  -4.259  -6.876  1.00  0.00     0.000 C 
BRANCH  16  17
HETATM   17  C   UNL     1     -20.637  -5.122  -8.042  1.00  0.00     0.000 C 
BRANCH  17  18
HETATM   18  C   UNL     1     -21.129  -4.247  -9.185  1.00  0.00     0.000 C 
BRANCH  18  19
HETATM   19  C   UNL     1     -20.326  -4.526 -10.445  1.00  0.00     0.000 C 
BRANCH  19  20
HETATM   20  C   UNL     1     -21.148  -4.184 -11.686  1.00  0.00     0.002 C 
BRANCH  20  21
HETATM   21  C   UNL     1     -22.388  -3.380 -11.315  1.00  0.00     0.026 C 
BRANCH  21  22
HETATM   22  C   UNL     1     -23.038  -2.780 -12.550  1.00  0.00     0.164 C 
BRANCH  22  23
HETATM   23  O   UNL     1     -22.325  -3.182 -13.711  1.00  0.00    -0.401 OA
HETATM   24  H   UNL     1     -22.957  -3.198 -14.449  1.00  0.00     0.209 HD
ENDBRANCH  22  23
ENDBRANCH  21  22
ENDBRANCH  20  21
ENDBRANCH  19  20
ENDBRANCH  18  19
ENDBRANCH  17  18
ENDBRANCH  16  17
ENDBRANCH  15  16
ENDBRANCH  14  15
ENDBRANCH  13  14
ENDBRANCH   1  13
TORSDOF 21
ENDMDL
