MODEL 1
REMARK VINA RESULT:      -4.5      0.000      0.000
REMARK  5 active torsions:
REMARK  status: ('A' for Active; 'I' for Inactive)
REMARK    1  A    between atoms: C_2  and  C_3 
REMARK    2  A    between atoms: C_2  and  C_5 
REMARK    3  A    between atoms: C_2  and  N_7 
REMARK    4  A    between atoms: C_3  and  O_4 
REMARK    5  A    between atoms: C_5  and  O_6 
ROOT
HETATM    1  C   UNL     1     -29.405 -16.587 -21.368  1.00  0.00     0.053 C 
HETATM    2  C   UNL     1     -29.982 -15.180 -21.128  1.00  0.00     0.193 C 
ENDROOT
BRANCH   2   3
HETATM    3  C   UNL     1     -31.377 -15.052 -21.787  1.00  0.00     0.207 C 
BRANCH   3   4
HETATM    4  O   UNL     1     -31.553 -13.751 -22.357  1.00  0.00    -0.398 OA
HETATM    5  H   UNL     1     -31.999 -13.901 -23.201  1.00  0.00     0.209 HD
ENDBRANCH   3   4
ENDBRANCH   2   3
BRANCH   2   6
HETATM    6  C   UNL     1     -30.097 -14.911 -19.602  1.00  0.00     0.207 C 
BRANCH   6   7
HETATM    7  O   UNL     1     -30.725 -13.669 -19.302  1.00  0.00    -0.398 OA
HETATM    8  H   UNL     1     -31.350 -13.486 -20.033  1.00  0.00     0.209 HD
ENDBRANCH   6   7
ENDBRANCH   2   6
BRANCH   2   9
HETATM    9  N   UNL     1     -29.053 -14.195 -21.745  1.00  0.00     0.091 N 
HETATM   10  H   UNL     1     -28.470 -14.690 -22.429  1.00  0.00     0.314 HD
HETATM   11  H   UNL     1     -28.399 -13.869 -21.041  1.00  0.00     0.314 HD
ENDBRANCH   2   9
TORSDOF 5
ENDMDL
MODEL 2
REMARK VINA RESULT:      -4.0     15.804     16.249
REMARK  5 active torsions:
REMARK  status: ('A' for Active; 'I' for Inactive)
REMARK    1  A    between atoms: C_2  and  C_3 
REMARK    2  A    between atoms: C_2  and  C_5 
REMARK    3  A    between atoms: C_2  and  N_7 
REMARK    4  A    between atoms: C_3  and  O_4 
REMARK    5  A    between atoms: C_5  and  O_6 
ROOT
HETATM    1  C   UNL     1     -21.614  -3.603 -11.455  1.00  0.00     0.053 C 
HETATM    2  C   UNL     1     -23.140  -3.685 -11.637  1.00  0.00     0.193 C 
ENDROOT
BRANCH   2   3
HETATM    3  C   UNL     1     -23.855  -3.474 -10.280  1.00  0.00     0.207 C 
BRANCH   3   4
HETATM    4  O   UNL     1     -25.253  -3.238 -10.471  1.00  0.00    -0.398 OA
HETATM    5  H   UNL     1     -25.510  -2.640  -9.756  1.00  0.00     0.209 HD
ENDBRANCH   3   4
ENDBRANCH   2   3
BRANCH   2   6
HETATM    6  C   UNL     1     -23.609  -2.606 -12.650  1.00  0.00     0.207 C 
BRANCH   6   7
HETATM    7  O   UNL     1     -24.911  -2.857 -13.169  1.00  0.00    -0.398 OA
HETATM    8  H   UNL     1     -24.990  -2.336 -13.995  1.00  0.00     0.209 HD
ENDBRANCH   6   7
ENDBRANCH   2   6
BRANCH   2   9
HETATM    9  N   UNL     1     -23.466  -5.042 -12.158  1.00  0.00     0.091 N 
HETATM   10  H   UNL     1     -24.223  -4.947 -12.843  1.00  0.00     0.314 HD
HETATM   11  H   UNL     1     -23.866  -5.598 -11.410  1.00  0.00     0.314 HD
ENDBRANCH   2   9
TORSDOF 5
ENDMDL
MODEL 3
REMARK VINA RESULT:      -3.9     15.604     16.386
REMARK  5 active torsions:
REMARK  status: ('A' for Active; 'I' for Inactive)
REMARK    1  A    between atoms: C_2  and  C_3 
REMARK    2  A    between atoms: C_2  and  C_5 
REMARK    3  A    between atoms: C_2  and  N_7 
REMARK    4  A    between atoms: C_3  and  O_4 
REMARK    5  A    between atoms: C_5  and  O_6 
ROOT
HETATM    1  C   UNL     1     -23.647  -5.134 -11.512  1.00  0.00     0.053 C 
HETATM    2  C   UNL     1     -23.826  -3.612 -11.366  1.00  0.00     0.193 C 
ENDROOT
BRANCH   2   3
HETATM    3  C   UNL     1     -24.248  -3.257  -9.920  1.00  0.00     0.207 C 
BRANCH   3   4
HETATM    4  O   UNL     1     -25.673  -3.216  -9.800  1.00  0.00    -0.398 OA
HETATM    5  H   UNL     1     -25.864  -2.405  -9.309  1.00  0.00     0.209 HD
ENDBRANCH   3   4
ENDBRANCH   2   3
BRANCH   2   6
HETATM    6  C   UNL     1     -22.497  -2.889 -11.717  1.00  0.00     0.207 C 
BRANCH   6   7
HETATM    7  O   UNL     1     -21.850  -3.437 -12.860  1.00  0.00    -0.398 OA
HETATM    8  H   UNL     1     -21.029  -2.920 -12.993  1.00  0.00     0.209 HD
ENDBRANCH   6   7
ENDBRANCH   2   6
BRANCH   2   9
HETATM    9  N   UNL     1     -24.896  -3.186 -12.310  1.00  0.00     0.091 N 
HETATM   10  H   UNL     1     -25.112  -2.200 -12.124  1.00  0.00     0.314 HD
HETATM   11  H   UNL     1     -25.753  -3.681 -12.086  1.00  0.00     0.314 HD
ENDBRANCH   2   9
TORSDOF 5
ENDMDL
MODEL 4
REMARK VINA RESULT:      -3.9     15.868     16.318
REMARK  5 active torsions:
REMARK  status: ('A' for Active; 'I' for Inactive)
REMARK    1  A    between atoms: C_2  and  C_3 
REMARK    2  A    between atoms: C_2  and  C_5 
REMARK    3  A    between atoms: C_2  and  N_7 
REMARK    4  A    between atoms: C_3  and  O_4 
REMARK    5  A    between atoms: C_5  and  O_6 
ROOT
HETATM    1  C   UNL     1     -24.671  -2.987 -12.493  1.00  0.00     0.053 C 
HETATM    2  C   UNL     1     -23.654  -3.645 -11.543  1.00  0.00     0.193 C 
ENDROOT
BRANCH   2   3
HETATM    3  C   UNL     1     -22.258  -2.999 -11.719  1.00  0.00     0.207 C 
BRANCH   3   4
HETATM    4  O   UNL     1     -21.537  -3.627 -12.783  1.00  0.00    -0.398 OA
HETATM    5  H   UNL     1     -22.000  -3.369 -13.591  1.00  0.00     0.209 HD
ENDBRANCH   3   4
ENDBRANCH   2   3
BRANCH   2   6
HETATM    6  C   UNL     1     -24.126  -3.481 -10.072  1.00  0.00     0.207 C 
BRANCH   6   7
HETATM    7  O   UNL     1     -25.535  -3.319  -9.954  1.00  0.00    -0.398 OA
HETATM    8  H   UNL     1     -25.910  -4.213  -9.816  1.00  0.00     0.209 HD
ENDBRANCH   6   7
ENDBRANCH   2   6
BRANCH   2   9
HETATM    9  N   UNL     1     -23.575  -5.091 -11.889  1.00  0.00     0.091 N 
HETATM   10  H   UNL     1     -22.593  -5.380 -11.831  1.00  0.00     0.314 HD
HETATM   11  H   UNL     1     -23.819  -5.212 -12.866  1.00  0.00     0.314 HD
ENDBRANCH   2   9
TORSDOF 5
ENDMDL
MODEL 5
REMARK VINA RESULT:      -3.9      1.663      2.696
REMARK  5 active torsions:
REMARK  status: ('A' for Active; 'I' for Inactive)
REMARK    1  A    between atoms: C_2  and  C_3 
REMARK    2  A    between atoms: C_2  and  C_5 
REMARK    3  A    between atoms: C_2  and  N_7 
REMARK    4  A    between atoms: C_3  and  O_4 
REMARK    5  A    between atoms: C_5  and  O_6 
ROOT
HETATM    1  C   UNL     1     -30.440 -14.460 -19.694  1.00  0.00     0.053 C 
HETATM    2  C   UNL     1     -30.160 -15.098 -21.067  1.00  0.00     0.193 C 
ENDROOT
BRANCH   2   3
HETATM    3  C   UNL     1     -29.730 -16.575 -20.895  1.00  0.00     0.207 C 
BRANCH   3   4
HETATM    4  O   UNL     1     -28.668 -16.905 -21.795  1.00  0.00    -0.398 OA
HETATM    5  H   UNL     1     -28.912 -16.498 -22.637  1.00  0.00     0.209 HD
ENDBRANCH   3   4
ENDBRANCH   2   3
BRANCH   2   6
HETATM    6  C   UNL     1     -31.433 -15.022 -21.953  1.00  0.00     0.207 C 
BRANCH   6   7
HETATM    7  O   UNL     1     -31.709 -13.705 -22.419  1.00  0.00    -0.398 OA
HETATM    8  H   UNL     1     -32.663 -13.679 -22.639  1.00  0.00     0.209 HD
ENDBRANCH   6   7
ENDBRANCH   2   6
BRANCH   2   9
HETATM    9  N   UNL     1     -29.053 -14.335 -21.707  1.00  0.00     0.091 N 
HETATM   10  H   UNL     1     -29.364 -14.044 -22.640  1.00  0.00     0.314 HD
HETATM   11  H   UNL     1     -28.275 -14.961 -21.881  1.00  0.00     0.314 HD
ENDBRANCH   2   9
TORSDOF 5
ENDMDL
MODEL 6
REMARK VINA RESULT:      -3.9     15.968     16.490
REMARK  5 active torsions:
REMARK  status: ('A' for Active; 'I' for Inactive)
REMARK    1  A    between atoms: C_2  and  C_3 
REMARK    2  A    between atoms: C_2  and  C_5 
REMARK    3  A    between atoms: C_2  and  N_7 
REMARK    4  A    between atoms: C_3  and  O_4 
REMARK    5  A    between atoms: C_5  and  O_6 
ROOT
HETATM    1  C   UNL     1     -24.221  -3.304 -10.692  1.00  0.00     0.053 C 
HETATM    2  C   UNL     1     -23.122  -3.683 -11.702  1.00  0.00     0.193 C 
ENDROOT
BRANCH   2   3
HETATM    3  C   UNL     1     -23.098  -2.673 -12.874  1.00  0.00     0.207 C 
BRANCH   3   4
HETATM    4  O   UNL     1     -22.345  -3.188 -13.976  1.00  0.00    -0.398 OA
HETATM    5  H   UNL     1     -21.437  -3.263 -13.651  1.00  0.00     0.209 HD
ENDBRANCH   3   4
ENDBRANCH   2   3
BRANCH   2   6
HETATM    6  C   UNL     1     -21.739  -3.698 -10.995  1.00  0.00     0.207 C 
BRANCH   6   7
HETATM    7  O   UNL     1     -20.779  -2.863 -11.632  1.00  0.00    -0.398 OA
HETATM    8  H   UNL     1     -20.896  -1.965 -11.260  1.00  0.00     0.209 HD
ENDBRANCH   6   7
ENDBRANCH   2   6
BRANCH   2   9
HETATM    9  N   UNL     1     -23.435  -5.041 -12.227  1.00  0.00     0.091 N 
HETATM   10  H   UNL     1     -22.807  -5.230 -13.016  1.00  0.00     0.314 HD
HETATM   11  H   UNL     1     -24.363  -5.033 -12.636  1.00  0.00     0.314 HD
ENDBRANCH   2   9
TORSDOF 5
ENDMDL
MODEL 7
REMARK VINA RESULT:      -3.9     15.686     16.418
REMARK  5 active torsions:
REMARK  status: ('A' for Active; 'I' for Inactive)
REMARK    1  A    between atoms: C_2  and  C_3 
REMARK    2  A    between atoms: C_2  and  C_5 
REMARK    3  A    between atoms: C_2  and  N_7 
REMARK    4  A    between atoms: C_3  and  O_4 
REMARK    5  A    between atoms: C_5  and  O_6 
ROOT
HETATM    1  C   UNL     1     -23.771  -5.169 -10.977  1.00  0.00     0.053 C 
HETATM    2  C   UNL     1     -23.549  -3.672 -10.692  1.00  0.00     0.193 C 
ENDROOT
BRANCH   2   3
HETATM    3  C   UNL     1     -23.834  -2.835 -11.963  1.00  0.00     0.207 C 
BRANCH   3   4
HETATM    4  O   UNL     1     -25.070  -3.230 -12.567  1.00  0.00    -0.398 OA
HETATM    5  H   UNL     1     -24.888  -3.271 -13.515  1.00  0.00     0.209 HD
ENDBRANCH   3   4
ENDBRANCH   2   3
BRANCH   2   6
HETATM    6  C   UNL     1     -24.484  -3.211  -9.540  1.00  0.00     0.207 C 
BRANCH   6   7
HETATM    7  O   UNL     1     -25.865  -3.346  -9.856  1.00  0.00    -0.398 OA
HETATM    8  H   UNL     1     -25.940  -3.267 -10.829  1.00  0.00     0.209 HD
ENDBRANCH   6   7
ENDBRANCH   2   6
BRANCH   2   9
HETATM    9  N   UNL     1     -22.127  -3.490 -10.291  1.00  0.00     0.091 N 
HETATM   10  H   UNL     1     -22.093  -3.389  -9.271  1.00  0.00     0.314 HD
HETATM   11  H   UNL     1     -21.793  -2.600 -10.647  1.00  0.00     0.314 HD
ENDBRANCH   2   9
TORSDOF 5
ENDMDL
MODEL 8
REMARK VINA RESULT:      -3.8     15.739     16.309
REMARK  5 active torsions:
REMARK  status: ('A' for Active; 'I' for Inactive)
REMARK    1  A    between atoms: C_2  and  C_3 
REMARK    2  A    between atoms: C_2  and  C_5 
REMARK    3  A    between atoms: C_2  and  N_7 
REMARK    4  A    between atoms: C_3  and  O_4 
REMARK    5  A    between atoms: C_5  and  O_6 
ROOT
HETATM    1  C   UNL     1     -23.553  -5.063 -11.532  1.00  0.00     0.053 C 
HETATM    2  C   UNL     1     -23.660  -3.527 -11.530  1.00  0.00     0.193 C 
ENDROOT
BRANCH   2   3
HETATM    3  C   UNL     1     -22.287  -2.893 -11.862  1.00  0.00     0.207 C 
BRANCH   3   4
HETATM    4  O   UNL     1     -21.689  -3.533 -12.992  1.00  0.00    -0.398 OA
HETATM    5  H   UNL     1     -21.512  -4.440 -12.708  1.00  0.00     0.209 HD
ENDBRANCH   3   4
ENDBRANCH   2   3
BRANCH   2   6
HETATM    6  C   UNL     1     -24.714  -3.071 -12.575  1.00  0.00     0.207 C 
BRANCH   6   7
HETATM    7  O   UNL     1     -24.234  -2.048 -13.441  1.00  0.00    -0.398 OA
HETATM    8  H   UNL     1     -23.478  -2.429 -13.933  1.00  0.00     0.209 HD
ENDBRANCH   6   7
ENDBRANCH   2   6
BRANCH   2   9
HETATM    9  N   UNL     1     -24.083  -3.101 -10.168  1.00  0.00     0.091 N 
HETATM   10  H   UNL     1     -25.108  -3.086 -10.142  1.00  0.00     0.314 HD
HETATM   11  H   UNL     1     -23.810  -2.136 -10.022  1.00  0.00     0.314 HD
ENDBRANCH   2   9
TORSDOF 5
ENDMDL
MODEL 9
REMARK VINA RESULT:      -3.8      2.356      2.923
REMARK  5 active torsions:
REMARK  status: ('A' for Active; 'I' for Inactive)
REMARK    1  A    between atoms: C_2  and  C_3 
REMARK    2  A    between atoms: C_2  and  C_5 
REMARK    3  A    between atoms: C_2  and  N_7 
REMARK    4  A    between atoms: C_3  and  O_4 
REMARK    5  A    between atoms: C_5  and  O_6 
ROOT
HETATM    1  C   UNL     1     -28.717 -15.184 -18.001  1.00  0.00     0.053 C 
HETATM    2  C   UNL     1     -29.618 -14.850 -19.204  1.00  0.00     0.193 C 
ENDROOT
BRANCH   2   3
HETATM    3  C   UNL     1     -29.073 -13.612 -19.956  1.00  0.00     0.207 C 
BRANCH   3   4
HETATM    4  O   UNL     1     -29.013 -13.856 -21.364  1.00  0.00    -0.398 OA
HETATM    5  H   UNL     1     -29.927 -13.794 -21.672  1.00  0.00     0.209 HD
ENDBRANCH   3   4
ENDBRANCH   2   3
BRANCH   2   6
HETATM    6  C   UNL     1     -29.680 -16.064 -20.170  1.00  0.00     0.207 C 
BRANCH   6   7
HETATM    7  O   UNL     1     -30.974 -16.265 -20.730  1.00  0.00    -0.398 OA
HETATM    8  H   UNL     1     -30.860 -16.874 -21.488  1.00  0.00     0.209 HD
ENDBRANCH   6   7
ENDBRANCH   2   6
BRANCH   2   9
HETATM    9  N   UNL     1     -30.980 -14.549 -18.683  1.00  0.00     0.091 N 
HETATM   10  H   UNL     1     -31.070 -14.979 -17.756  1.00  0.00     0.314 HD
HETATM   11  H   UNL     1     -31.667 -15.028 -19.255  1.00  0.00     0.314 HD
ENDBRANCH   2   9
TORSDOF 5
ENDMDL
