MODEL 1
REMARK VINA RESULT:      -6.0      0.000      0.000
REMARK  17 active torsions:
REMARK  status: ('A' for Active; 'I' for Inactive)
REMARK    1  A    between atoms: C_2  and  C_4 
REMARK    2  A    between atoms: C_2  and  C_6 
REMARK    3  A    between atoms: C_4  and  O_5 
REMARK    4  A    between atoms: C_6  and  C_7 
REMARK    5  A    between atoms: C_6  and  O_15 
REMARK       I    between atoms: C_7  and  N_9 
REMARK    6  A    between atoms: N_9  and  C_10 
REMARK    7  A    between atoms: C_10  and  C_11 
REMARK    8  A    between atoms: C_11  and  C_12 
REMARK    9  A    between atoms: C_20  and  C_22 
REMARK   10  A    between atoms: C_20  and  C_24 
REMARK   11  A    between atoms: C_22  and  O_23 
REMARK   12  A    between atoms: C_24  and  C_25 
REMARK   13  A    between atoms: C_24  and  O_33 
REMARK       I    between atoms: C_25  and  N_27 
REMARK   14  A    between atoms: N_27  and  C_28 
REMARK   15  A    between atoms: C_28  and  C_29 
REMARK   16  A    between atoms: C_29  and  C_30 
REMARK   17  A    between atoms: C_30  and  O_32 
ROOT
HETATM    1  C   UNL     1     -22.077  -3.238 -10.577  1.00  0.00     0.219 C 
ENDROOT
BRANCH   1   2
HETATM    2  C   UNL     1     -23.557  -3.764 -10.688  1.00  0.00     0.008 C 
HETATM    3  C   UNL     1     -23.681  -5.303 -10.848  1.00  0.00     0.020 C 
HETATM    4  C   UNL     1     -24.186  -3.134 -11.963  1.00  0.00     0.020 C 
BRANCH   2   5
HETATM    5  C   UNL     1     -24.389  -3.277  -9.479  1.00  0.00     0.175 C 
BRANCH   5   6
HETATM    6  O   UNL     1     -25.784  -3.263  -9.772  1.00  0.00    -0.400 OA
HETATM    7  H   UNL     1     -26.059  -2.333  -9.920  1.00  0.00     0.209 HD
ENDBRANCH   5   6
ENDBRANCH   2   5
ENDBRANCH   1   2
BRANCH   1   8
HETATM    8  C   UNL     1     -20.951  -4.241 -10.151  1.00  0.00     0.247 C 
HETATM    9  O   UNL     1     -20.206  -4.746 -10.999  1.00  0.00    -0.271 OA
HETATM   10  N   UNL     1     -20.666  -4.414  -8.811  1.00  0.00    -0.358 N 
HETATM   11  H   UNL     1     -20.018  -5.171  -8.608  1.00  0.00     0.162 HD
BRANCH  10  12
HETATM   12  C   UNL     1     -21.294  -3.838  -7.614  1.00  0.00     0.133 C 
BRANCH  12  13
HETATM   13  C   UNL     1     -20.949  -4.474  -6.289  1.00  0.00     0.133 C 
BRANCH  13  14
HETATM   14  C   UNL     1     -21.501  -5.870  -6.066  1.00  0.00     0.174 C 
HETATM   15  O   UNL     1     -21.002  -6.746  -6.817  1.00  0.00    -0.648 OA
HETATM   16  O   UNL     1     -22.406  -5.981  -5.171  1.00  0.00    -0.648 OA
ENDBRANCH  13  14
ENDBRANCH  12  13
ENDBRANCH  10  12
ENDBRANCH   1   8
BRANCH   1  17
HETATM   17  O   UNL     1     -21.698  -2.702 -11.863  1.00  0.00    -0.385 OA
HETATM   18  H   UNL     1     -20.735  -2.816 -11.945  1.00  0.00     0.210 HD
ENDBRANCH   1  17
TORSDOF 17
ENDMDL
MODEL 2
REMARK VINA RESULT:      -5.8      2.364      5.683
REMARK  17 active torsions:
REMARK  status: ('A' for Active; 'I' for Inactive)
REMARK    1  A    between atoms: C_2  and  C_4 
REMARK    2  A    between atoms: C_2  and  C_6 
REMARK    3  A    between atoms: C_4  and  O_5 
REMARK    4  A    between atoms: C_6  and  C_7 
REMARK    5  A    between atoms: C_6  and  O_15 
REMARK       I    between atoms: C_7  and  N_9 
REMARK    6  A    between atoms: N_9  and  C_10 
REMARK    7  A    between atoms: C_10  and  C_11 
REMARK    8  A    between atoms: C_11  and  C_12 
REMARK    9  A    between atoms: C_20  and  C_22 
REMARK   10  A    between atoms: C_20  and  C_24 
REMARK   11  A    between atoms: C_22  and  O_23 
REMARK   12  A    between atoms: C_24  and  C_25 
REMARK   13  A    between atoms: C_24  and  O_33 
REMARK       I    between atoms: C_25  and  N_27 
REMARK   14  A    between atoms: N_27  and  C_28 
REMARK   15  A    between atoms: C_28  and  C_29 
REMARK   16  A    between atoms: C_29  and  C_30 
REMARK   17  A    between atoms: C_30  and  O_32 
ROOT
HETATM    1  C   UNL     1     -22.180  -4.107  -9.589  1.00  0.00     0.219 C 
ENDROOT
BRANCH   1   2
HETATM    2  C   UNL     1     -21.804  -4.386  -8.086  1.00  0.00     0.008 C 
HETATM    3  C   UNL     1     -20.843  -3.340  -7.460  1.00  0.00     0.020 C 
HETATM    4  C   UNL     1     -21.068  -5.754  -8.031  1.00  0.00     0.020 C 
BRANCH   2   5
HETATM    5  C   UNL     1     -23.086  -4.522  -7.232  1.00  0.00     0.175 C 
BRANCH   5   6
HETATM    6  O   UNL     1     -24.200  -3.884  -7.850  1.00  0.00    -0.400 OA
HETATM    7  H   UNL     1     -23.917  -3.554  -8.730  1.00  0.00     0.209 HD
ENDBRANCH   5   6
ENDBRANCH   2   5
ENDBRANCH   1   2
BRANCH   1   8
HETATM    8  C   UNL     1     -21.029  -4.001 -10.647  1.00  0.00     0.247 C 
HETATM    9  O   UNL     1     -20.011  -4.695 -10.540  1.00  0.00    -0.271 OA
HETATM   10  N   UNL     1     -21.233  -3.273 -11.803  1.00  0.00    -0.358 N 
HETATM   11  H   UNL     1     -20.403  -3.144 -12.376  1.00  0.00     0.162 HD
BRANCH  10  12
HETATM   12  C   UNL     1     -22.386  -2.477 -12.244  1.00  0.00     0.133 C 
BRANCH  12  13
HETATM   13  C   UNL     1     -23.251  -3.073 -13.330  1.00  0.00     0.133 C 
BRANCH  13  14
HETATM   14  C   UNL     1     -23.268  -2.316 -14.645  1.00  0.00     0.174 C 
HETATM   15  O   UNL     1     -22.394  -2.693 -15.466  1.00  0.00    -0.648 OA
HETATM   16  O   UNL     1     -24.142  -1.389 -14.750  1.00  0.00    -0.648 OA
ENDBRANCH  13  14
ENDBRANCH  12  13
ENDBRANCH  10  12
ENDBRANCH   1   8
BRANCH   1  17
HETATM   17  O   UNL     1     -23.059  -5.165 -10.031  1.00  0.00    -0.385 OA
HETATM   18  H   UNL     1     -23.820  -4.740 -10.464  1.00  0.00     0.210 HD
ENDBRANCH   1  17
TORSDOF 17
ENDMDL
MODEL 3
REMARK VINA RESULT:      -5.5      2.007      3.107
REMARK  17 active torsions:
REMARK  status: ('A' for Active; 'I' for Inactive)
REMARK    1  A    between atoms: C_2  and  C_4 
REMARK    2  A    between atoms: C_2  and  C_6 
REMARK    3  A    between atoms: C_4  and  O_5 
REMARK    4  A    between atoms: C_6  and  C_7 
REMARK    5  A    between atoms: C_6  and  O_15 
REMARK       I    between atoms: C_7  and  N_9 
REMARK    6  A    between atoms: N_9  and  C_10 
REMARK    7  A    between atoms: C_10  and  C_11 
REMARK    8  A    between atoms: C_11  and  C_12 
REMARK    9  A    between atoms: C_20  and  C_22 
REMARK   10  A    between atoms: C_20  and  C_24 
REMARK   11  A    between atoms: C_22  and  O_23 
REMARK   12  A    between atoms: C_24  and  C_25 
REMARK   13  A    between atoms: C_24  and  O_33 
REMARK       I    between atoms: C_25  and  N_27 
REMARK   14  A    between atoms: N_27  and  C_28 
REMARK   15  A    between atoms: C_28  and  C_29 
REMARK   16  A    between atoms: C_29  and  C_30 
REMARK   17  A    between atoms: C_30  and  O_32 
ROOT
HETATM    1  C   UNL     1     -23.327  -4.600 -10.535  1.00  0.00     0.219 C 
ENDROOT
BRANCH   1   2
HETATM    2  C   UNL     1     -22.605  -3.806 -11.687  1.00  0.00     0.008 C 
HETATM    3  C   UNL     1     -21.130  -4.227 -11.931  1.00  0.00     0.020 C 
HETATM    4  C   UNL     1     -22.576  -2.306 -11.279  1.00  0.00     0.020 C 
BRANCH   2   5
HETATM    5  C   UNL     1     -23.420  -3.908 -12.997  1.00  0.00     0.175 C 
BRANCH   5   6
HETATM    6  O   UNL     1     -24.657  -3.206 -12.903  1.00  0.00    -0.400 OA
HETATM    7  H   UNL     1     -24.465  -2.275 -12.660  1.00  0.00     0.209 HD
ENDBRANCH   5   6
ENDBRANCH   2   5
ENDBRANCH   1   2
BRANCH   1   8
HETATM    8  C   UNL     1     -24.276  -3.820  -9.562  1.00  0.00     0.247 C 
HETATM    9  O   UNL     1     -25.351  -3.361  -9.966  1.00  0.00    -0.271 OA
HETATM   10  N   UNL     1     -24.003  -3.810  -8.209  1.00  0.00    -0.358 N 
HETATM   11  H   UNL     1     -24.586  -3.180  -7.661  1.00  0.00     0.162 HD
BRANCH  10  12
HETATM   12  C   UNL     1     -22.884  -4.387  -7.452  1.00  0.00     0.133 C 
BRANCH  12  13
HETATM   13  C   UNL     1     -21.598  -3.595  -7.425  1.00  0.00     0.133 C 
BRANCH  13  14
HETATM   14  C   UNL     1     -20.341  -4.392  -7.126  1.00  0.00     0.174 C 
HETATM   15  O   UNL     1     -20.100  -4.528  -5.900  1.00  0.00    -0.648 OA
HETATM   16  O   UNL     1     -19.681  -4.804  -8.139  1.00  0.00    -0.648 OA
ENDBRANCH  13  14
ENDBRANCH  12  13
ENDBRANCH  10  12
ENDBRANCH   1   8
BRANCH   1  17
HETATM   17  O   UNL     1     -24.116  -5.645 -11.143  1.00  0.00    -0.385 OA
HETATM   18  H   UNL     1     -24.895  -5.218 -11.540  1.00  0.00     0.210 HD
ENDBRANCH   1  17
TORSDOF 17
ENDMDL
MODEL 4
REMARK VINA RESULT:      -5.3      2.213      5.121
REMARK  17 active torsions:
REMARK  status: ('A' for Active; 'I' for Inactive)
REMARK    1  A    between atoms: C_2  and  C_4 
REMARK    2  A    between atoms: C_2  and  C_6 
REMARK    3  A    between atoms: C_4  and  O_5 
REMARK    4  A    between atoms: C_6  and  C_7 
REMARK    5  A    between atoms: C_6  and  O_15 
REMARK       I    between atoms: C_7  and  N_9 
REMARK    6  A    between atoms: N_9  and  C_10 
REMARK    7  A    between atoms: C_10  and  C_11 
REMARK    8  A    between atoms: C_11  and  C_12 
REMARK    9  A    between atoms: C_20  and  C_22 
REMARK   10  A    between atoms: C_20  and  C_24 
REMARK   11  A    between atoms: C_22  and  O_23 
REMARK   12  A    between atoms: C_24  and  C_25 
REMARK   13  A    between atoms: C_24  and  O_33 
REMARK       I    between atoms: C_25  and  N_27 
REMARK   14  A    between atoms: N_27  and  C_28 
REMARK   15  A    between atoms: C_28  and  C_29 
REMARK   16  A    between atoms: C_29  and  C_30 
REMARK   17  A    between atoms: C_30  and  O_32 
ROOT
HETATM    1  C   UNL     1     -21.629  -4.057  -9.519  1.00  0.00     0.219 C 
ENDROOT
BRANCH   1   2
HETATM    2  C   UNL     1     -20.944  -4.319  -8.125  1.00  0.00     0.008 C 
HETATM    3  C   UNL     1     -19.481  -3.810  -8.023  1.00  0.00     0.020 C 
HETATM    4  C   UNL     1     -20.895  -5.857  -7.907  1.00  0.00     0.020 C 
BRANCH   2   5
HETATM    5  C   UNL     1     -21.805  -3.723  -6.988  1.00  0.00     0.175 C 
BRANCH   5   6
HETATM    6  O   UNL     1     -23.137  -4.230  -7.015  1.00  0.00    -0.400 OA
HETATM    7  H   UNL     1     -23.111  -5.146  -7.366  1.00  0.00     0.209 HD
ENDBRANCH   5   6
ENDBRANCH   2   5
ENDBRANCH   1   2
BRANCH   1   8
HETATM    8  C   UNL     1     -20.736  -4.050 -10.808  1.00  0.00     0.247 C 
HETATM    9  O   UNL     1     -19.838  -4.887 -10.955  1.00  0.00    -0.271 OA
HETATM   10  N   UNL     1     -21.076  -3.230 -11.865  1.00  0.00    -0.358 N 
HETATM   11  H   UNL     1     -20.383  -3.184 -12.609  1.00  0.00     0.162 HD
BRANCH  10  12
HETATM   12  C   UNL     1     -22.162  -2.251 -12.010  1.00  0.00     0.133 C 
BRANCH  12  13
HETATM   13  C   UNL     1     -23.162  -2.500 -13.115  1.00  0.00     0.133 C 
BRANCH  13  14
HETATM   14  C   UNL     1     -24.158  -3.616 -12.860  1.00  0.00     0.174 C 
HETATM   15  O   UNL     1     -24.444  -3.783 -11.647  1.00  0.00    -0.648 OA
HETATM   16  O   UNL     1     -24.565  -4.254 -13.890  1.00  0.00    -0.648 OA
ENDBRANCH  13  14
ENDBRANCH  12  13
ENDBRANCH  10  12
ENDBRANCH   1   8
BRANCH   1  17
HETATM   17  O   UNL     1     -22.639  -5.070  -9.715  1.00  0.00    -0.385 OA
HETATM   18  H   UNL     1     -22.393  -5.828  -9.157  1.00  0.00     0.210 HD
ENDBRANCH   1  17
TORSDOF 17
ENDMDL
MODEL 5
REMARK VINA RESULT:      -5.3      1.649      5.503
REMARK  17 active torsions:
REMARK  status: ('A' for Active; 'I' for Inactive)
REMARK    1  A    between atoms: C_2  and  C_4 
REMARK    2  A    between atoms: C_2  and  C_6 
REMARK    3  A    between atoms: C_4  and  O_5 
REMARK    4  A    between atoms: C_6  and  C_7 
REMARK    5  A    between atoms: C_6  and  O_15 
REMARK       I    between atoms: C_7  and  N_9 
REMARK    6  A    between atoms: N_9  and  C_10 
REMARK    7  A    between atoms: C_10  and  C_11 
REMARK    8  A    between atoms: C_11  and  C_12 
REMARK    9  A    between atoms: C_20  and  C_22 
REMARK   10  A    between atoms: C_20  and  C_24 
REMARK   11  A    between atoms: C_22  and  O_23 
REMARK   12  A    between atoms: C_24  and  C_25 
REMARK   13  A    between atoms: C_24  and  O_33 
REMARK       I    between atoms: C_25  and  N_27 
REMARK   14  A    between atoms: N_27  and  C_28 
REMARK   15  A    between atoms: C_28  and  C_29 
REMARK   16  A    between atoms: C_29  and  C_30 
REMARK   17  A    between atoms: C_30  and  O_32 
ROOT
HETATM    1  C   UNL     1     -20.952  -5.599  -7.433  1.00  0.00     0.219 C 
ENDROOT
BRANCH   1   2
HETATM    2  C   UNL     1     -20.951  -5.864  -5.880  1.00  0.00     0.008 C 
HETATM    3  C   UNL     1     -20.244  -4.764  -5.042  1.00  0.00     0.020 C 
HETATM    4  C   UNL     1     -20.169  -7.184  -5.628  1.00  0.00     0.020 C 
BRANCH   2   5
HETATM    5  C   UNL     1     -22.395  -6.083  -5.375  1.00  0.00     0.175 C 
BRANCH   5   6
HETATM    6  O   UNL     1     -22.441  -6.227  -3.958  1.00  0.00    -0.400 OA
HETATM    7  H   UNL     1     -22.860  -5.424  -3.580  1.00  0.00     0.209 HD
ENDBRANCH   5   6
ENDBRANCH   2   5
ENDBRANCH   1   2
BRANCH   1   8
HETATM    8  C   UNL     1     -20.958  -4.118  -7.945  1.00  0.00     0.247 C 
HETATM    9  O   UNL     1     -19.897  -3.500  -8.093  1.00  0.00    -0.271 OA
HETATM   10  N   UNL     1     -22.134  -3.566  -8.413  1.00  0.00    -0.358 N 
HETATM   11  H   UNL     1     -22.088  -2.568  -8.606  1.00  0.00     0.162 HD
BRANCH  10  12
HETATM   12  C   UNL     1     -23.493  -4.119  -8.483  1.00  0.00     0.133 C 
BRANCH  12  13
HETATM   13  C   UNL     1     -24.465  -3.428  -9.410  1.00  0.00     0.133 C 
BRANCH  13  14
HETATM   14  C   UNL     1     -24.099  -3.454 -10.883  1.00  0.00     0.174 C 
HETATM   15  O   UNL     1     -22.922  -3.829 -11.113  1.00  0.00    -0.648 OA
HETATM   16  O   UNL     1     -25.011  -3.080 -11.696  1.00  0.00    -0.648 OA
ENDBRANCH  13  14
ENDBRANCH  12  13
ENDBRANCH  10  12
ENDBRANCH   1   8
BRANCH   1  17
HETATM   17  O   UNL     1     -19.781  -6.232  -7.992  1.00  0.00    -0.385 OA
HETATM   18  H   UNL     1     -20.095  -6.930  -8.593  1.00  0.00     0.210 HD
ENDBRANCH   1  17
TORSDOF 17
ENDMDL
MODEL 6
REMARK VINA RESULT:      -5.1      2.109      5.869
REMARK  17 active torsions:
REMARK  status: ('A' for Active; 'I' for Inactive)
REMARK    1  A    between atoms: C_2  and  C_4 
REMARK    2  A    between atoms: C_2  and  C_6 
REMARK    3  A    between atoms: C_4  and  O_5 
REMARK    4  A    between atoms: C_6  and  C_7 
REMARK    5  A    between atoms: C_6  and  O_15 
REMARK       I    between atoms: C_7  and  N_9 
REMARK    6  A    between atoms: N_9  and  C_10 
REMARK    7  A    between atoms: C_10  and  C_11 
REMARK    8  A    between atoms: C_11  and  C_12 
REMARK    9  A    between atoms: C_20  and  C_22 
REMARK   10  A    between atoms: C_20  and  C_24 
REMARK   11  A    between atoms: C_22  and  O_23 
REMARK   12  A    between atoms: C_24  and  C_25 
REMARK   13  A    between atoms: C_24  and  O_33 
REMARK       I    between atoms: C_25  and  N_27 
REMARK   14  A    between atoms: N_27  and  C_28 
REMARK   15  A    between atoms: C_28  and  C_29 
REMARK   16  A    between atoms: C_29  and  C_30 
REMARK   17  A    between atoms: C_30  and  O_32 
ROOT
HETATM    1  C   UNL     1     -21.250  -4.680  -9.100  1.00  0.00     0.219 C 
ENDROOT
BRANCH   1   2
HETATM    2  C   UNL     1     -20.724  -4.679  -7.616  1.00  0.00     0.008 C 
HETATM    3  C   UNL     1     -21.250  -3.504  -6.749  1.00  0.00     0.020 C 
HETATM    4  C   UNL     1     -19.177  -4.536  -7.665  1.00  0.00     0.020 C 
BRANCH   2   5
HETATM    5  C   UNL     1     -21.036  -6.034  -6.938  1.00  0.00     0.175 C 
BRANCH   5   6
HETATM    6  O   UNL     1     -19.856  -6.808  -6.742  1.00  0.00    -0.400 OA
HETATM    7  H   UNL     1     -20.057  -7.519  -6.097  1.00  0.00     0.209 HD
ENDBRANCH   5   6
ENDBRANCH   2   5
ENDBRANCH   1   2
BRANCH   1   8
HETATM    8  C   UNL     1     -22.779  -4.451  -9.357  1.00  0.00     0.247 C 
HETATM    9  O   UNL     1     -23.547  -4.216  -8.417  1.00  0.00    -0.271 OA
HETATM   10  N   UNL     1     -23.238  -4.321 -10.653  1.00  0.00    -0.358 N 
HETATM   11  H   UNL     1     -24.251  -4.304 -10.746  1.00  0.00     0.162 HD
BRANCH  10  12
HETATM   12  C   UNL     1     -22.529  -4.414 -11.936  1.00  0.00     0.133 C 
BRANCH  12  13
HETATM   13  C   UNL     1     -22.483  -3.164 -12.783  1.00  0.00     0.133 C 
BRANCH  13  14
HETATM   14  C   UNL     1     -23.719  -2.892 -13.621  1.00  0.00     0.174 C 
HETATM   15  O   UNL     1     -23.485  -2.735 -14.846  1.00  0.00    -0.648 OA
HETATM   16  O   UNL     1     -24.827  -2.838 -12.987  1.00  0.00    -0.648 OA
ENDBRANCH  13  14
ENDBRANCH  12  13
ENDBRANCH  10  12
ENDBRANCH   1   8
BRANCH   1  17
HETATM   17  O   UNL     1     -20.544  -3.649  -9.823  1.00  0.00    -0.385 OA
HETATM   18  H   UNL     1     -19.869  -3.291  -9.219  1.00  0.00     0.210 HD
ENDBRANCH   1  17
TORSDOF 17
ENDMDL
MODEL 7
REMARK VINA RESULT:      -5.1      2.469      6.187
REMARK  17 active torsions:
REMARK  status: ('A' for Active; 'I' for Inactive)
REMARK    1  A    between atoms: C_2  and  C_4 
REMARK    2  A    between atoms: C_2  and  C_6 
REMARK    3  A    between atoms: C_4  and  O_5 
REMARK    4  A    between atoms: C_6  and  C_7 
REMARK    5  A    between atoms: C_6  and  O_15 
REMARK       I    between atoms: C_7  and  N_9 
REMARK    6  A    between atoms: N_9  and  C_10 
REMARK    7  A    between atoms: C_10  and  C_11 
REMARK    8  A    between atoms: C_11  and  C_12 
REMARK    9  A    between atoms: C_20  and  C_22 
REMARK   10  A    between atoms: C_20  and  C_24 
REMARK   11  A    between atoms: C_22  and  O_23 
REMARK   12  A    between atoms: C_24  and  C_25 
REMARK   13  A    between atoms: C_24  and  O_33 
REMARK       I    between atoms: C_25  and  N_27 
REMARK   14  A    between atoms: N_27  and  C_28 
REMARK   15  A    between atoms: C_28  and  C_29 
REMARK   16  A    between atoms: C_29  and  C_30 
REMARK   17  A    between atoms: C_30  and  O_32 
ROOT
HETATM    1  C   UNL     1     -22.301  -3.538  -9.445  1.00  0.00     0.219 C 
ENDROOT
BRANCH   1   2
HETATM    2  C   UNL     1     -20.951  -4.347  -9.382  1.00  0.00     0.008 C 
HETATM    3  C   UNL     1     -21.038  -5.682  -8.593  1.00  0.00     0.020 C 
HETATM    4  C   UNL     1     -19.907  -3.463  -8.643  1.00  0.00     0.020 C 
BRANCH   2   5
HETATM    5  C   UNL     1     -20.411  -4.596 -10.809  1.00  0.00     0.175 C 
BRANCH   5   6
HETATM    6  O   UNL     1     -20.158  -3.374 -11.497  1.00  0.00    -0.400 OA
HETATM    7  H   UNL     1     -21.020  -2.953 -11.705  1.00  0.00     0.209 HD
ENDBRANCH   5   6
ENDBRANCH   2   5
ENDBRANCH   1   2
BRANCH   1   8
HETATM    8  C   UNL     1     -23.558  -4.220 -10.086  1.00  0.00     0.247 C 
HETATM    9  O   UNL     1     -24.254  -5.001  -9.428  1.00  0.00    -0.271 OA
HETATM   10  N   UNL     1     -24.000  -3.800 -11.326  1.00  0.00    -0.358 N 
HETATM   11  H   UNL     1     -24.737  -4.373 -11.731  1.00  0.00     0.162 HD
BRANCH  10  12
HETATM   12  C   UNL     1     -23.450  -2.802 -12.253  1.00  0.00     0.133 C 
BRANCH  12  13
HETATM   13  C   UNL     1     -24.243  -2.528 -13.509  1.00  0.00     0.133 C 
BRANCH  13  14
HETATM   14  C   UNL     1     -23.472  -1.880 -14.644  1.00  0.00     0.174 C 
HETATM   15  O   UNL     1     -23.871  -0.725 -14.942  1.00  0.00    -0.648 OA
HETATM   16  O   UNL     1     -22.540  -2.582 -15.165  1.00  0.00    -0.648 OA
ENDBRANCH  13  14
ENDBRANCH  12  13
ENDBRANCH  10  12
ENDBRANCH   1   8
BRANCH   1  17
HETATM   17  O   UNL     1     -22.664  -3.174  -8.095  1.00  0.00    -0.385 OA
HETATM   18  H   UNL     1     -22.292  -2.289  -7.930  1.00  0.00     0.210 HD
ENDBRANCH   1  17
TORSDOF 17
ENDMDL
MODEL 8
REMARK VINA RESULT:      -5.1      1.333      2.551
REMARK  17 active torsions:
REMARK  status: ('A' for Active; 'I' for Inactive)
REMARK    1  A    between atoms: C_2  and  C_4 
REMARK    2  A    between atoms: C_2  and  C_6 
REMARK    3  A    between atoms: C_4  and  O_5 
REMARK    4  A    between atoms: C_6  and  C_7 
REMARK    5  A    between atoms: C_6  and  O_15 
REMARK       I    between atoms: C_7  and  N_9 
REMARK    6  A    between atoms: N_9  and  C_10 
REMARK    7  A    between atoms: C_10  and  C_11 
REMARK    8  A    between atoms: C_11  and  C_12 
REMARK    9  A    between atoms: C_20  and  C_22 
REMARK   10  A    between atoms: C_20  and  C_24 
REMARK   11  A    between atoms: C_22  and  O_23 
REMARK   12  A    between atoms: C_24  and  C_25 
REMARK   13  A    between atoms: C_24  and  O_33 
REMARK       I    between atoms: C_25  and  N_27 
REMARK   14  A    between atoms: N_27  and  C_28 
REMARK   15  A    between atoms: C_28  and  C_29 
REMARK   16  A    between atoms: C_29  and  C_30 
REMARK   17  A    between atoms: C_30  and  O_32 
ROOT
HETATM    1  C   UNL     1     -22.336  -3.657  -9.864  1.00  0.00     0.219 C 
ENDROOT
BRANCH   1   2
HETATM    2  C   UNL     1     -23.182  -3.643 -11.193  1.00  0.00     0.008 C 
HETATM    3  C   UNL     1     -24.621  -3.083 -11.031  1.00  0.00     0.020 C 
HETATM    4  C   UNL     1     -23.329  -5.114 -11.674  1.00  0.00     0.020 C 
BRANCH   2   5
HETATM    5  C   UNL     1     -22.424  -2.873 -12.299  1.00  0.00     0.175 C 
BRANCH   5   6
HETATM    6  O   UNL     1     -21.538  -3.726 -13.020  1.00  0.00    -0.400 OA
HETATM    7  H   UNL     1     -20.875  -4.083 -12.392  1.00  0.00     0.209 HD
ENDBRANCH   5   6
ENDBRANCH   2   5
ENDBRANCH   1   2
BRANCH   1   8
HETATM    8  C   UNL     1     -23.069  -3.941  -8.508  1.00  0.00     0.247 C 
HETATM    9  O   UNL     1     -24.249  -4.310  -8.496  1.00  0.00    -0.271 OA
HETATM   10  N   UNL     1     -22.341  -3.963  -7.335  1.00  0.00    -0.358 N 
HETATM   11  H   UNL     1     -22.901  -4.024  -6.487  1.00  0.00     0.162 HD
BRANCH  10  12
HETATM   12  C   UNL     1     -20.917  -3.703  -7.084  1.00  0.00     0.133 C 
BRANCH  12  13
HETATM   13  C   UNL     1     -20.192  -4.682  -6.190  1.00  0.00     0.133 C 
BRANCH  13  14
HETATM   14  C   UNL     1     -20.993  -5.896  -5.759  1.00  0.00     0.174 C 
HETATM   15  O   UNL     1     -20.916  -6.870  -6.551  1.00  0.00    -0.648 OA
HETATM   16  O   UNL     1     -21.654  -5.778  -4.672  1.00  0.00    -0.648 OA
ENDBRANCH  13  14
ENDBRANCH  12  13
ENDBRANCH  10  12
ENDBRANCH   1   8
BRANCH   1  17
HETATM   17  O   UNL     1     -21.308  -4.662 -10.003  1.00  0.00    -0.385 OA
HETATM   18  H   UNL     1     -21.191  -4.818 -10.957  1.00  0.00     0.210 HD
ENDBRANCH   1  17
TORSDOF 17
ENDMDL
MODEL 9
REMARK VINA RESULT:      -5.0      1.973      5.540
REMARK  17 active torsions:
REMARK  status: ('A' for Active; 'I' for Inactive)
REMARK    1  A    between atoms: C_2  and  C_4 
REMARK    2  A    between atoms: C_2  and  C_6 
REMARK    3  A    between atoms: C_4  and  O_5 
REMARK    4  A    between atoms: C_6  and  C_7 
REMARK    5  A    between atoms: C_6  and  O_15 
REMARK       I    between atoms: C_7  and  N_9 
REMARK    6  A    between atoms: N_9  and  C_10 
REMARK    7  A    between atoms: C_10  and  C_11 
REMARK    8  A    between atoms: C_11  and  C_12 
REMARK    9  A    between atoms: C_20  and  C_22 
REMARK   10  A    between atoms: C_20  and  C_24 
REMARK   11  A    between atoms: C_22  and  O_23 
REMARK   12  A    between atoms: C_24  and  C_25 
REMARK   13  A    between atoms: C_24  and  O_33 
REMARK       I    between atoms: C_25  and  N_27 
REMARK   14  A    between atoms: N_27  and  C_28 
REMARK   15  A    between atoms: C_28  and  C_29 
REMARK   16  A    between atoms: C_29  and  C_30 
REMARK   17  A    between atoms: C_30  and  O_32 
ROOT
HETATM    1  C   UNL     1     -21.428  -5.518  -7.387  1.00  0.00     0.219 C 
ENDROOT
BRANCH   1   2
HETATM    2  C   UNL     1     -21.518  -6.164  -5.954  1.00  0.00     0.008 C 
HETATM    3  C   UNL     1     -22.920  -6.068  -5.293  1.00  0.00     0.020 C 
HETATM    4  C   UNL     1     -20.537  -5.392  -5.027  1.00  0.00     0.020 C 
BRANCH   2   5
HETATM    5  C   UNL     1     -21.042  -7.634  -6.000  1.00  0.00     0.175 C 
BRANCH   5   6
HETATM    6  O   UNL     1     -19.622  -7.730  -5.938  1.00  0.00    -0.400 OA
HETATM    7  H   UNL     1     -19.384  -8.294  -5.172  1.00  0.00     0.209 HD
ENDBRANCH   5   6
ENDBRANCH   2   5
ENDBRANCH   1   2
BRANCH   1   8
HETATM    8  C   UNL     1     -21.858  -4.022  -7.568  1.00  0.00     0.247 C 
HETATM    9  O   UNL     1     -21.318  -3.128  -6.904  1.00  0.00    -0.271 OA
HETATM   10  N   UNL     1     -22.703  -3.678  -8.604  1.00  0.00    -0.358 N 
HETATM   11  H   UNL     1     -23.038  -2.717  -8.580  1.00  0.00     0.162 HD
BRANCH  10  12
HETATM   12  C   UNL     1     -23.370  -4.510  -9.615  1.00  0.00     0.133 C 
BRANCH  12  13
HETATM   13  C   UNL     1     -22.717  -4.585 -10.975  1.00  0.00     0.133 C 
BRANCH  13  14
HETATM   14  C   UNL     1     -21.358  -3.919 -11.090  1.00  0.00     0.174 C 
HETATM   15  O   UNL     1     -21.398  -2.745 -11.538  1.00  0.00    -0.648 OA
HETATM   16  O   UNL     1     -20.353  -4.626 -10.741  1.00  0.00    -0.648 OA
ENDBRANCH  13  14
ENDBRANCH  12  13
ENDBRANCH  10  12
ENDBRANCH   1   8
BRANCH   1  17
HETATM   17  O   UNL     1     -20.059  -5.618  -7.834  1.00  0.00    -0.385 OA
HETATM   18  H   UNL     1     -19.836  -6.566  -7.858  1.00  0.00     0.210 HD
ENDBRANCH   1  17
TORSDOF 17
ENDMDL
