MODEL 1
REMARK VINA RESULT:      -6.9      0.000      0.000
REMARK  16 active torsions:
REMARK  status: ('A' for Active; 'I' for Inactive)
REMARK    1  A    between atoms: C_2  and  C_3 
REMARK    2  A    between atoms: C_3  and  C_4 
REMARK    3  A    between atoms: C_4  and  C_5 
REMARK    4  A    between atoms: C_5  and  C_6 
REMARK    5  A    between atoms: C_6  and  C_7 
REMARK    6  A    between atoms: C_7  and  C_8 
REMARK    7  A    between atoms: C_8  and  C_9 
REMARK    8  A    between atoms: C_9  and  C_10 
REMARK    9  A    between atoms: C_10  and  C_11 
REMARK   10  A    between atoms: C_11  and  C_12 
REMARK       I    between atoms: C_12  and  N_14 
REMARK   11  A    between atoms: N_14  and  C_15 
REMARK   12  A    between atoms: C_15  and  C_16 
REMARK   13  A    between atoms: C_16  and  C_17 
REMARK   14  A    between atoms: C_17  and  N_18 
REMARK   15  A    between atoms: N_18  and  C_21 
REMARK   16  A    between atoms: C_21  and  C_22 
ROOT
HETATM    1  C   UNL     1     -21.032  -6.106  -6.079  1.00  0.00     0.217 C 
HETATM    2  O   UNL     1     -20.739  -7.073  -6.774  1.00  0.00    -0.274 OA
HETATM    3  N   UNL     1     -21.093  -4.823  -6.571  1.00  0.00    -0.361 N 
HETATM    4  H   UNL     1     -21.261  -4.052  -5.934  1.00  0.00     0.162 HD
ENDROOT
BRANCH   1   5
HETATM    5  C   UNL     1     -21.413  -6.211  -4.620  1.00  0.00     0.103 C 
BRANCH   5   6
HETATM    6  C   UNL     1     -21.854  -7.634  -4.308  1.00  0.00     0.009 C 
BRANCH   6   7
HETATM    7  C   UNL     1     -21.289  -8.137  -2.990  1.00  0.00     0.000 C 
BRANCH   7   8
HETATM    8  C   UNL     1     -21.157  -6.969  -2.016  1.00  0.00     0.000 C 
BRANCH   8   9
HETATM    9  C   UNL     1     -22.364  -6.884  -1.094  1.00  0.00     0.000 C 
BRANCH   9  10
HETATM   10  C   UNL     1     -22.120  -7.685   0.181  1.00  0.00     0.000 C 
BRANCH  10  11
HETATM   11  C   UNL     1     -23.206  -8.739   0.365  1.00  0.00     0.000 C 
BRANCH  11  12
HETATM   12  C   UNL     1     -22.801 -10.061  -0.279  1.00  0.00     0.000 C 
BRANCH  12  13
HETATM   13  C   UNL     1     -23.967 -11.046  -0.266  1.00  0.00    -0.000 C 
BRANCH  13  14
HETATM   14  C   UNL     1     -23.606 -12.324   0.485  1.00  0.00    -0.005 C 
HETATM   15  C   UNL     1     -22.119 -12.392   0.771  1.00  0.00     0.005 C 
ENDBRANCH  13  14
ENDBRANCH  12  13
ENDBRANCH  11  12
ENDBRANCH  10  11
ENDBRANCH   9  10
ENDBRANCH   8   9
ENDBRANCH   7   8
ENDBRANCH   6   7
ENDBRANCH   5   6
ENDBRANCH   1   5
BRANCH   3  16
HETATM   16  C   UNL     1     -20.762  -4.535  -7.949  1.00  0.00     0.124 C 
BRANCH  16  17
HETATM   17  C   UNL     1     -21.968  -4.628  -8.884  1.00  0.00     0.048 C 
BRANCH  17  18
HETATM   18  C   UNL     1     -21.915  -3.584  -9.999  1.00  0.00     0.238 C 
BRANCH  18  19
HETATM   19  N   UNL     1     -23.172  -3.617 -10.888  1.00  0.00    -0.065 N 
HETATM   20  C   UNL     1     -23.301  -4.962 -11.588  1.00  0.00     0.272 C 
HETATM   21  C   UNL     1     -24.424  -3.258 -10.129  1.00  0.00     0.272 C 
BRANCH  19  22
HETATM   22  C   UNL     1     -22.979  -2.518 -12.029  1.00  0.00     0.349 C 
BRANCH  22  23
HETATM   23  C   UNL     1     -23.725  -2.748 -13.371  1.00  0.00     0.199 C 
HETATM   24  O   UNL     1     -24.977  -2.625 -13.295  1.00  0.00    -0.647 OA
HETATM   25  O   UNL     1     -22.962  -2.901 -14.365  1.00  0.00    -0.647 OA
ENDBRANCH  22  23
ENDBRANCH  19  22
ENDBRANCH  18  19
ENDBRANCH  17  18
ENDBRANCH  16  17
ENDBRANCH   3  16
TORSDOF 16
ENDMDL
MODEL 2
REMARK VINA RESULT:      -6.4      1.254      2.237
REMARK  16 active torsions:
REMARK  status: ('A' for Active; 'I' for Inactive)
REMARK    1  A    between atoms: C_2  and  C_3 
REMARK    2  A    between atoms: C_3  and  C_4 
REMARK    3  A    between atoms: C_4  and  C_5 
REMARK    4  A    between atoms: C_5  and  C_6 
REMARK    5  A    between atoms: C_6  and  C_7 
REMARK    6  A    between atoms: C_7  and  C_8 
REMARK    7  A    between atoms: C_8  and  C_9 
REMARK    8  A    between atoms: C_9  and  C_10 
REMARK    9  A    between atoms: C_10  and  C_11 
REMARK   10  A    between atoms: C_11  and  C_12 
REMARK       I    between atoms: C_12  and  N_14 
REMARK   11  A    between atoms: N_14  and  C_15 
REMARK   12  A    between atoms: C_15  and  C_16 
REMARK   13  A    between atoms: C_16  and  C_17 
REMARK   14  A    between atoms: C_17  and  N_18 
REMARK   15  A    between atoms: N_18  and  C_21 
REMARK   16  A    between atoms: C_21  and  C_22 
ROOT
HETATM    1  C   UNL     1     -20.890  -5.935  -6.321  1.00  0.00     0.217 C 
HETATM    2  O   UNL     1     -19.956  -6.629  -6.709  1.00  0.00    -0.274 OA
HETATM    3  N   UNL     1     -21.125  -4.665  -6.793  1.00  0.00    -0.361 N 
HETATM    4  H   UNL     1     -21.864  -4.108  -6.379  1.00  0.00     0.162 HD
ENDROOT
BRANCH   1   5
HETATM    5  C   UNL     1     -21.922  -6.409  -5.323  1.00  0.00     0.103 C 
BRANCH   5   6
HETATM    6  C   UNL     1     -21.407  -6.183  -3.909  1.00  0.00     0.009 C 
BRANCH   6   7
HETATM    7  C   UNL     1     -21.362  -7.469  -3.100  1.00  0.00     0.000 C 
BRANCH   7   8
HETATM    8  C   UNL     1     -21.673  -8.653  -4.012  1.00  0.00     0.000 C 
BRANCH   8   9
HETATM    9  C   UNL     1     -21.353  -9.973  -3.327  1.00  0.00     0.000 C 
BRANCH   9  10
HETATM   10  C   UNL     1     -22.507 -10.956  -3.494  1.00  0.00     0.000 C 
BRANCH  10  11
HETATM   11  C   UNL     1     -22.729 -11.741  -2.207  1.00  0.00     0.000 C 
BRANCH  11  12
HETATM   12  C   UNL     1     -23.883 -11.154  -1.400  1.00  0.00     0.000 C 
BRANCH  12  13
HETATM   13  C   UNL     1     -23.393 -10.658  -0.042  1.00  0.00    -0.000 C 
BRANCH  13  14
HETATM   14  C   UNL     1     -23.075  -9.166  -0.078  1.00  0.00    -0.005 C 
HETATM   15  C   UNL     1     -21.627  -8.904   0.281  1.00  0.00     0.005 C 
ENDBRANCH  13  14
ENDBRANCH  12  13
ENDBRANCH  11  12
ENDBRANCH  10  11
ENDBRANCH   9  10
ENDBRANCH   8   9
ENDBRANCH   7   8
ENDBRANCH   6   7
ENDBRANCH   5   6
ENDBRANCH   1   5
BRANCH   3  16
HETATM   16  C   UNL     1     -20.238  -4.050  -7.756  1.00  0.00     0.124 C 
BRANCH  16  17
HETATM   17  C   UNL     1     -20.723  -4.208  -9.197  1.00  0.00     0.048 C 
BRANCH  17  18
HETATM   18  C   UNL     1     -22.186  -3.798  -9.361  1.00  0.00     0.238 C 
BRANCH  18  19
HETATM   19  N   UNL     1     -22.734  -4.141 -10.759  1.00  0.00    -0.065 N 
HETATM   20  C   UNL     1     -21.599  -4.485 -11.713  1.00  0.00     0.272 C 
HETATM   21  C   UNL     1     -23.779  -5.227 -10.718  1.00  0.00     0.272 C 
BRANCH  19  22
HETATM   22  C   UNL     1     -23.438  -2.828 -11.332  1.00  0.00     0.349 C 
BRANCH  22  23
HETATM   23  C   UNL     1     -24.228  -2.968 -12.661  1.00  0.00     0.199 C 
HETATM   24  O   UNL     1     -23.515  -3.261 -13.659  1.00  0.00    -0.647 OA
HETATM   25  O   UNL     1     -25.481  -2.892 -12.527  1.00  0.00    -0.647 OA
ENDBRANCH  22  23
ENDBRANCH  19  22
ENDBRANCH  18  19
ENDBRANCH  17  18
ENDBRANCH  16  17
ENDBRANCH   3  16
TORSDOF 16
ENDMDL
MODEL 3
REMARK VINA RESULT:      -6.3      3.662     10.984
REMARK  16 active torsions:
REMARK  status: ('A' for Active; 'I' for Inactive)
REMARK    1  A    between atoms: C_2  and  C_3 
REMARK    2  A    between atoms: C_3  and  C_4 
REMARK    3  A    between atoms: C_4  and  C_5 
REMARK    4  A    between atoms: C_5  and  C_6 
REMARK    5  A    between atoms: C_6  and  C_7 
REMARK    6  A    between atoms: C_7  and  C_8 
REMARK    7  A    between atoms: C_8  and  C_9 
REMARK    8  A    between atoms: C_9  and  C_10 
REMARK    9  A    between atoms: C_10  and  C_11 
REMARK   10  A    between atoms: C_11  and  C_12 
REMARK       I    between atoms: C_12  and  N_14 
REMARK   11  A    between atoms: N_14  and  C_15 
REMARK   12  A    between atoms: C_15  and  C_16 
REMARK   13  A    between atoms: C_16  and  C_17 
REMARK   14  A    between atoms: C_17  and  N_18 
REMARK   15  A    between atoms: N_18  and  C_21 
REMARK   16  A    between atoms: C_21  and  C_22 
ROOT
HETATM    1  C   UNL     1     -21.093  -6.609  -5.050  1.00  0.00     0.217 C 
HETATM    2  O   UNL     1     -21.830  -5.778  -4.528  1.00  0.00    -0.274 OA
HETATM    3  N   UNL     1     -20.969  -7.897  -4.583  1.00  0.00    -0.361 N 
HETATM    4  H   UNL     1     -20.286  -8.516  -5.004  1.00  0.00     0.162 HD
ENDROOT
BRANCH   1   5
HETATM    5  C   UNL     1     -20.277  -6.336  -6.293  1.00  0.00     0.103 C 
BRANCH   5   6
HETATM    6  C   UNL     1     -20.336  -4.853  -6.628  1.00  0.00     0.009 C 
BRANCH   6   7
HETATM    7  C   UNL     1     -19.276  -4.447  -7.639  1.00  0.00     0.000 C 
BRANCH   7   8
HETATM    8  C   UNL     1     -19.925  -3.634  -8.756  1.00  0.00     0.000 C 
BRANCH   8   9
HETATM    9  C   UNL     1     -20.523  -4.542  -9.820  1.00  0.00     0.000 C 
BRANCH   9  10
HETATM   10  C   UNL     1     -20.371  -3.917 -11.203  1.00  0.00     0.000 C 
BRANCH  10  11
HETATM   11  C   UNL     1     -21.421  -2.833 -11.416  1.00  0.00     0.000 C 
BRANCH  11  12
HETATM   12  C   UNL     1     -22.421  -3.242 -12.492  1.00  0.00     0.000 C 
BRANCH  12  13
HETATM   13  C   UNL     1     -23.852  -3.102 -11.979  1.00  0.00    -0.000 C 
BRANCH  13  14
HETATM   14  C   UNL     1     -24.117  -4.048 -10.811  1.00  0.00    -0.005 C 
HETATM   15  C   UNL     1     -24.625  -3.294  -9.598  1.00  0.00     0.005 C 
ENDBRANCH  13  14
ENDBRANCH  12  13
ENDBRANCH  11  12
ENDBRANCH  10  11
ENDBRANCH   9  10
ENDBRANCH   8   9
ENDBRANCH   7   8
ENDBRANCH   6   7
ENDBRANCH   5   6
ENDBRANCH   1   5
BRANCH   3  16
HETATM   16  C   UNL     1     -21.680  -8.334  -3.402  1.00  0.00     0.124 C 
BRANCH  16  17
HETATM   17  C   UNL     1     -21.221  -9.704  -2.904  1.00  0.00     0.048 C 
BRANCH  17  18
HETATM   18  C   UNL     1     -20.979  -9.717  -1.394  1.00  0.00     0.238 C 
BRANCH  18  19
HETATM   19  N   UNL     1     -22.083 -10.476  -0.635  1.00  0.00    -0.065 N 
HETATM   20  C   UNL     1     -22.919 -11.312  -1.593  1.00  0.00     0.272 C 
HETATM   21  C   UNL     1     -21.537 -11.305   0.501  1.00  0.00     0.272 C 
BRANCH  19  22
HETATM   22  C   UNL     1     -23.060  -9.386   0.003  1.00  0.00     0.349 C 
BRANCH  22  23
HETATM   23  C   UNL     1     -22.467  -7.978   0.284  1.00  0.00     0.199 C 
HETATM   24  O   UNL     1     -22.904  -7.073  -0.478  1.00  0.00    -0.647 OA
HETATM   25  O   UNL     1     -21.734  -7.923   1.309  1.00  0.00    -0.647 OA
ENDBRANCH  22  23
ENDBRANCH  19  22
ENDBRANCH  18  19
ENDBRANCH  17  18
ENDBRANCH  16  17
ENDBRANCH   3  16
TORSDOF 16
ENDMDL
MODEL 4
REMARK VINA RESULT:      -6.1      3.653     11.216
REMARK  16 active torsions:
REMARK  status: ('A' for Active; 'I' for Inactive)
REMARK    1  A    between atoms: C_2  and  C_3 
REMARK    2  A    between atoms: C_3  and  C_4 
REMARK    3  A    between atoms: C_4  and  C_5 
REMARK    4  A    between atoms: C_5  and  C_6 
REMARK    5  A    between atoms: C_6  and  C_7 
REMARK    6  A    between atoms: C_7  and  C_8 
REMARK    7  A    between atoms: C_8  and  C_9 
REMARK    8  A    between atoms: C_9  and  C_10 
REMARK    9  A    between atoms: C_10  and  C_11 
REMARK   10  A    between atoms: C_11  and  C_12 
REMARK       I    between atoms: C_12  and  N_14 
REMARK   11  A    between atoms: N_14  and  C_15 
REMARK   12  A    between atoms: C_15  and  C_16 
REMARK   13  A    between atoms: C_16  and  C_17 
REMARK   14  A    between atoms: C_17  and  N_18 
REMARK   15  A    between atoms: N_18  and  C_21 
REMARK   16  A    between atoms: C_21  and  C_22 
ROOT
HETATM    1  C   UNL     1     -21.464  -6.604  -4.662  1.00  0.00     0.217 C 
HETATM    2  O   UNL     1     -22.543  -6.024  -4.725  1.00  0.00    -0.274 OA
HETATM    3  N   UNL     1     -20.978  -7.156  -3.499  1.00  0.00    -0.361 N 
HETATM    4  H   UNL     1     -20.045  -7.552  -3.487  1.00  0.00     0.162 HD
ENDROOT
BRANCH   1   5
HETATM    5  C   UNL     1     -20.565  -6.827  -5.857  1.00  0.00     0.103 C 
BRANCH   5   6
HETATM    6  C   UNL     1     -20.876  -5.794  -6.931  1.00  0.00     0.009 C 
BRANCH   6   7
HETATM    7  C   UNL     1     -19.706  -4.857  -7.185  1.00  0.00     0.000 C 
BRANCH   7   8
HETATM    8  C   UNL     1     -20.004  -3.995  -8.409  1.00  0.00     0.000 C 
BRANCH   8   9
HETATM    9  C   UNL     1     -20.647  -4.816  -9.516  1.00  0.00     0.000 C 
BRANCH   9  10
HETATM   10  C   UNL     1     -20.228  -4.290 -10.884  1.00  0.00     0.000 C 
BRANCH  10  11
HETATM   11  C   UNL     1     -21.064  -3.074 -11.267  1.00  0.00     0.000 C 
BRANCH  11  12
HETATM   12  C   UNL     1     -22.213  -3.467 -12.190  1.00  0.00     0.000 C 
BRANCH  12  13
HETATM   13  C   UNL     1     -23.550  -3.022 -11.606  1.00  0.00    -0.000 C 
BRANCH  13  14
HETATM   14  C   UNL     1     -24.127  -4.081 -10.670  1.00  0.00    -0.005 C 
HETATM   15  C   UNL     1     -24.164  -3.588  -9.238  1.00  0.00     0.005 C 
ENDBRANCH  13  14
ENDBRANCH  12  13
ENDBRANCH  11  12
ENDBRANCH  10  11
ENDBRANCH   9  10
ENDBRANCH   8   9
ENDBRANCH   7   8
ENDBRANCH   6   7
ENDBRANCH   5   6
ENDBRANCH   1   5
BRANCH   3  16
HETATM   16  C   UNL     1     -21.708  -7.039  -2.256  1.00  0.00     0.124 C 
BRANCH  16  17
HETATM   17  C   UNL     1     -21.328  -8.114  -1.239  1.00  0.00     0.048 C 
BRANCH  17  18
HETATM   18  C   UNL     1     -22.536  -8.940  -0.795  1.00  0.00     0.238 C 
BRANCH  18  19
HETATM   19  N   UNL     1     -22.371 -10.435  -1.124  1.00  0.00    -0.065 N 
HETATM   20  C   UNL     1     -23.191 -11.291  -0.170  1.00  0.00     0.272 C 
HETATM   21  C   UNL     1     -22.684 -10.747  -2.566  1.00  0.00     0.272 C 
BRANCH  19  22
HETATM   22  C   UNL     1     -20.839 -10.811  -0.882  1.00  0.00     0.349 C 
BRANCH  22  23
HETATM   23  C   UNL     1     -20.464 -11.413   0.500  1.00  0.00     0.199 C 
HETATM   24  O   UNL     1     -20.219 -12.650   0.476  1.00  0.00    -0.647 OA
HETATM   25  O   UNL     1     -20.337 -10.556   1.418  1.00  0.00    -0.647 OA
ENDBRANCH  22  23
ENDBRANCH  19  22
ENDBRANCH  18  19
ENDBRANCH  17  18
ENDBRANCH  16  17
ENDBRANCH   3  16
TORSDOF 16
ENDMDL
MODEL 5
REMARK VINA RESULT:      -6.0      4.072     10.735
REMARK  16 active torsions:
REMARK  status: ('A' for Active; 'I' for Inactive)
REMARK    1  A    between atoms: C_2  and  C_3 
REMARK    2  A    between atoms: C_3  and  C_4 
REMARK    3  A    between atoms: C_4  and  C_5 
REMARK    4  A    between atoms: C_5  and  C_6 
REMARK    5  A    between atoms: C_6  and  C_7 
REMARK    6  A    between atoms: C_7  and  C_8 
REMARK    7  A    between atoms: C_8  and  C_9 
REMARK    8  A    between atoms: C_9  and  C_10 
REMARK    9  A    between atoms: C_10  and  C_11 
REMARK   10  A    between atoms: C_11  and  C_12 
REMARK       I    between atoms: C_12  and  N_14 
REMARK   11  A    between atoms: N_14  and  C_15 
REMARK   12  A    between atoms: C_15  and  C_16 
REMARK   13  A    between atoms: C_16  and  C_17 
REMARK   14  A    between atoms: C_17  and  N_18 
REMARK   15  A    between atoms: N_18  and  C_21 
REMARK   16  A    between atoms: C_21  and  C_22 
ROOT
HETATM    1  C   UNL     1     -21.082  -8.911  -4.977  1.00  0.00     0.217 C 
HETATM    2  O   UNL     1     -20.935  -9.681  -5.921  1.00  0.00    -0.274 OA
HETATM    3  N   UNL     1     -20.686  -9.215  -3.695  1.00  0.00    -0.361 N 
HETATM    4  H   UNL     1     -20.905  -8.574  -2.941  1.00  0.00     0.162 HD
ENDROOT
BRANCH   1   5
HETATM    5  C   UNL     1     -21.664  -7.523  -5.116  1.00  0.00     0.103 C 
BRANCH   5   6
HETATM    6  C   UNL     1     -20.546  -6.525  -5.383  1.00  0.00     0.009 C 
BRANCH   6   7
HETATM    7  C   UNL     1     -20.524  -6.058  -6.829  1.00  0.00     0.000 C 
BRANCH   7   8
HETATM    8  C   UNL     1     -21.629  -5.028  -7.047  1.00  0.00     0.000 C 
BRANCH   8   9
HETATM    9  C   UNL     1     -21.343  -4.164  -8.265  1.00  0.00     0.000 C 
BRANCH   9  10
HETATM   10  C   UNL     1     -20.144  -4.708  -9.036  1.00  0.00     0.000 C 
BRANCH  10  11
HETATM   11  C   UNL     1     -20.285  -4.404 -10.523  1.00  0.00     0.000 C 
BRANCH  11  12
HETATM   12  C   UNL     1     -21.750  -4.244 -10.915  1.00  0.00     0.000 C 
BRANCH  12  13
HETATM   13  C   UNL     1     -21.916  -3.118 -11.932  1.00  0.00    -0.000 C 
BRANCH  13  14
HETATM   14  C   UNL     1     -23.389  -2.795 -12.168  1.00  0.00    -0.005 C 
HETATM   15  C   UNL     1     -24.244  -3.245 -11.001  1.00  0.00     0.005 C 
ENDBRANCH  13  14
ENDBRANCH  12  13
ENDBRANCH  11  12
ENDBRANCH  10  11
ENDBRANCH   9  10
ENDBRANCH   8   9
ENDBRANCH   7   8
ENDBRANCH   6   7
ENDBRANCH   5   6
ENDBRANCH   1   5
BRANCH   3  16
HETATM   16  C   UNL     1     -20.106 -10.502  -3.378  1.00  0.00     0.124 C 
BRANCH  16  17
HETATM   17  C   UNL     1     -21.009 -11.360  -2.491  1.00  0.00     0.048 C 
BRANCH  17  18
HETATM   18  C   UNL     1     -22.263 -10.607  -2.045  1.00  0.00     0.238 C 
BRANCH  18  19
HETATM   19  N   UNL     1     -22.392 -10.547  -0.513  1.00  0.00    -0.065 N 
HETATM   20  C   UNL     1     -23.854 -10.503  -0.096  1.00  0.00     0.272 C 
HETATM   21  C   UNL     1     -21.648 -11.667   0.172  1.00  0.00     0.272 C 
BRANCH  19  22
HETATM   22  C   UNL     1     -21.730  -9.177  -0.030  1.00  0.00     0.349 C 
BRANCH  22  23
HETATM   23  C   UNL     1     -22.351  -7.859  -0.570  1.00  0.00     0.199 C 
HETATM   24  O   UNL     1     -23.304  -7.414   0.124  1.00  0.00    -0.647 OA
HETATM   25  O   UNL     1     -21.731  -7.362  -1.551  1.00  0.00    -0.647 OA
ENDBRANCH  22  23
ENDBRANCH  19  22
ENDBRANCH  18  19
ENDBRANCH  17  18
ENDBRANCH  16  17
ENDBRANCH   3  16
TORSDOF 16
ENDMDL
MODEL 6
REMARK VINA RESULT:      -6.0      4.407     11.108
REMARK  16 active torsions:
REMARK  status: ('A' for Active; 'I' for Inactive)
REMARK    1  A    between atoms: C_2  and  C_3 
REMARK    2  A    between atoms: C_3  and  C_4 
REMARK    3  A    between atoms: C_4  and  C_5 
REMARK    4  A    between atoms: C_5  and  C_6 
REMARK    5  A    between atoms: C_6  and  C_7 
REMARK    6  A    between atoms: C_7  and  C_8 
REMARK    7  A    between atoms: C_8  and  C_9 
REMARK    8  A    between atoms: C_9  and  C_10 
REMARK    9  A    between atoms: C_10  and  C_11 
REMARK   10  A    between atoms: C_11  and  C_12 
REMARK       I    between atoms: C_12  and  N_14 
REMARK   11  A    between atoms: N_14  and  C_15 
REMARK   12  A    between atoms: C_15  and  C_16 
REMARK   13  A    between atoms: C_16  and  C_17 
REMARK   14  A    between atoms: C_17  and  N_18 
REMARK   15  A    between atoms: N_18  and  C_21 
REMARK   16  A    between atoms: C_21  and  C_22 
ROOT
HETATM    1  C   UNL     1     -21.770  -6.532  -3.160  1.00  0.00     0.217 C 
HETATM    2  O   UNL     1     -22.376  -5.936  -2.276  1.00  0.00    -0.274 OA
HETATM    3  N   UNL     1     -20.832  -7.503  -2.900  1.00  0.00    -0.361 N 
HETATM    4  H   UNL     1     -20.304  -7.905  -3.666  1.00  0.00     0.162 HD
ENDROOT
BRANCH   1   5
HETATM    5  C   UNL     1     -22.015  -6.310  -4.636  1.00  0.00     0.103 C 
BRANCH   5   6
HETATM    6  C   UNL     1     -20.874  -6.915  -5.440  1.00  0.00     0.009 C 
BRANCH   6   7
HETATM    7  C   UNL     1     -20.641  -6.183  -6.752  1.00  0.00     0.000 C 
BRANCH   7   8
HETATM    8  C   UNL     1     -20.527  -4.685  -6.482  1.00  0.00     0.000 C 
BRANCH   8   9
HETATM    9  C   UNL     1     -21.444  -3.890  -7.400  1.00  0.00     0.000 C 
BRANCH   9  10
HETATM   10  C   UNL     1     -21.497  -4.528  -8.784  1.00  0.00     0.000 C 
BRANCH  10  11
HETATM   11  C   UNL     1     -20.234  -4.201  -9.572  1.00  0.00     0.000 C 
BRANCH  11  12
HETATM   12  C   UNL     1     -20.532  -4.082 -11.063  1.00  0.00     0.000 C 
BRANCH  12  13
HETATM   13  C   UNL     1     -21.612  -3.034 -11.314  1.00  0.00    -0.000 C 
BRANCH  13  14
HETATM   14  C   UNL     1     -22.666  -3.545 -12.292  1.00  0.00    -0.005 C 
HETATM   15  C   UNL     1     -24.051  -3.066 -11.907  1.00  0.00     0.005 C 
ENDBRANCH  13  14
ENDBRANCH  12  13
ENDBRANCH  11  12
ENDBRANCH  10  11
ENDBRANCH   9  10
ENDBRANCH   8   9
ENDBRANCH   7   8
ENDBRANCH   6   7
ENDBRANCH   5   6
ENDBRANCH   1   5
BRANCH   3  16
HETATM   16  C   UNL     1     -20.471  -7.847  -1.542  1.00  0.00     0.124 C 
BRANCH  16  17
HETATM   17  C   UNL     1     -21.188  -9.098  -1.034  1.00  0.00     0.048 C 
BRANCH  17  18
HETATM   18  C   UNL     1     -21.504 -10.080  -2.162  1.00  0.00     0.238 C 
BRANCH  18  19
HETATM   19  N   UNL     1     -21.463 -11.544  -1.687  1.00  0.00    -0.065 N 
HETATM   20  C   UNL     1     -22.468 -12.389  -2.457  1.00  0.00     0.272 C 
HETATM   21  C   UNL     1     -20.075 -12.132  -1.748  1.00  0.00     0.272 C 
BRANCH  19  22
HETATM   22  C   UNL     1     -21.917 -11.563  -0.157  1.00  0.00     0.349 C 
BRANCH  22  23
HETATM   23  C   UNL     1     -23.415 -11.850   0.136  1.00  0.00     0.199 C 
HETATM   24  O   UNL     1     -24.173 -10.855  -0.023  1.00  0.00    -0.647 OA
HETATM   25  O   UNL     1     -23.671 -13.064   0.367  1.00  0.00    -0.647 OA
ENDBRANCH  22  23
ENDBRANCH  19  22
ENDBRANCH  18  19
ENDBRANCH  17  18
ENDBRANCH  16  17
ENDBRANCH   3  16
TORSDOF 16
ENDMDL
MODEL 7
REMARK VINA RESULT:      -5.9      4.304     10.182
REMARK  16 active torsions:
REMARK  status: ('A' for Active; 'I' for Inactive)
REMARK    1  A    between atoms: C_2  and  C_3 
REMARK    2  A    between atoms: C_3  and  C_4 
REMARK    3  A    between atoms: C_4  and  C_5 
REMARK    4  A    between atoms: C_5  and  C_6 
REMARK    5  A    between atoms: C_6  and  C_7 
REMARK    6  A    between atoms: C_7  and  C_8 
REMARK    7  A    between atoms: C_8  and  C_9 
REMARK    8  A    between atoms: C_9  and  C_10 
REMARK    9  A    between atoms: C_10  and  C_11 
REMARK   10  A    between atoms: C_11  and  C_12 
REMARK       I    between atoms: C_12  and  N_14 
REMARK   11  A    between atoms: N_14  and  C_15 
REMARK   12  A    between atoms: C_15  and  C_16 
REMARK   13  A    between atoms: C_16  and  C_17 
REMARK   14  A    between atoms: C_17  and  N_18 
REMARK   15  A    between atoms: N_18  and  C_21 
REMARK   16  A    between atoms: C_21  and  C_22 
ROOT
HETATM    1  C   UNL     1     -21.806  -6.722  -3.404  1.00  0.00     0.217 C 
HETATM    2  O   UNL     1     -22.060  -5.846  -2.583  1.00  0.00    -0.274 OA
HETATM    3  N   UNL     1     -21.514  -8.019  -3.048  1.00  0.00    -0.361 N 
HETATM    4  H   UNL     1     -21.233  -8.680  -3.763  1.00  0.00     0.162 HD
ENDROOT
BRANCH   1   5
HETATM    5  C   UNL     1     -21.834  -6.499  -4.899  1.00  0.00     0.103 C 
BRANCH   5   6
HETATM    6  C   UNL     1     -20.700  -5.566  -5.298  1.00  0.00     0.009 C 
BRANCH   6   7
HETATM    7  C   UNL     1     -20.036  -5.988  -6.598  1.00  0.00     0.000 C 
BRANCH   7   8
HETATM    8  C   UNL     1     -19.937  -4.784  -7.531  1.00  0.00     0.000 C 
BRANCH   8   9
HETATM    9  C   UNL     1     -20.982  -3.734  -7.185  1.00  0.00     0.000 C 
BRANCH   9  10
HETATM   10  C   UNL     1     -22.211  -3.889  -8.075  1.00  0.00     0.000 C 
BRANCH  10  11
HETATM   11  C   UNL     1     -21.803  -4.334  -9.475  1.00  0.00     0.000 C 
BRANCH  11  12
HETATM   12  C   UNL     1     -22.494  -3.491 -10.542  1.00  0.00     0.000 C 
BRANCH  12  13
HETATM   13  C   UNL     1     -21.926  -3.800 -11.924  1.00  0.00    -0.000 C 
BRANCH  13  14
HETATM   14  C   UNL     1     -22.659  -3.021 -13.013  1.00  0.00    -0.005 C 
HETATM   15  C   UNL     1     -24.132  -2.879 -12.690  1.00  0.00     0.005 C 
ENDBRANCH  13  14
ENDBRANCH  12  13
ENDBRANCH  11  12
ENDBRANCH  10  11
ENDBRANCH   9  10
ENDBRANCH   8   9
ENDBRANCH   7   8
ENDBRANCH   6   7
ENDBRANCH   5   6
ENDBRANCH   1   5
BRANCH   3  16
HETATM   16  C   UNL     1     -21.445  -8.413  -1.659  1.00  0.00     0.124 C 
BRANCH  16  17
HETATM   17  C   UNL     1     -20.968  -9.854  -1.472  1.00  0.00     0.048 C 
BRANCH  17  18
HETATM   18  C   UNL     1     -21.024 -10.653  -2.774  1.00  0.00     0.238 C 
BRANCH  18  19
HETATM   19  N   UNL     1     -19.726 -11.440  -3.030  1.00  0.00    -0.065 N 
HETATM   20  C   UNL     1     -18.638 -11.016  -2.054  1.00  0.00     0.272 C 
HETATM   21  C   UNL     1     -19.943 -12.932  -3.012  1.00  0.00     0.272 C 
BRANCH  19  22
HETATM   22  C   UNL     1     -19.213 -11.054  -4.491  1.00  0.00     0.349 C 
BRANCH  22  23
HETATM   23  C   UNL     1     -19.639  -9.670  -5.052  1.00  0.00     0.199 C 
HETATM   24  O   UNL     1     -20.669  -9.701  -5.778  1.00  0.00    -0.647 OA
HETATM   25  O   UNL     1     -18.969  -8.702  -4.597  1.00  0.00    -0.647 OA
ENDBRANCH  22  23
ENDBRANCH  19  22
ENDBRANCH  18  19
ENDBRANCH  17  18
ENDBRANCH  16  17
ENDBRANCH   3  16
TORSDOF 16
ENDMDL
MODEL 8
REMARK VINA RESULT:      -5.9      5.349     10.245
REMARK  16 active torsions:
REMARK  status: ('A' for Active; 'I' for Inactive)
REMARK    1  A    between atoms: C_2  and  C_3 
REMARK    2  A    between atoms: C_3  and  C_4 
REMARK    3  A    between atoms: C_4  and  C_5 
REMARK    4  A    between atoms: C_5  and  C_6 
REMARK    5  A    between atoms: C_6  and  C_7 
REMARK    6  A    between atoms: C_7  and  C_8 
REMARK    7  A    between atoms: C_8  and  C_9 
REMARK    8  A    between atoms: C_9  and  C_10 
REMARK    9  A    between atoms: C_10  and  C_11 
REMARK   10  A    between atoms: C_11  and  C_12 
REMARK       I    between atoms: C_12  and  N_14 
REMARK   11  A    between atoms: N_14  and  C_15 
REMARK   12  A    between atoms: C_15  and  C_16 
REMARK   13  A    between atoms: C_16  and  C_17 
REMARK   14  A    between atoms: C_17  and  N_18 
REMARK   15  A    between atoms: N_18  and  C_21 
REMARK   16  A    between atoms: C_21  and  C_22 
ROOT
HETATM    1  C   UNL     1     -22.408  -7.400  -0.421  1.00  0.00     0.217 C 
HETATM    2  O   UNL     1     -23.424  -7.517   0.256  1.00  0.00    -0.274 OA
HETATM    3  N   UNL     1     -21.314  -8.223  -0.278  1.00  0.00    -0.361 N 
HETATM    4  H   UNL     1     -20.472  -8.030  -0.808  1.00  0.00     0.162 HD
ENDROOT
BRANCH   1   5
HETATM    5  C   UNL     1     -22.254  -6.380  -1.527  1.00  0.00     0.103 C 
BRANCH   5   6
HETATM    6  C   UNL     1     -21.216  -6.865  -2.529  1.00  0.00     0.009 C 
BRANCH   6   7
HETATM    7  C   UNL     1     -21.445  -6.292  -3.918  1.00  0.00     0.000 C 
BRANCH   7   8
HETATM    8  C   UNL     1     -21.129  -7.359  -4.964  1.00  0.00     0.000 C 
BRANCH   8   9
HETATM    9  C   UNL     1     -20.785  -6.728  -6.305  1.00  0.00     0.000 C 
BRANCH   9  10
HETATM   10  C   UNL     1     -20.669  -5.214  -6.169  1.00  0.00     0.000 C 
BRANCH  10  11
HETATM   11  C   UNL     1     -19.437  -4.705  -6.908  1.00  0.00     0.000 C 
BRANCH  11  12
HETATM   12  C   UNL     1     -19.772  -4.346  -8.352  1.00  0.00     0.000 C 
BRANCH  12  13
HETATM   13  C   UNL     1     -21.256  -4.017  -8.495  1.00  0.00    -0.000 C 
BRANCH  13  14
HETATM   14  C   UNL     1     -21.711  -4.126  -9.947  1.00  0.00    -0.005 C 
HETATM   15  C   UNL     1     -20.528  -4.216 -10.889  1.00  0.00     0.005 C 
ENDBRANCH  13  14
ENDBRANCH  12  13
ENDBRANCH  11  12
ENDBRANCH  10  11
ENDBRANCH   9  10
ENDBRANCH   8   9
ENDBRANCH   7   8
ENDBRANCH   6   7
ENDBRANCH   5   6
ENDBRANCH   1   5
BRANCH   3  16
HETATM   16  C   UNL     1     -21.287  -9.258   0.732  1.00  0.00     0.124 C 
BRANCH  16  17
HETATM   17  C   UNL     1     -20.597 -10.536   0.256  1.00  0.00     0.048 C 
BRANCH  17  18
HETATM   18  C   UNL     1     -21.044 -10.944  -1.149  1.00  0.00     0.238 C 
BRANCH  18  19
HETATM   19  N   UNL     1     -19.858 -11.347  -2.043  1.00  0.00    -0.065 N 
HETATM   20  C   UNL     1     -18.639 -11.692  -1.199  1.00  0.00     0.272 C 
HETATM   21  C   UNL     1     -20.209 -12.459  -3.000  1.00  0.00     0.272 C 
BRANCH  19  22
HETATM   22  C   UNL     1     -19.467 -10.073  -2.922  1.00  0.00     0.349 C 
BRANCH  22  23
HETATM   23  C   UNL     1     -17.995  -9.969  -3.407  1.00  0.00     0.199 C 
HETATM   24  O   UNL     1     -17.273  -9.207  -2.708  1.00  0.00    -0.647 OA
HETATM   25  O   UNL     1     -17.707 -10.756  -4.350  1.00  0.00    -0.647 OA
ENDBRANCH  22  23
ENDBRANCH  19  22
ENDBRANCH  18  19
ENDBRANCH  17  18
ENDBRANCH  16  17
ENDBRANCH   3  16
TORSDOF 16
ENDMDL
MODEL 9
REMARK VINA RESULT:      -5.9      5.683     10.433
REMARK  16 active torsions:
REMARK  status: ('A' for Active; 'I' for Inactive)
REMARK    1  A    between atoms: C_2  and  C_3 
REMARK    2  A    between atoms: C_3  and  C_4 
REMARK    3  A    between atoms: C_4  and  C_5 
REMARK    4  A    between atoms: C_5  and  C_6 
REMARK    5  A    between atoms: C_6  and  C_7 
REMARK    6  A    between atoms: C_7  and  C_8 
REMARK    7  A    between atoms: C_8  and  C_9 
REMARK    8  A    between atoms: C_9  and  C_10 
REMARK    9  A    between atoms: C_10  and  C_11 
REMARK   10  A    between atoms: C_11  and  C_12 
REMARK       I    between atoms: C_12  and  N_14 
REMARK   11  A    between atoms: N_14  and  C_15 
REMARK   12  A    between atoms: C_15  and  C_16 
REMARK   13  A    between atoms: C_16  and  C_17 
REMARK   14  A    between atoms: C_17  and  N_18 
REMARK   15  A    between atoms: N_18  and  C_21 
REMARK   16  A    between atoms: C_21  and  C_22 
ROOT
HETATM    1  C   UNL     1     -22.778  -8.116  -0.141  1.00  0.00     0.217 C 
HETATM    2  O   UNL     1     -23.434  -7.942   0.881  1.00  0.00    -0.274 OA
HETATM    3  N   UNL     1     -22.717  -9.325  -0.794  1.00  0.00    -0.361 N 
HETATM    4  H   UNL     1     -22.096  -9.431  -1.589  1.00  0.00     0.162 HD
ENDROOT
BRANCH   1   5
HETATM    5  C   UNL     1     -22.004  -7.016  -0.833  1.00  0.00     0.103 C 
BRANCH   5   6
HETATM    6  C   UNL     1     -21.623  -7.465  -2.236  1.00  0.00     0.009 C 
BRANCH   6   7
HETATM    7  C   UNL     1     -21.489  -6.296  -3.198  1.00  0.00     0.000 C 
BRANCH   7   8
HETATM    8  C   UNL     1     -21.867  -6.752  -4.606  1.00  0.00     0.000 C 
BRANCH   8   9
HETATM    9  C   UNL     1     -20.769  -6.419  -5.604  1.00  0.00     0.000 C 
BRANCH   9  10
HETATM   10  C   UNL     1     -20.349  -4.960  -5.469  1.00  0.00     0.000 C 
BRANCH  10  11
HETATM   11  C   UNL     1     -20.650  -4.197  -6.754  1.00  0.00     0.000 C 
BRANCH  11  12
HETATM   12  C   UNL     1     -19.541  -4.394  -7.783  1.00  0.00     0.000 C 
BRANCH  12  13
HETATM   13  C   UNL     1     -20.129  -4.682  -9.161  1.00  0.00    -0.000 C 
BRANCH  13  14
HETATM   14  C   UNL     1     -21.639  -4.463  -9.177  1.00  0.00    -0.005 C 
HETATM   15  C   UNL     1     -22.085  -3.800 -10.465  1.00  0.00     0.005 C 
ENDBRANCH  13  14
ENDBRANCH  12  13
ENDBRANCH  11  12
ENDBRANCH  10  11
ENDBRANCH   9  10
ENDBRANCH   8   9
ENDBRANCH   7   8
ENDBRANCH   6   7
ENDBRANCH   5   6
ENDBRANCH   1   5
BRANCH   3  16
HETATM   16  C   UNL     1     -23.399 -10.489  -0.275  1.00  0.00     0.124 C 
BRANCH  16  17
HETATM   17  C   UNL     1     -23.654 -11.555  -1.340  1.00  0.00     0.048 C 
BRANCH  17  18
HETATM   18  C   UNL     1     -22.420 -12.421  -1.596  1.00  0.00     0.238 C 
BRANCH  18  19
HETATM   19  N   UNL     1     -21.809 -12.166  -2.986  1.00  0.00    -0.065 N 
HETATM   20  C   UNL     1     -21.482 -13.480  -3.680  1.00  0.00     0.272 C 
HETATM   21  C   UNL     1     -22.677 -11.280  -3.844  1.00  0.00     0.272 C 
BRANCH  19  22
HETATM   22  C   UNL     1     -20.425 -11.401  -2.766  1.00  0.00     0.349 C 
BRANCH  22  23
HETATM   23  C   UNL     1     -19.761 -11.520  -1.368  1.00  0.00     0.199 C 
HETATM   24  O   UNL     1     -19.988 -10.544  -0.603  1.00  0.00    -0.647 OA
HETATM   25  O   UNL     1     -19.199 -12.630  -1.158  1.00  0.00    -0.647 OA
ENDBRANCH  22  23
ENDBRANCH  19  22
ENDBRANCH  18  19
ENDBRANCH  17  18
ENDBRANCH  16  17
ENDBRANCH   3  16
TORSDOF 16
ENDMDL
