MODEL 1
REMARK VINA RESULT:      -6.0      0.000      0.000
REMARK  6 active torsions:
REMARK  status: ('A' for Active; 'I' for Inactive)
REMARK    1  A    between atoms: C_1  and  C_2 
REMARK    2  A    between atoms: C_1  and  O_12 
REMARK    3  A    between atoms: C_3  and  O_11 
REMARK    4  A    between atoms: C_4  and  O_10 
REMARK    5  A    between atoms: C_5  and  O_9 
REMARK    6  A    between atoms: C_6  and  O_8 
ROOT
HETATM    1  C   UNL     1     -24.062  -4.177 -10.862  1.00  0.00     0.179 C 
HETATM    2  C   UNL     1     -22.538  -4.324 -10.977  1.00  0.00     0.180 C 
HETATM    3  C   UNL     1     -21.896  -2.986 -11.374  1.00  0.00     0.183 C 
HETATM    4  C   UNL     1     -22.529  -2.450 -12.666  1.00  0.00     0.204 C 
HETATM    5  C   UNL     1     -24.061  -2.405 -12.511  1.00  0.00     0.288 C 
HETATM    6  O   UNL     1     -24.608  -3.656 -12.090  1.00  0.00    -0.349 OA
ENDROOT
BRANCH   1   7
HETATM    7  C   UNL     1     -24.526  -3.351  -9.657  1.00  0.00     0.198 C 
BRANCH   7   8
HETATM    8  O   UNL     1     -25.945  -3.227  -9.681  1.00  0.00    -0.398 OA
HETATM    9  H   UNL     1     -26.307  -3.950  -9.122  1.00  0.00     0.209 HD
ENDBRANCH   7   8
ENDBRANCH   1   7
BRANCH   2  10
HETATM   10  O   UNL     1     -22.230  -5.272 -12.028  1.00  0.00    -0.390 OA
HETATM   11  H   UNL     1     -22.490  -4.873 -12.879  1.00  0.00     0.210 HD
ENDBRANCH   2  10
BRANCH   3  12
HETATM   12  O   UNL     1     -20.488  -3.159 -11.541  1.00  0.00    -0.390 OA
HETATM   13  H   UNL     1     -20.366  -4.088 -11.824  1.00  0.00     0.210 HD
ENDBRANCH   3  12
BRANCH   5  14
HETATM   14  O   UNL     1     -24.656  -2.078 -13.759  1.00  0.00    -0.369 OA
HETATM   15  H   UNL     1     -24.160  -1.296 -14.073  1.00  0.00     0.212 HD
ENDBRANCH   5  14
BRANCH   4  16
HETATM   16  O   UNL     1     -22.200  -3.291 -13.797  1.00  0.00    -0.388 OA
HETATM   17  H   UNL     1     -21.479  -3.887 -13.497  1.00  0.00     0.210 HD
ENDBRANCH   4  16
TORSDOF 6
ENDMDL
MODEL 2
REMARK VINA RESULT:      -5.8      1.575      4.103
REMARK  6 active torsions:
REMARK  status: ('A' for Active; 'I' for Inactive)
REMARK    1  A    between atoms: C_1  and  C_2 
REMARK    2  A    between atoms: C_1  and  O_12 
REMARK    3  A    between atoms: C_3  and  O_11 
REMARK    4  A    between atoms: C_4  and  O_10 
REMARK    5  A    between atoms: C_5  and  O_9 
REMARK    6  A    between atoms: C_6  and  O_8 
ROOT
HETATM    1  C   UNL     1     -21.922  -4.484 -10.882  1.00  0.00     0.179 C 
HETATM    2  C   UNL     1     -23.116  -4.262 -11.823  1.00  0.00     0.180 C 
HETATM    3  C   UNL     1     -24.019  -3.138 -11.291  1.00  0.00     0.183 C 
HETATM    4  C   UNL     1     -24.459  -3.438  -9.852  1.00  0.00     0.204 C 
HETATM    5  C   UNL     1     -23.221  -3.731  -8.983  1.00  0.00     0.288 C 
HETATM    6  O   UNL     1     -22.384  -4.744  -9.541  1.00  0.00    -0.349 OA
ENDROOT
BRANCH   1   7
HETATM    7  C   UNL     1     -20.888  -3.352 -10.900  1.00  0.00     0.198 C 
BRANCH   7   8
HETATM    8  O   UNL     1     -19.828  -3.688 -11.790  1.00  0.00    -0.398 OA
HETATM    9  H   UNL     1     -19.033  -3.196 -11.490  1.00  0.00     0.209 HD
ENDBRANCH   7   8
ENDBRANCH   1   7
BRANCH   2  10
HETATM   10  O   UNL     1     -23.918  -5.467 -11.864  1.00  0.00    -0.390 OA
HETATM   11  H   UNL     1     -24.756  -5.256 -12.316  1.00  0.00     0.210 HD
ENDBRANCH   2  10
BRANCH   3  12
HETATM   12  O   UNL     1     -25.157  -2.992 -12.143  1.00  0.00    -0.390 OA
HETATM   13  H   UNL     1     -24.871  -3.309 -13.024  1.00  0.00     0.210 HD
ENDBRANCH   3  12
BRANCH   5  14
HETATM   14  O   UNL     1     -23.635  -4.178  -7.700  1.00  0.00    -0.369 OA
HETATM   15  H   UNL     1     -24.248  -3.486  -7.382  1.00  0.00     0.212 HD
ENDBRANCH   5  14
BRANCH   4  16
HETATM   16  O   UNL     1     -25.342  -4.583  -9.804  1.00  0.00    -0.388 OA
HETATM   17  H   UNL     1     -24.766  -5.379  -9.816  1.00  0.00     0.210 HD
ENDBRANCH   4  16
TORSDOF 6
ENDMDL
MODEL 3
REMARK VINA RESULT:      -5.4      1.689      2.606
REMARK  6 active torsions:
REMARK  status: ('A' for Active; 'I' for Inactive)
REMARK    1  A    between atoms: C_1  and  C_2 
REMARK    2  A    between atoms: C_1  and  O_12 
REMARK    3  A    between atoms: C_3  and  O_11 
REMARK    4  A    between atoms: C_4  and  O_10 
REMARK    5  A    between atoms: C_5  and  O_9 
REMARK    6  A    between atoms: C_6  and  O_8 
ROOT
HETATM    1  C   UNL     1     -22.634  -4.726  -9.675  1.00  0.00     0.179 C 
HETATM    2  C   UNL     1     -22.154  -4.430 -11.103  1.00  0.00     0.180 C 
HETATM    3  C   UNL     1     -22.591  -3.023 -11.537  1.00  0.00     0.183 C 
HETATM    4  C   UNL     1     -24.110  -2.862 -11.388  1.00  0.00     0.204 C 
HETATM    5  C   UNL     1     -24.534  -3.253  -9.960  1.00  0.00     0.288 C 
HETATM    6  O   UNL     1     -24.062  -4.546  -9.580  1.00  0.00    -0.349 OA
ENDROOT
BRANCH   1   7
HETATM    7  C   UNL     1     -21.904  -3.930  -8.587  1.00  0.00     0.198 C 
BRANCH   7   8
HETATM    8  O   UNL     1     -22.628  -4.022  -7.362  1.00  0.00    -0.398 OA
HETATM    9  H   UNL     1     -22.666  -3.117  -6.982  1.00  0.00     0.209 HD
ENDBRANCH   7   8
ENDBRANCH   1   7
BRANCH   2  10
HETATM   10  O   UNL     1     -22.773  -5.368 -12.017  1.00  0.00    -0.390 OA
HETATM   11  H   UNL     1     -23.380  -4.869 -12.595  1.00  0.00     0.210 HD
ENDBRANCH   2  10
BRANCH   3  12
HETATM   12  O   UNL     1     -22.192  -2.791 -12.890  1.00  0.00    -0.390 OA
HETATM   13  H   UNL     1     -22.673  -3.455 -13.425  1.00  0.00     0.210 HD
ENDBRANCH   3  12
BRANCH   5  14
HETATM   14  O   UNL     1     -25.952  -3.273  -9.873  1.00  0.00    -0.369 OA
HETATM   15  H   UNL     1     -26.185  -2.440  -9.417  1.00  0.00     0.212 HD
ENDBRANCH   5  14
BRANCH   4  16
HETATM   16  O   UNL     1     -24.818  -3.702 -12.330  1.00  0.00    -0.388 OA
HETATM   17  H   UNL     1     -25.055  -3.127 -13.090  1.00  0.00     0.210 HD
ENDBRANCH   4  16
TORSDOF 6
ENDMDL
MODEL 4
REMARK VINA RESULT:      -5.4      1.303      3.642
REMARK  6 active torsions:
REMARK  status: ('A' for Active; 'I' for Inactive)
REMARK    1  A    between atoms: C_1  and  C_2 
REMARK    2  A    between atoms: C_1  and  O_12 
REMARK    3  A    between atoms: C_3  and  O_11 
REMARK    4  A    between atoms: C_4  and  O_10 
REMARK    5  A    between atoms: C_5  and  O_9 
REMARK    6  A    between atoms: C_6  and  O_8 
ROOT
HETATM    1  C   UNL     1     -23.280  -3.295 -13.478  1.00  0.00     0.179 C 
HETATM    2  C   UNL     1     -24.201  -3.998 -12.470  1.00  0.00     0.180 C 
HETATM    3  C   UNL     1     -24.075  -3.351 -11.083  1.00  0.00     0.183 C 
HETATM    4  C   UNL     1     -22.610  -3.343 -10.625  1.00  0.00     0.204 C 
HETATM    5  C   UNL     1     -21.731  -2.699 -11.715  1.00  0.00     0.288 C 
HETATM    6  O   UNL     1     -21.920  -3.297 -12.998  1.00  0.00    -0.349 OA
ENDROOT
BRANCH   1   7
HETATM    7  C   UNL     1     -23.728  -1.879 -13.860  1.00  0.00     0.198 C 
BRANCH   7   8
HETATM    8  O   UNL     1     -23.804  -1.769 -15.279  1.00  0.00    -0.398 OA
HETATM    9  H   UNL     1     -23.682  -0.821 -15.501  1.00  0.00     0.209 HD
ENDBRANCH   7   8
ENDBRANCH   1   7
BRANCH   2  10
HETATM   10  O   UNL     1     -23.790  -5.379 -12.334  1.00  0.00    -0.390 OA
HETATM   11  H   UNL     1     -22.907  -5.472 -12.740  1.00  0.00     0.210 HD
ENDBRANCH   2  10
BRANCH   3  12
HETATM   12  O   UNL     1     -24.889  -4.059 -10.146  1.00  0.00    -0.390 OA
HETATM   13  H   UNL     1     -25.608  -4.463 -10.672  1.00  0.00     0.210 HD
ENDBRANCH   3  12
BRANCH   5  14
HETATM   14  O   UNL     1     -20.361  -2.849 -11.371  1.00  0.00    -0.369 OA
HETATM   15  H   UNL     1     -20.290  -2.481 -10.468  1.00  0.00     0.212 HD
ENDBRANCH   5  14
BRANCH   4  16
HETATM   16  O   UNL     1     -22.133  -4.686 -10.377  1.00  0.00    -0.388 OA
HETATM   17  H   UNL     1     -21.881  -5.057 -11.251  1.00  0.00     0.210 HD
ENDBRANCH   4  16
TORSDOF 6
ENDMDL
MODEL 5
REMARK VINA RESULT:      -5.3      1.652      3.077
REMARK  6 active torsions:
REMARK  status: ('A' for Active; 'I' for Inactive)
REMARK    1  A    between atoms: C_1  and  C_2 
REMARK    2  A    between atoms: C_1  and  O_12 
REMARK    3  A    between atoms: C_3  and  O_11 
REMARK    4  A    between atoms: C_4  and  O_10 
REMARK    5  A    between atoms: C_5  and  O_9 
REMARK    6  A    between atoms: C_6  and  O_8 
ROOT
HETATM    1  C   UNL     1     -23.831  -3.139 -10.187  1.00  0.00     0.179 C 
HETATM    2  C   UNL     1     -24.312  -3.170 -11.646  1.00  0.00     0.180 C 
HETATM    3  C   UNL     1     -23.810  -4.440 -12.350  1.00  0.00     0.183 C 
HETATM    4  C   UNL     1     -22.283  -4.549 -12.238  1.00  0.00     0.204 C 
HETATM    5  C   UNL     1     -21.863  -4.427 -10.760  1.00  0.00     0.288 C 
HETATM    6  O   UNL     1     -22.395  -3.261 -10.132  1.00  0.00    -0.349 OA
ENDROOT
BRANCH   1   7
HETATM    7  C   UNL     1     -24.508  -4.171  -9.278  1.00  0.00     0.198 C 
BRANCH   7   8
HETATM    8  O   UNL     1     -23.980  -4.063  -7.958  1.00  0.00    -0.398 OA
HETATM    9  H   UNL     1     -24.321  -3.223  -7.580  1.00  0.00     0.209 HD
ENDBRANCH   7   8
ENDBRANCH   1   7
BRANCH   2  10
HETATM   10  O   UNL     1     -23.751  -2.040 -12.355  1.00  0.00    -0.390 OA
HETATM   11  H   UNL     1     -23.214  -2.385 -13.094  1.00  0.00     0.210 HD
ENDBRANCH   2  10
BRANCH   3  12
HETATM   12  O   UNL     1     -24.212  -4.419 -13.721  1.00  0.00    -0.390 OA
HETATM   13  H   UNL     1     -23.642  -5.074 -14.174  1.00  0.00     0.210 HD
ENDBRANCH   3  12
BRANCH   5  14
HETATM   14  O   UNL     1     -20.447  -4.352 -10.673  1.00  0.00    -0.369 OA
HETATM   15  H   UNL     1     -20.135  -5.244 -10.923  1.00  0.00     0.212 HD
ENDBRANCH   5  14
BRANCH   4  16
HETATM   16  O   UNL     1     -21.629  -3.504 -12.995  1.00  0.00    -0.388 OA
HETATM   17  H   UNL     1     -22.316  -2.830 -13.189  1.00  0.00     0.210 HD
ENDBRANCH   4  16
TORSDOF 6
ENDMDL
MODEL 6
REMARK VINA RESULT:      -5.3     16.671     18.422
REMARK  6 active torsions:
REMARK  status: ('A' for Active; 'I' for Inactive)
REMARK    1  A    between atoms: C_1  and  C_2 
REMARK    2  A    between atoms: C_1  and  O_12 
REMARK    3  A    between atoms: C_3  and  O_11 
REMARK    4  A    between atoms: C_4  and  O_10 
REMARK    5  A    between atoms: C_5  and  O_9 
REMARK    6  A    between atoms: C_6  and  O_8 
ROOT
HETATM    1  C   UNL     1     -11.864   8.965 -19.852  1.00  0.00     0.179 C 
HETATM    2  C   UNL     1     -10.438   8.413 -19.710  1.00  0.00     0.180 C 
HETATM    3  C   UNL     1     -10.278   7.119 -20.523  1.00  0.00     0.183 C 
HETATM    4  C   UNL     1     -11.344   6.093 -20.113  1.00  0.00     0.204 C 
HETATM    5  C   UNL     1     -12.741   6.735 -20.199  1.00  0.00     0.288 C 
HETATM    6  O   UNL     1     -12.828   7.962 -19.472  1.00  0.00    -0.349 OA
ENDROOT
BRANCH   1   7
HETATM    7  C   UNL     1     -12.182   9.541 -21.236  1.00  0.00     0.198 C 
BRANCH   7   8
HETATM    8  O   UNL     1     -11.235  10.555 -21.561  1.00  0.00    -0.398 OA
HETATM    9  H   UNL     1     -10.592  10.158 -22.187  1.00  0.00     0.209 HD
ENDBRANCH   7   8
ENDBRANCH   1   7
BRANCH   2  10
HETATM   10  O   UNL     1     -10.194   8.077 -18.323  1.00  0.00    -0.390 OA
HETATM   11  H   UNL     1     -10.540   7.178 -18.166  1.00  0.00     0.210 HD
ENDBRANCH   2  10
BRANCH   3  12
HETATM   12  O   UNL     1      -8.967   6.586 -20.326  1.00  0.00    -0.390 OA
HETATM   13  H   UNL     1      -8.745   6.116 -21.155  1.00  0.00     0.210 HD
ENDBRANCH   3  12
BRANCH   5  14
HETATM   14  O   UNL     1     -13.707   5.847 -19.655  1.00  0.00    -0.369 OA
HETATM   15  H   UNL     1     -13.745   6.073 -18.705  1.00  0.00     0.212 HD
ENDBRANCH   5  14
BRANCH   4  16
HETATM   16  O   UNL     1     -11.127   5.628 -18.760  1.00  0.00    -0.388 OA
HETATM   17  H   UNL     1     -10.164   5.718 -18.587  1.00  0.00     0.210 HD
ENDBRANCH   4  16
TORSDOF 6
ENDMDL
MODEL 7
REMARK VINA RESULT:      -5.3      1.492      3.331
REMARK  6 active torsions:
REMARK  status: ('A' for Active; 'I' for Inactive)
REMARK    1  A    between atoms: C_1  and  C_2 
REMARK    2  A    between atoms: C_1  and  O_12 
REMARK    3  A    between atoms: C_3  and  O_11 
REMARK    4  A    between atoms: C_4  and  O_10 
REMARK    5  A    between atoms: C_5  and  O_9 
REMARK    6  A    between atoms: C_6  and  O_8 
ROOT
HETATM    1  C   UNL     1     -23.454  -2.919 -12.352  1.00  0.00     0.179 C 
HETATM    2  C   UNL     1     -21.989  -3.310 -12.110  1.00  0.00     0.180 C 
HETATM    3  C   UNL     1     -21.906  -4.569 -11.234  1.00  0.00     0.183 C 
HETATM    4  C   UNL     1     -22.677  -4.362  -9.923  1.00  0.00     0.204 C 
HETATM    5  C   UNL     1     -24.111  -3.892 -10.236  1.00  0.00     0.288 C 
HETATM    6  O   UNL     1     -24.141  -2.753 -11.095  1.00  0.00    -0.349 OA
ENDROOT
BRANCH   1   7
HETATM    7  C   UNL     1     -24.217  -3.874 -13.276  1.00  0.00     0.198 C 
BRANCH   7   8
HETATM    8  O   UNL     1     -23.754  -3.716 -14.615  1.00  0.00    -0.398 OA
HETATM    9  H   UNL     1     -23.171  -2.926 -14.626  1.00  0.00     0.209 HD
ENDBRANCH   7   8
ENDBRANCH   1   7
BRANCH   2  10
HETATM   10  O   UNL     1     -21.325  -2.245 -11.389  1.00  0.00    -0.390 OA
HETATM   11  H   UNL     1     -22.007  -1.613 -11.091  1.00  0.00     0.210 HD
ENDBRANCH   2  10
BRANCH   3  12
HETATM   12  O   UNL     1     -20.537  -4.879 -10.966  1.00  0.00    -0.390 OA
HETATM   13  H   UNL     1     -20.014  -4.220 -11.466  1.00  0.00     0.210 HD
ENDBRANCH   3  12
BRANCH   5  14
HETATM   14  O   UNL     1     -24.768  -3.534  -9.028  1.00  0.00    -0.369 OA
HETATM   15  H   UNL     1     -25.721  -3.576  -9.241  1.00  0.00     0.212 HD
ENDBRANCH   5  14
BRANCH   4  16
HETATM   16  O   UNL     1     -22.034  -3.371  -9.089  1.00  0.00    -0.388 OA
HETATM   17  H   UNL     1     -21.168  -3.174  -9.510  1.00  0.00     0.210 HD
ENDBRANCH   4  16
TORSDOF 6
ENDMDL
MODEL 8
REMARK VINA RESULT:      -5.2     15.614     17.297
REMARK  6 active torsions:
REMARK  status: ('A' for Active; 'I' for Inactive)
REMARK    1  A    between atoms: C_1  and  C_2 
REMARK    2  A    between atoms: C_1  and  O_12 
REMARK    3  A    between atoms: C_3  and  O_11 
REMARK    4  A    between atoms: C_4  and  O_10 
REMARK    5  A    between atoms: C_5  and  O_9 
REMARK    6  A    between atoms: C_6  and  O_8 
ROOT
HETATM    1  C   UNL     1     -12.463   4.670 -19.833  1.00  0.00     0.179 C 
HETATM    2  C   UNL     1     -12.758   5.952 -20.627  1.00  0.00     0.180 C 
HETATM    3  C   UNL     1     -11.453   6.581 -21.139  1.00  0.00     0.183 C 
HETATM    4  C   UNL     1     -10.483   6.826 -19.975  1.00  0.00     0.204 C 
HETATM    5  C   UNL     1     -10.295   5.524 -19.174  1.00  0.00     0.288 C 
HETATM    6  O   UNL     1     -11.536   4.947 -18.764  1.00  0.00    -0.349 OA
ENDROOT
BRANCH   1   7
HETATM    7  C   UNL     1     -11.981   3.495 -20.692  1.00  0.00     0.198 C 
BRANCH   7   8
HETATM    8  O   UNL     1     -13.105   2.804 -21.229  1.00  0.00    -0.398 OA
HETATM    9  H   UNL     1     -13.803   2.809 -20.538  1.00  0.00     0.209 HD
ENDBRANCH   7   8
ENDBRANCH   1   7
BRANCH   2  10
HETATM   10  O   UNL     1     -13.381   6.921 -19.749  1.00  0.00    -0.390 OA
HETATM   11  H   UNL     1     -14.341   6.911 -19.923  1.00  0.00     0.210 HD
ENDBRANCH   2  10
BRANCH   3  12
HETATM   12  O   UNL     1     -11.744   7.805 -21.817  1.00  0.00    -0.390 OA
HETATM   13  H   UNL     1     -11.142   7.830 -22.588  1.00  0.00     0.210 HD
ENDBRANCH   3  12
BRANCH   5  14
HETATM   14  O   UNL     1      -9.540   5.791 -18.001  1.00  0.00    -0.369 OA
HETATM   15  H   UNL     1      -9.978   6.565 -17.595  1.00  0.00     0.212 HD
ENDBRANCH   5  14
BRANCH   4  16
HETATM   16  O   UNL     1     -10.984   7.852 -19.086  1.00  0.00    -0.388 OA
HETATM   17  H   UNL     1     -10.307   7.963 -18.382  1.00  0.00     0.210 HD
ENDBRANCH   4  16
TORSDOF 6
ENDMDL
MODEL 9
REMARK VINA RESULT:      -5.0      2.031      3.724
REMARK  6 active torsions:
REMARK  status: ('A' for Active; 'I' for Inactive)
REMARK    1  A    between atoms: C_1  and  C_2 
REMARK    2  A    between atoms: C_1  and  O_12 
REMARK    3  A    between atoms: C_3  and  O_11 
REMARK    4  A    between atoms: C_4  and  O_10 
REMARK    5  A    between atoms: C_5  and  O_9 
REMARK    6  A    between atoms: C_6  and  O_8 
ROOT
HETATM    1  C   UNL     1     -21.728  -3.813  -9.210  1.00  0.00     0.179 C 
HETATM    2  C   UNL     1     -23.229  -3.944  -8.912  1.00  0.00     0.180 C 
HETATM    3  C   UNL     1     -23.892  -4.910  -9.906  1.00  0.00     0.183 C 
HETATM    4  C   UNL     1     -23.622  -4.463 -11.349  1.00  0.00     0.204 C 
HETATM    5  C   UNL     1     -22.108  -4.271 -11.556  1.00  0.00     0.288 C 
HETATM    6  O   UNL     1     -21.524  -3.409 -10.579  1.00  0.00    -0.349 OA
ENDROOT
BRANCH   1   7
HETATM    7  C   UNL     1     -20.907  -5.064  -8.875  1.00  0.00     0.198 C 
BRANCH   7   8
HETATM    8  O   UNL     1     -21.309  -5.573  -7.607  1.00  0.00    -0.398 OA
HETATM    9  H   UNL     1     -21.523  -4.799  -7.041  1.00  0.00     0.209 HD
ENDBRANCH   7   8
ENDBRANCH   1   7
BRANCH   2  10
HETATM   10  O   UNL     1     -23.862  -2.654  -9.085  1.00  0.00    -0.390 OA
HETATM   11  H   UNL     1     -23.269  -2.097  -9.623  1.00  0.00     0.210 HD
ENDBRANCH   2  10
BRANCH   3  12
HETATM   12  O   UNL     1     -25.298  -4.968  -9.653  1.00  0.00    -0.390 OA
HETATM   13  H   UNL     1     -25.707  -5.251 -10.496  1.00  0.00     0.210 HD
ENDBRANCH   3  12
BRANCH   5  14
HETATM   14  O   UNL     1     -21.872  -3.693 -12.832  1.00  0.00    -0.369 OA
HETATM   15  H   UNL     1     -21.747  -4.455 -13.431  1.00  0.00     0.212 HD
ENDBRANCH   5  14
BRANCH   4  16
HETATM   16  O   UNL     1     -24.294  -3.216 -11.644  1.00  0.00    -0.388 OA
HETATM   17  H   UNL     1     -25.253  -3.423 -11.693  1.00  0.00     0.210 HD
ENDBRANCH   4  16
TORSDOF 6
ENDMDL
