MODEL 1
REMARK VINA RESULT:      -8.6      0.000      0.000
REMARK  3 active torsions:
REMARK  status: ('A' for Active; 'I' for Inactive)
REMARK    1  A    between atoms: C_2  and  C_4 
REMARK    2  A    between atoms: C_17  and  C_19 
REMARK    3  A    between atoms: C_19  and  O_21 
ROOT
HETATM    1  C   UNL     1     -20.505  -6.554  -5.699  1.00  0.00    -0.076 C 
HETATM    2  C   UNL     1     -20.182  -7.869  -5.559  1.00  0.00     0.010 C 
HETATM    3  C   UNL     1     -20.641  -8.607  -4.362  1.00  0.00    -0.057 C 
HETATM    4  C   UNL     1     -20.292  -9.861  -3.966  1.00  0.00    -0.019 C 
HETATM    5  C   UNL     1     -20.807 -10.525  -2.643  1.00  0.00     0.034 C 
HETATM    6  C   UNL     1     -21.839  -9.649  -1.846  1.00  0.00     0.016 C 
HETATM    7  C   UNL     1     -21.391  -8.126  -2.001  1.00  0.00    -0.031 C 
HETATM    8  C   UNL     1     -21.698  -7.891  -3.520  1.00  0.00     0.027 C 
HETATM    9  C   UNL     1     -22.093  -6.478  -3.954  1.00  0.00     0.014 C 
HETATM   10  C   UNL     1     -20.882  -5.765  -4.469  1.00  0.00     0.035 C 
HETATM   11  C   UNL     1     -22.169  -7.124  -1.128  1.00  0.00     0.010 C 
HETATM   12  C   UNL     1     -22.404  -7.631   0.273  1.00  0.00     0.002 C 
HETATM   13  C   UNL     1     -23.228  -8.894   0.141  1.00  0.00     0.020 C 
HETATM   14  C   UNL     1     -22.396 -10.085  -0.430  1.00  0.00     0.049 C 
HETATM   15  C   UNL     1     -21.298 -10.498   0.563  1.00  0.00     0.026 C 
HETATM   16  C   UNL     1     -19.882  -7.876  -1.649  1.00  0.00     0.016 C 
ENDROOT
BRANCH  14  17
HETATM   17  C   UNL     1     -23.419 -11.235  -0.388  1.00  0.00     0.267 C 
HETATM   18  O   UNL     1     -24.279 -11.393  -1.253  1.00  0.00    -0.264 OA
BRANCH  17  19
HETATM   19  O   UNL     1     -23.191 -12.154   0.600  1.00  0.00    -0.326 OA
HETATM   20  C   UNL     1     -23.472 -13.517   0.277  1.00  0.00     0.213 C 
ENDBRANCH  17  19
ENDBRANCH  14  17
BRANCH   1  21
HETATM   21  C   UNL     1     -21.037  -5.882  -6.969  1.00  0.00     0.006 C 
HETATM   22  C   UNL     1     -22.184  -4.892  -6.775  1.00  0.00     0.014 C 
HETATM   23  C   UNL     1     -19.997  -5.381  -7.965  1.00  0.00     0.014 C 
ENDBRANCH   1  21
TORSDOF 3
ENDMDL
MODEL 2
REMARK VINA RESULT:      -8.3      2.621      6.984
REMARK  3 active torsions:
REMARK  status: ('A' for Active; 'I' for Inactive)
REMARK    1  A    between atoms: C_2  and  C_4 
REMARK    2  A    between atoms: C_17  and  C_19 
REMARK    3  A    between atoms: C_19  and  O_21 
ROOT
HETATM    1  C   UNL     1     -22.105 -10.571   0.042  1.00  0.00    -0.076 C 
HETATM    2  C   UNL     1     -22.448  -9.259   0.164  1.00  0.00     0.010 C 
HETATM    3  C   UNL     1     -22.251  -8.346  -0.984  1.00  0.00    -0.057 C 
HETATM    4  C   UNL     1     -22.379  -6.992  -1.008  1.00  0.00    -0.019 C 
HETATM    5  C   UNL     1     -22.094  -6.120  -2.278  1.00  0.00     0.034 C 
HETATM    6  C   UNL     1     -21.730  -6.952  -3.560  1.00  0.00     0.016 C 
HETATM    7  C   UNL     1     -20.860  -8.203  -3.084  1.00  0.00    -0.031 C 
HETATM    8  C   UNL     1     -21.946  -9.032  -2.316  1.00  0.00     0.027 C 
HETATM    9  C   UNL     1     -21.796 -10.554  -2.298  1.00  0.00     0.014 C 
HETATM   10  C   UNL     1     -21.118 -10.966  -1.029  1.00  0.00     0.035 C 
HETATM   11  C   UNL     1     -20.241  -9.038  -4.220  1.00  0.00     0.010 C 
HETATM   12  C   UNL     1     -19.671  -8.186  -5.326  1.00  0.00     0.002 C 
HETATM   13  C   UNL     1     -20.825  -7.387  -5.892  1.00  0.00     0.020 C 
HETATM   14  C   UNL     1     -21.299  -6.263  -4.917  1.00  0.00     0.049 C 
HETATM   15  C   UNL     1     -20.201  -5.201  -4.748  1.00  0.00     0.026 C 
HETATM   16  C   UNL     1     -19.647  -7.811  -2.168  1.00  0.00     0.016 C 
ENDROOT
BRANCH  14  17
HETATM   17  C   UNL     1     -22.396  -5.567  -5.745  1.00  0.00     0.267 C 
HETATM   18  O   UNL     1     -23.596  -5.765  -5.560  1.00  0.00    -0.264 OA
BRANCH  17  19
HETATM   19  O   UNL     1     -21.931  -4.597  -6.590  1.00  0.00    -0.326 OA
HETATM   20  C   UNL     1     -22.601  -4.474  -7.846  1.00  0.00     0.213 C 
ENDBRANCH  17  19
ENDBRANCH  14  17
BRANCH   1  21
HETATM   21  C   UNL     1     -22.945 -11.772   0.487  1.00  0.00     0.006 C 
HETATM   22  C   UNL     1     -24.031 -12.230  -0.486  1.00  0.00     0.014 C 
HETATM   23  C   UNL     1     -22.192 -12.942   1.111  1.00  0.00     0.014 C 
ENDBRANCH   1  21
TORSDOF 3
ENDMDL
MODEL 3
REMARK VINA RESULT:      -7.9      3.960      7.094
REMARK  3 active torsions:
REMARK  status: ('A' for Active; 'I' for Inactive)
REMARK    1  A    between atoms: C_2  and  C_4 
REMARK    2  A    between atoms: C_17  and  C_19 
REMARK    3  A    between atoms: C_19  and  O_21 
ROOT
HETATM    1  C   UNL     1     -22.801  -3.147 -11.548  1.00  0.00    -0.076 C 
HETATM    2  C   UNL     1     -21.495  -3.424 -11.284  1.00  0.00     0.010 C 
HETATM    3  C   UNL     1     -21.142  -4.156 -10.047  1.00  0.00    -0.057 C 
HETATM    4  C   UNL     1     -19.904  -4.383  -9.533  1.00  0.00    -0.019 C 
HETATM    5  C   UNL     1     -19.654  -5.133  -8.180  1.00  0.00     0.034 C 
HETATM    6  C   UNL     1     -20.960  -5.684  -7.501  1.00  0.00     0.016 C 
HETATM    7  C   UNL     1     -22.119  -4.622  -7.768  1.00  0.00    -0.031 C 
HETATM    8  C   UNL     1     -22.320  -4.798  -9.312  1.00  0.00     0.027 C 
HETATM    9  C   UNL     1     -23.717  -4.544  -9.881  1.00  0.00     0.014 C 
HETATM   10  C   UNL     1     -23.788  -3.144 -10.406  1.00  0.00     0.035 C 
HETATM   11  C   UNL     1     -23.436  -4.889  -7.015  1.00  0.00     0.010 C 
HETATM   12  C   UNL     1     -23.214  -5.319  -5.587  1.00  0.00     0.002 C 
HETATM   13  C   UNL     1     -22.423  -6.609  -5.643  1.00  0.00     0.020 C 
HETATM   14  C   UNL     1     -20.942  -6.374  -6.078  1.00  0.00     0.049 C 
HETATM   15  C   UNL     1     -20.192  -5.562  -5.009  1.00  0.00     0.026 C 
HETATM   16  C   UNL     1     -21.727  -3.153  -7.379  1.00  0.00     0.016 C 
ENDROOT
BRANCH  14  17
HETATM   17  C   UNL     1     -20.354  -7.794  -5.979  1.00  0.00     0.267 C 
HETATM   18  O   UNL     1     -19.148  -8.022  -6.055  1.00  0.00    -0.264 OA
BRANCH  17  19
HETATM   19  O   UNL     1     -21.265  -8.756  -5.640  1.00  0.00    -0.326 OA
HETATM   20  C   UNL     1     -20.778  -9.842  -4.848  1.00  0.00     0.213 C 
ENDBRANCH  17  19
ENDBRANCH  14  17
BRANCH   1  21
HETATM   21  C   UNL     1     -23.513  -3.336 -12.891  1.00  0.00     0.006 C 
HETATM   22  C   UNL     1     -24.995  -2.964 -12.924  1.00  0.00     0.014 C 
HETATM   23  C   UNL     1     -22.767  -2.866 -14.135  1.00  0.00     0.014 C 
ENDBRANCH   1  21
TORSDOF 3
ENDMDL
MODEL 4
REMARK VINA RESULT:      -7.4      2.889      4.925
REMARK  3 active torsions:
REMARK  status: ('A' for Active; 'I' for Inactive)
REMARK    1  A    between atoms: C_2  and  C_4 
REMARK    2  A    between atoms: C_17  and  C_19 
REMARK    3  A    between atoms: C_19  and  O_21 
ROOT
HETATM    1  C   UNL     1     -17.493 -11.527  -4.789  1.00  0.00    -0.076 C 
HETATM    2  C   UNL     1     -18.681 -11.015  -5.210  1.00  0.00     0.010 C 
HETATM    3  C   UNL     1     -19.672 -10.559  -4.210  1.00  0.00    -0.057 C 
HETATM    4  C   UNL     1     -20.959 -10.174  -4.422  1.00  0.00    -0.019 C 
HETATM    5  C   UNL     1     -21.937  -9.756  -3.271  1.00  0.00     0.034 C 
HETATM    6  C   UNL     1     -21.277  -9.733  -1.846  1.00  0.00     0.016 C 
HETATM    7  C   UNL     1     -20.239 -10.943  -1.782  1.00  0.00    -0.031 C 
HETATM    8  C   UNL     1     -19.144 -10.434  -2.780  1.00  0.00     0.027 C 
HETATM    9  C   UNL     1     -17.699 -10.869  -2.531  1.00  0.00     0.014 C 
HETATM   10  C   UNL     1     -17.391 -12.063  -3.381  1.00  0.00     0.035 C 
HETATM   11  C   UNL     1     -19.628 -11.207  -0.393  1.00  0.00     0.010 C 
HETATM   12  C   UNL     1     -20.644 -11.115   0.718  1.00  0.00     0.002 C 
HETATM   13  C   UNL     1     -21.182  -9.700   0.692  1.00  0.00     0.020 C 
HETATM   14  C   UNL     1     -22.115  -9.446  -0.535  1.00  0.00     0.049 C 
HETATM   15  C   UNL     1     -23.393 -10.294  -0.422  1.00  0.00     0.026 C 
HETATM   16  C   UNL     1     -20.854 -12.320  -2.218  1.00  0.00     0.016 C 
ENDROOT
BRANCH  14  17
HETATM   17  C   UNL     1     -22.579  -7.999  -0.285  1.00  0.00     0.267 C 
HETATM   18  O   UNL     1     -23.534  -7.721   0.439  1.00  0.00    -0.264 OA
BRANCH  17  19
HETATM   19  O   UNL     1     -21.747  -7.045  -0.805  1.00  0.00    -0.326 OA
HETATM   20  C   UNL     1     -22.270  -6.266  -1.884  1.00  0.00     0.213 C 
ENDBRANCH  17  19
ENDBRANCH  14  17
BRANCH   1  21
HETATM   21  C   UNL     1     -16.109 -11.183  -5.348  1.00  0.00     0.006 C 
HETATM   22  C   UNL     1     -15.848  -9.703  -5.629  1.00  0.00     0.014 C 
HETATM   23  C   UNL     1     -14.915 -11.871  -4.697  1.00  0.00     0.014 C 
ENDBRANCH   1  21
TORSDOF 3
ENDMDL
MODEL 5
REMARK VINA RESULT:      -7.2      4.203      7.099
REMARK  3 active torsions:
REMARK  status: ('A' for Active; 'I' for Inactive)
REMARK    1  A    between atoms: C_2  and  C_4 
REMARK    2  A    between atoms: C_17  and  C_19 
REMARK    3  A    between atoms: C_19  and  O_21 
ROOT
HETATM    1  C   UNL     1     -22.672 -10.725  -2.499  1.00  0.00    -0.076 C 
HETATM    2  C   UNL     1     -22.430 -11.066  -3.795  1.00  0.00     0.010 C 
HETATM    3  C   UNL     1     -21.036 -11.103  -4.288  1.00  0.00    -0.057 C 
HETATM    4  C   UNL     1     -20.604 -11.260  -5.568  1.00  0.00    -0.019 C 
HETATM    5  C   UNL     1     -19.093 -11.233  -5.980  1.00  0.00     0.034 C 
HETATM    6  C   UNL     1     -18.100 -11.098  -4.770  1.00  0.00     0.016 C 
HETATM    7  C   UNL     1     -18.783 -10.131  -3.701  1.00  0.00    -0.031 C 
HETATM    8  C   UNL     1     -19.959 -11.039  -3.203  1.00  0.00     0.027 C 
HETATM    9  C   UNL     1     -20.435 -10.858  -1.760  1.00  0.00     0.014 C 
HETATM   10  C   UNL     1     -21.623  -9.947  -1.744  1.00  0.00     0.035 C 
HETATM   11  C   UNL     1     -17.880  -9.717  -2.523  1.00  0.00     0.010 C 
HETATM   12  C   UNL     1     -16.476  -9.379  -2.956  1.00  0.00     0.002 C 
HETATM   13  C   UNL     1     -15.904 -10.634  -3.582  1.00  0.00     0.020 C 
HETATM   14  C   UNL     1     -16.539 -10.940  -4.975  1.00  0.00     0.049 C 
HETATM   15  C   UNL     1     -16.157  -9.851  -5.990  1.00  0.00     0.026 C 
HETATM   16  C   UNL     1     -19.289  -8.776  -4.312  1.00  0.00     0.016 C 
ENDROOT
BRANCH  14  17
HETATM   17  C   UNL     1     -15.747 -12.186  -5.417  1.00  0.00     0.267 C 
HETATM   18  O   UNL     1     -15.995 -13.315  -4.998  1.00  0.00    -0.264 OA
BRANCH  17  19
HETATM   19  O   UNL     1     -14.856 -11.954  -6.429  1.00  0.00    -0.326 OA
HETATM   20  C   UNL     1     -13.630 -12.686  -6.375  1.00  0.00     0.213 C 
ENDBRANCH  17  19
ENDBRANCH  14  17
BRANCH   1  21
HETATM   21  C   UNL     1     -23.623 -11.445  -1.537  1.00  0.00     0.006 C 
HETATM   22  C   UNL     1     -23.464 -12.962  -1.444  1.00  0.00     0.014 C 
HETATM   23  C   UNL     1     -23.838 -10.798  -0.173  1.00  0.00     0.014 C 
ENDBRANCH   1  21
TORSDOF 3
ENDMDL
MODEL 6
REMARK VINA RESULT:      -7.1      4.171      6.946
REMARK  3 active torsions:
REMARK  status: ('A' for Active; 'I' for Inactive)
REMARK    1  A    between atoms: C_2  and  C_4 
REMARK    2  A    between atoms: C_17  and  C_19 
REMARK    3  A    between atoms: C_19  and  O_21 
ROOT
HETATM    1  C   UNL     1     -21.366  -9.407  -0.820  1.00  0.00    -0.076 C 
HETATM    2  C   UNL     1     -20.807 -10.642  -0.704  1.00  0.00     0.010 C 
HETATM    3  C   UNL     1     -19.725 -11.041  -1.632  1.00  0.00    -0.057 C 
HETATM    4  C   UNL     1     -19.159 -12.269  -1.780  1.00  0.00    -0.019 C 
HETATM    5  C   UNL     1     -18.048 -12.587  -2.837  1.00  0.00     0.034 C 
HETATM    6  C   UNL     1     -17.572 -11.338  -3.662  1.00  0.00     0.016 C 
HETATM    7  C   UNL     1     -18.851 -10.419  -3.915  1.00  0.00    -0.031 C 
HETATM    8  C   UNL     1     -19.126  -9.904  -2.461  1.00  0.00     0.027 C 
HETATM    9  C   UNL     1     -19.759  -8.520  -2.304  1.00  0.00     0.014 C 
HETATM   10  C   UNL     1     -21.238  -8.672  -2.132  1.00  0.00     0.035 C 
HETATM   11  C   UNL     1     -18.627  -9.236  -4.876  1.00  0.00     0.010 C 
HETATM   12  C   UNL     1     -17.804  -9.614  -6.082  1.00  0.00     0.002 C 
HETATM   13  C   UNL     1     -16.458 -10.069  -5.560  1.00  0.00     0.020 C 
HETATM   14  C   UNL     1     -16.539 -11.460  -4.855  1.00  0.00     0.049 C 
HETATM   15  C   UNL     1     -16.897 -12.557  -5.871  1.00  0.00     0.026 C 
HETATM   16  C   UNL     1     -20.074 -11.197  -4.516  1.00  0.00     0.016 C 
ENDROOT
BRANCH  14  17
HETATM   17  C   UNL     1     -15.063 -11.721  -4.498  1.00  0.00     0.267 C 
HETATM   18  O   UNL     1     -14.152 -11.622  -5.318  1.00  0.00    -0.264 OA
BRANCH  17  19
HETATM   19  O   UNL     1     -14.834 -11.913  -3.163  1.00  0.00    -0.326 OA
HETATM   20  C   UNL     1     -14.260 -13.168  -2.791  1.00  0.00     0.213 C 
ENDBRANCH  17  19
ENDBRANCH  14  17
BRANCH   1  21
HETATM   21  C   UNL     1     -21.664  -8.436   0.327  1.00  0.00     0.006 C 
HETATM   22  C   UNL     1     -23.132  -8.061   0.526  1.00  0.00     0.014 C 
HETATM   23  C   UNL     1     -20.945  -8.694   1.647  1.00  0.00     0.014 C 
ENDBRANCH   1  21
TORSDOF 3
ENDMDL
MODEL 7
REMARK VINA RESULT:      -6.8     17.117     18.956
REMARK  3 active torsions:
REMARK  status: ('A' for Active; 'I' for Inactive)
REMARK    1  A    between atoms: C_2  and  C_4 
REMARK    2  A    between atoms: C_17  and  C_19 
REMARK    3  A    between atoms: C_19  and  O_21 
ROOT
HETATM    1  C   UNL     1     -24.404   8.186  -1.316  1.00  0.00    -0.076 C 
HETATM    2  C   UNL     1     -23.704   8.552  -0.207  1.00  0.00     0.010 C 
HETATM    3  C   UNL     1     -24.436   8.906   1.030  1.00  0.00    -0.057 C 
HETATM    4  C   UNL     1     -23.935   9.443   2.174  1.00  0.00    -0.019 C 
HETATM    5  C   UNL     1     -24.820   9.826   3.409  1.00  0.00     0.034 C 
HETATM    6  C   UNL     1     -26.338   9.453   3.251  1.00  0.00     0.016 C 
HETATM    7  C   UNL     1     -26.730   9.695   1.723  1.00  0.00    -0.031 C 
HETATM    8  C   UNL     1     -25.922   8.543   1.034  1.00  0.00     0.027 C 
HETATM    9  C   UNL     1     -26.495   7.942  -0.250  1.00  0.00     0.014 C 
HETATM   10  C   UNL     1     -25.851   8.598  -1.431  1.00  0.00     0.035 C 
HETATM   11  C   UNL     1     -28.232   9.569   1.406  1.00  0.00     0.010 C 
HETATM   12  C   UNL     1     -29.104  10.220   2.450  1.00  0.00     0.002 C 
HETATM   13  C   UNL     1     -28.827   9.501   3.753  1.00  0.00     0.020 C 
HETATM   14  C   UNL     1     -27.420   9.853   4.333  1.00  0.00     0.049 C 
HETATM   15  C   UNL     1     -27.364  11.333   4.745  1.00  0.00     0.026 C 
HETATM   16  C   UNL     1     -26.325  11.114   1.188  1.00  0.00     0.016 C 
ENDROOT
BRANCH  14  17
HETATM   17  C   UNL     1     -27.423   9.074   5.663  1.00  0.00     0.267 C 
HETATM   18  O   UNL     1     -27.013   9.556   6.717  1.00  0.00    -0.264 OA
BRANCH  17  19
HETATM   19  O   UNL     1     -28.063   7.866   5.605  1.00  0.00    -0.326 OA
HETATM   20  C   UNL     1     -27.916   7.015   6.743  1.00  0.00     0.213 C 
ENDBRANCH  17  19
ENDBRANCH  14  17
BRANCH   1  21
HETATM   21  C   UNL     1     -24.097   6.993  -2.226  1.00  0.00     0.006 C 
HETATM   22  C   UNL     1     -23.824   5.664  -1.523  1.00  0.00     0.014 C 
HETATM   23  C   UNL     1     -24.976   6.828  -3.461  1.00  0.00     0.014 C 
ENDBRANCH   1  21
TORSDOF 3
ENDMDL
MODEL 8
REMARK VINA RESULT:      -6.8      3.790      6.730
REMARK  3 active torsions:
REMARK  status: ('A' for Active; 'I' for Inactive)
REMARK    1  A    between atoms: C_2  and  C_4 
REMARK    2  A    between atoms: C_17  and  C_19 
REMARK    3  A    between atoms: C_19  and  O_21 
ROOT
HETATM    1  C   UNL     1     -21.442  -8.639  -1.067  1.00  0.00    -0.076 C 
HETATM    2  C   UNL     1     -21.215  -8.044  -2.270  1.00  0.00     0.010 C 
HETATM    3  C   UNL     1     -20.365  -8.728  -3.270  1.00  0.00    -0.057 C 
HETATM    4  C   UNL     1     -19.895  -8.234  -4.447  1.00  0.00    -0.019 C 
HETATM    5  C   UNL     1     -18.954  -9.039  -5.407  1.00  0.00     0.034 C 
HETATM    6  C   UNL     1     -18.665 -10.510  -4.939  1.00  0.00     0.016 C 
HETATM    7  C   UNL     1     -18.561 -10.490  -3.347  1.00  0.00    -0.031 C 
HETATM    8  C   UNL     1     -20.052 -10.194  -2.966  1.00  0.00     0.027 C 
HETATM    9  C   UNL     1     -20.572 -10.757  -1.642  1.00  0.00     0.014 C 
HETATM   10  C   UNL     1     -20.480  -9.698  -0.588  1.00  0.00     0.035 C 
HETATM   11  C   UNL     1     -18.089 -11.809  -2.706  1.00  0.00     0.010 C 
HETATM   12  C   UNL     1     -16.950 -12.448  -3.461  1.00  0.00     0.002 C 
HETATM   13  C   UNL     1     -17.470 -12.749  -4.851  1.00  0.00     0.020 C 
HETATM   14  C   UNL     1     -17.653 -11.454  -5.705  1.00  0.00     0.049 C 
HETATM   15  C   UNL     1     -16.291 -10.799  -5.986  1.00  0.00     0.026 C 
HETATM   16  C   UNL     1     -17.574  -9.402  -2.796  1.00  0.00     0.016 C 
ENDROOT
BRANCH  14  17
HETATM   17  C   UNL     1     -18.100 -12.031  -7.062  1.00  0.00     0.267 C 
HETATM   18  O   UNL     1     -19.129 -11.670  -7.631  1.00  0.00    -0.264 OA
BRANCH  17  19
HETATM   19  O   UNL     1     -17.181 -12.854  -7.652  1.00  0.00    -0.326 OA
HETATM   20  C   UNL     1     -17.699 -13.996  -8.337  1.00  0.00     0.213 C 
ENDBRANCH  17  19
ENDBRANCH  14  17
BRANCH   1  21
HETATM   21  C   UNL     1     -22.796  -8.763  -0.360  1.00  0.00     0.006 C 
HETATM   22  C   UNL     1     -23.390 -10.169  -0.288  1.00  0.00     0.014 C 
HETATM   23  C   UNL     1     -22.960  -7.995   0.947  1.00  0.00     0.014 C 
ENDBRANCH   1  21
TORSDOF 3
ENDMDL
MODEL 9
REMARK VINA RESULT:      -6.8     18.084     19.983
REMARK  3 active torsions:
REMARK  status: ('A' for Active; 'I' for Inactive)
REMARK    1  A    between atoms: C_2  and  C_4 
REMARK    2  A    between atoms: C_17  and  C_19 
REMARK    3  A    between atoms: C_19  and  O_21 
ROOT
HETATM    1  C   UNL     1     -22.310   9.856   2.221  1.00  0.00    -0.076 C 
HETATM    2  C   UNL     1     -21.327  10.394   1.448  1.00  0.00     0.010 C 
HETATM    3  C   UNL     1     -19.919  10.298   1.891  1.00  0.00    -0.057 C 
HETATM    4  C   UNL     1     -18.827  10.902   1.350  1.00  0.00    -0.019 C 
HETATM    5  C   UNL     1     -17.382  10.765   1.940  1.00  0.00     0.034 C 
HETATM    6  C   UNL     1     -17.280   9.792   3.168  1.00  0.00     0.016 C 
HETATM    7  C   UNL     1     -18.615   9.966   4.025  1.00  0.00    -0.031 C 
HETATM    8  C   UNL     1     -19.665   9.333   3.051  1.00  0.00     0.027 C 
HETATM    9  C   UNL     1     -20.888   8.652   3.669  1.00  0.00     0.014 C 
HETATM   10  C   UNL     1     -22.033   9.616   3.685  1.00  0.00     0.035 C 
HETATM   11  C   UNL     1     -18.621   9.234   5.381  1.00  0.00     0.010 C 
HETATM   12  C   UNL     1     -17.311   9.360   6.117  1.00  0.00     0.002 C 
HETATM   13  C   UNL     1     -16.257   8.725   5.234  1.00  0.00     0.020 C 
HETATM   14  C   UNL     1     -15.936   9.597   3.980  1.00  0.00     0.049 C 
HETATM   15  C   UNL     1     -15.273  10.919   4.401  1.00  0.00     0.026 C 
HETATM   16  C   UNL     1     -18.945  11.460   4.375  1.00  0.00     0.016 C 
ENDROOT
BRANCH  14  17
HETATM   17  C   UNL     1     -14.808   8.787   3.311  1.00  0.00     0.267 C 
HETATM   18  O   UNL     1     -14.553   7.624   3.618  1.00  0.00    -0.264 OA
BRANCH  17  19
HETATM   19  O   UNL     1     -14.224   9.413   2.245  1.00  0.00    -0.326 OA
HETATM   20  C   UNL     1     -14.326   8.749   0.984  1.00  0.00     0.213 C 
ENDBRANCH  17  19
ENDBRANCH  14  17
BRANCH   1  21
HETATM   21  C   UNL     1     -23.474   8.989   1.731  1.00  0.00     0.006 C 
HETATM   22  C   UNL     1     -24.876   9.501   2.057  1.00  0.00     0.014 C 
HETATM   23  C   UNL     1     -23.370   8.440   0.312  1.00  0.00     0.014 C 
ENDBRANCH   1  21
TORSDOF 3
ENDMDL
