MODEL 1
REMARK VINA RESULT:      -5.9      0.000      0.000
REMARK  11 active torsions:
REMARK  status: ('A' for Active; 'I' for Inactive)
REMARK    1  A    between atoms: C_1  and  C_2 
REMARK    2  A    between atoms: C_1  and  O_12 
REMARK    3  A    between atoms: C_2  and  C_3 
REMARK    4  A    between atoms: C_2  and  O_11 
REMARK    5  A    between atoms: C_3  and  C_4 
REMARK    6  A    between atoms: C_3  and  O_10 
REMARK    7  A    between atoms: C_4  and  C_5 
REMARK    8  A    between atoms: C_4  and  O_9 
REMARK    9  A    between atoms: C_5  and  C_6 
REMARK   10  A    between atoms: C_5  and  O_8 
REMARK   11  A    between atoms: C_6  and  O_7 
ROOT
HETATM    1  C   UNL     1     -22.802  -2.671 -12.837  1.00  0.00     0.180 C 
ENDROOT
BRANCH   1   2
HETATM    2  C   UNL     1     -23.023  -2.735 -14.379  1.00  0.00     0.173 C 
BRANCH   2   3
HETATM    3  C   UNL     1     -23.538  -1.398 -14.949  1.00  0.00     0.198 C 
BRANCH   3   4
HETATM    4  O   UNL     1     -24.761  -0.980 -14.358  1.00  0.00    -0.398 OA
HETATM    5  H   UNL     1     -25.438  -1.642 -14.612  1.00  0.00     0.209 HD
ENDBRANCH   3   4
ENDBRANCH   2   3
BRANCH   2   6
HETATM    6  O   UNL     1     -23.928  -3.765 -14.765  1.00  0.00    -0.391 OA
HETATM    7  H   UNL     1     -24.637  -3.827 -14.104  1.00  0.00     0.210 HD
ENDBRANCH   2   6
ENDBRANCH   1   2
BRANCH   1   8
HETATM    8  C   UNL     1     -23.875  -3.436 -12.008  1.00  0.00     0.180 C 
BRANCH   8   9
HETATM    9  C   UNL     1     -23.649  -3.378 -10.473  1.00  0.00     0.173 C 
BRANCH   9  10
HETATM   10  C   UNL     1     -24.780  -4.086  -9.706  1.00  0.00     0.198 C 
BRANCH  10  11
HETATM   11  O   UNL     1     -25.934  -3.243  -9.662  1.00  0.00    -0.398 OA
HETATM   12  H   UNL     1     -26.552  -3.595 -10.330  1.00  0.00     0.209 HD
ENDBRANCH  10  11
ENDBRANCH   9  10
BRANCH   9  13
HETATM   13  O   UNL     1     -22.417  -3.978 -10.056  1.00  0.00    -0.391 OA
HETATM   14  H   UNL     1     -22.456  -4.929 -10.247  1.00  0.00     0.210 HD
ENDBRANCH   9  13
ENDBRANCH   8   9
BRANCH   8  15
HETATM   15  O   UNL     1     -25.189  -2.952 -12.288  1.00  0.00    -0.390 OA
HETATM   16  H   UNL     1     -25.290  -2.068 -11.893  1.00  0.00     0.210 HD
ENDBRANCH   8  15
ENDBRANCH   1   8
BRANCH   1  17
HETATM   17  O   UNL     1     -21.483  -3.153 -12.546  1.00  0.00    -0.390 OA
HETATM   18  H   UNL     1     -20.849  -2.615 -13.051  1.00  0.00     0.210 HD
ENDBRANCH   1  17
TORSDOF 11
ENDMDL
MODEL 2
REMARK VINA RESULT:      -5.5      0.994      2.247
REMARK  11 active torsions:
REMARK  status: ('A' for Active; 'I' for Inactive)
REMARK    1  A    between atoms: C_1  and  C_2 
REMARK    2  A    between atoms: C_1  and  O_12 
REMARK    3  A    between atoms: C_2  and  C_3 
REMARK    4  A    between atoms: C_2  and  O_11 
REMARK    5  A    between atoms: C_3  and  C_4 
REMARK    6  A    between atoms: C_3  and  O_10 
REMARK    7  A    between atoms: C_4  and  C_5 
REMARK    8  A    between atoms: C_4  and  O_9 
REMARK    9  A    between atoms: C_5  and  C_6 
REMARK   10  A    between atoms: C_5  and  O_8 
REMARK   11  A    between atoms: C_6  and  O_7 
ROOT
HETATM    1  C   UNL     1     -24.108  -3.251 -12.559  1.00  0.00     0.180 C 
ENDROOT
BRANCH   1   2
HETATM    2  C   UNL     1     -23.238  -2.426 -13.555  1.00  0.00     0.173 C 
BRANCH   2   3
HETATM    3  C   UNL     1     -24.061  -1.894 -14.745  1.00  0.00     0.198 C 
BRANCH   3   4
HETATM    4  O   UNL     1     -24.794  -0.719 -14.429  1.00  0.00    -0.398 OA
HETATM    5  H   UNL     1     -25.277  -0.459 -15.243  1.00  0.00     0.209 HD
ENDBRANCH   3   4
ENDBRANCH   2   3
BRANCH   2   6
HETATM    6  O   UNL     1     -22.134  -3.168 -14.070  1.00  0.00    -0.391 OA
HETATM    7  H   UNL     1     -22.153  -3.129 -15.041  1.00  0.00     0.210 HD
ENDBRANCH   2   6
ENDBRANCH   1   2
BRANCH   1   8
HETATM    8  C   UNL     1     -23.567  -3.264 -11.100  1.00  0.00     0.180 C 
BRANCH   8   9
HETATM    9  C   UNL     1     -24.496  -3.983 -10.086  1.00  0.00     0.173 C 
BRANCH   9  10
HETATM   10  C   UNL     1     -23.773  -4.269  -8.758  1.00  0.00     0.198 C 
BRANCH  10  11
HETATM   11  O   UNL     1     -22.895  -3.185  -8.444  1.00  0.00    -0.398 OA
HETATM   12  H   UNL     1     -23.185  -2.845  -7.576  1.00  0.00     0.209 HD
ENDBRANCH  10  11
ENDBRANCH   9  10
BRANCH   9  13
HETATM   13  O   UNL     1     -25.678  -3.238  -9.770  1.00  0.00    -0.391 OA
HETATM   14  H   UNL     1     -25.476  -2.632  -9.039  1.00  0.00     0.210 HD
ENDBRANCH   9  13
ENDBRANCH   8   9
BRANCH   8  15
HETATM   15  O   UNL     1     -22.274  -3.868 -11.032  1.00  0.00    -0.390 OA
HETATM   16  H   UNL     1     -21.634  -3.208 -10.713  1.00  0.00     0.210 HD
ENDBRANCH   8  15
ENDBRANCH   1   8
BRANCH   1  17
HETATM   17  O   UNL     1     -25.451  -2.751 -12.608  1.00  0.00    -0.390 OA
HETATM   18  H   UNL     1     -26.017  -3.447 -12.986  1.00  0.00     0.210 HD
ENDBRANCH   1  17
TORSDOF 11
ENDMDL
MODEL 3
REMARK VINA RESULT:      -5.5      1.488      1.865
REMARK  11 active torsions:
REMARK  status: ('A' for Active; 'I' for Inactive)
REMARK    1  A    between atoms: C_1  and  C_2 
REMARK    2  A    between atoms: C_1  and  O_12 
REMARK    3  A    between atoms: C_2  and  C_3 
REMARK    4  A    between atoms: C_2  and  O_11 
REMARK    5  A    between atoms: C_3  and  C_4 
REMARK    6  A    between atoms: C_3  and  O_10 
REMARK    7  A    between atoms: C_4  and  C_5 
REMARK    8  A    between atoms: C_4  and  O_9 
REMARK    9  A    between atoms: C_5  and  C_6 
REMARK   10  A    between atoms: C_5  and  O_8 
REMARK   11  A    between atoms: C_6  and  O_7 
ROOT
HETATM    1  C   UNL     1     -22.686  -3.004 -12.311  1.00  0.00     0.180 C 
ENDROOT
BRANCH   1   2
HETATM    2  C   UNL     1     -23.683  -2.928 -13.506  1.00  0.00     0.173 C 
BRANCH   2   3
HETATM    3  C   UNL     1     -23.034  -2.321 -14.766  1.00  0.00     0.198 C 
BRANCH   3   4
HETATM    4  O   UNL     1     -22.242  -3.256 -15.486  1.00  0.00    -0.398 OA
HETATM    5  H   UNL     1     -22.651  -3.348 -16.373  1.00  0.00     0.209 HD
ENDBRANCH   3   4
ENDBRANCH   2   3
BRANCH   2   6
HETATM    6  O   UNL     1     -24.856  -2.179 -13.201  1.00  0.00    -0.391 OA
HETATM    7  H   UNL     1     -25.073  -2.301 -12.261  1.00  0.00     0.210 HD
ENDBRANCH   2   6
ENDBRANCH   1   2
BRANCH   1   8
HETATM    8  C   UNL     1     -23.282  -3.649 -11.024  1.00  0.00     0.180 C 
BRANCH   8   9
HETATM    9  C   UNL     1     -22.333  -3.605  -9.796  1.00  0.00     0.173 C 
BRANCH   9  10
HETATM   10  C   UNL     1     -22.858  -4.477  -8.643  1.00  0.00     0.198 C 
BRANCH  10  11
HETATM   11  O   UNL     1     -24.064  -3.913  -8.122  1.00  0.00    -0.398 OA
HETATM   12  H   UNL     1     -23.922  -3.811  -7.161  1.00  0.00     0.209 HD
ENDBRANCH  10  11
ENDBRANCH   9  10
BRANCH   9  13
HETATM   13  O   UNL     1     -21.003  -4.049 -10.089  1.00  0.00    -0.391 OA
HETATM   14  H   UNL     1     -20.641  -4.482  -9.299  1.00  0.00     0.210 HD
ENDBRANCH   9  13
ENDBRANCH   8   9
BRANCH   8  15
HETATM   15  O   UNL     1     -24.517  -3.032 -10.661  1.00  0.00    -0.390 OA
HETATM   16  H   UNL     1     -24.545  -2.928  -9.693  1.00  0.00     0.210 HD
ENDBRANCH   8  15
ENDBRANCH   1   8
BRANCH   1  17
HETATM   17  O   UNL     1     -21.511  -3.704 -12.742  1.00  0.00    -0.390 OA
HETATM   18  H   UNL     1     -21.796  -4.494 -13.235  1.00  0.00     0.210 HD
ENDBRANCH   1  17
TORSDOF 11
ENDMDL
MODEL 4
REMARK VINA RESULT:      -5.4      1.398      4.643
REMARK  11 active torsions:
REMARK  status: ('A' for Active; 'I' for Inactive)
REMARK    1  A    between atoms: C_1  and  C_2 
REMARK    2  A    between atoms: C_1  and  O_12 
REMARK    3  A    between atoms: C_2  and  C_3 
REMARK    4  A    between atoms: C_2  and  O_11 
REMARK    5  A    between atoms: C_3  and  C_4 
REMARK    6  A    between atoms: C_3  and  O_10 
REMARK    7  A    between atoms: C_4  and  C_5 
REMARK    8  A    between atoms: C_4  and  O_9 
REMARK    9  A    between atoms: C_5  and  C_6 
REMARK   10  A    between atoms: C_5  and  O_8 
REMARK   11  A    between atoms: C_6  and  O_7 
ROOT
HETATM    1  C   UNL     1     -24.091  -3.262 -11.404  1.00  0.00     0.180 C 
ENDROOT
BRANCH   1   2
HETATM    2  C   UNL     1     -23.252  -4.533 -11.070  1.00  0.00     0.173 C 
BRANCH   2   3
HETATM    3  C   UNL     1     -22.855  -4.593  -9.581  1.00  0.00     0.198 C 
BRANCH   3   4
HETATM    4  O   UNL     1     -23.006  -3.346  -8.917  1.00  0.00    -0.398 OA
HETATM    5  H   UNL     1     -23.890  -3.358  -8.492  1.00  0.00     0.209 HD
ENDBRANCH   3   4
ENDBRANCH   2   3
BRANCH   2   6
HETATM    6  O   UNL     1     -22.066  -4.634 -11.854  1.00  0.00    -0.391 OA
HETATM    7  H   UNL     1     -21.298  -4.681 -11.261  1.00  0.00     0.210 HD
ENDBRANCH   2   6
ENDBRANCH   1   2
BRANCH   1   8
HETATM    8  C   UNL     1     -24.527  -3.160 -12.895  1.00  0.00     0.180 C 
BRANCH   8   9
HETATM    9  C   UNL     1     -23.792  -2.052 -13.696  1.00  0.00     0.173 C 
BRANCH   9  10
HETATM   10  C   UNL     1     -22.826  -2.650 -14.734  1.00  0.00     0.198 C 
BRANCH  10  11
HETATM   11  O   UNL     1     -22.636  -1.722 -15.805  1.00  0.00    -0.398 OA
HETATM   12  H   UNL     1     -21.672  -1.670 -15.950  1.00  0.00     0.209 HD
ENDBRANCH  10  11
ENDBRANCH   9  10
BRANCH   9  13
HETATM   13  O   UNL     1     -24.680  -1.176 -14.401  1.00  0.00    -0.391 OA
HETATM   14  H   UNL     1     -25.573  -1.281 -14.035  1.00  0.00     0.210 HD
ENDBRANCH   9  13
ENDBRANCH   8   9
BRANCH   8  15
HETATM   15  O   UNL     1     -24.344  -4.403 -13.574  1.00  0.00    -0.390 OA
HETATM   16  H   UNL     1     -23.490  -4.786 -13.306  1.00  0.00     0.210 HD
ENDBRANCH   8  15
ENDBRANCH   1   8
BRANCH   1  17
HETATM   17  O   UNL     1     -25.227  -3.224 -10.529  1.00  0.00    -0.390 OA
HETATM   18  H   UNL     1     -25.979  -3.629 -10.996  1.00  0.00     0.210 HD
ENDBRANCH   1  17
TORSDOF 11
ENDMDL
MODEL 5
REMARK VINA RESULT:      -5.3      1.184      4.468
REMARK  11 active torsions:
REMARK  status: ('A' for Active; 'I' for Inactive)
REMARK    1  A    between atoms: C_1  and  C_2 
REMARK    2  A    between atoms: C_1  and  O_12 
REMARK    3  A    between atoms: C_2  and  C_3 
REMARK    4  A    between atoms: C_2  and  O_11 
REMARK    5  A    between atoms: C_3  and  C_4 
REMARK    6  A    between atoms: C_3  and  O_10 
REMARK    7  A    between atoms: C_4  and  C_5 
REMARK    8  A    between atoms: C_4  and  O_9 
REMARK    9  A    between atoms: C_5  and  C_6 
REMARK   10  A    between atoms: C_5  and  O_8 
REMARK   11  A    between atoms: C_6  and  O_7 
ROOT
HETATM    1  C   UNL     1     -22.921  -3.540 -12.146  1.00  0.00     0.180 C 
ENDROOT
BRANCH   1   2
HETATM    2  C   UNL     1     -23.279  -3.701 -10.638  1.00  0.00     0.173 C 
BRANCH   2   3
HETATM    3  C   UNL     1     -22.187  -4.459  -9.858  1.00  0.00     0.198 C 
BRANCH   3   4
HETATM    4  O   UNL     1     -22.480  -4.581  -8.473  1.00  0.00    -0.398 OA
HETATM    5  H   UNL     1     -22.360  -3.690  -8.080  1.00  0.00     0.209 HD
ENDBRANCH   3   4
ENDBRANCH   2   3
BRANCH   2   6
HETATM    6  O   UNL     1     -24.522  -4.369 -10.433  1.00  0.00    -0.391 OA
HETATM    7  H   UNL     1     -25.179  -3.724 -10.123  1.00  0.00     0.210 HD
ENDBRANCH   2   6
ENDBRANCH   1   2
BRANCH   1   8
HETATM    8  C   UNL     1     -23.856  -2.567 -12.923  1.00  0.00     0.180 C 
BRANCH   8   9
HETATM    9  C   UNL     1     -23.615  -2.546 -14.457  1.00  0.00     0.173 C 
BRANCH   9  10
HETATM   10  C   UNL     1     -23.682  -1.116 -15.021  1.00  0.00     0.198 C 
BRANCH  10  11
HETATM   11  O   UNL     1     -24.936  -0.520 -14.680  1.00  0.00    -0.398 OA
HETATM   12  H   UNL     1     -25.451  -0.482 -15.508  1.00  0.00     0.209 HD
ENDBRANCH  10  11
ENDBRANCH   9  10
BRANCH   9  13
HETATM   13  O   UNL     1     -22.347  -3.092 -14.840  1.00  0.00    -0.391 OA
HETATM   14  H   UNL     1     -22.398  -4.059 -14.785  1.00  0.00     0.210 HD
ENDBRANCH   9  13
ENDBRANCH   8   9
BRANCH   8  15
HETATM   15  O   UNL     1     -25.232  -2.873 -12.689  1.00  0.00    -0.390 OA
HETATM   16  H   UNL     1     -25.658  -2.108 -12.265  1.00  0.00     0.210 HD
ENDBRANCH   8  15
ENDBRANCH   1   8
BRANCH   1  17
HETATM   17  O   UNL     1     -21.551  -3.129 -12.247  1.00  0.00    -0.390 OA
HETATM   18  H   UNL     1     -21.513  -2.350 -12.828  1.00  0.00     0.210 HD
ENDBRANCH   1  17
TORSDOF 11
ENDMDL
MODEL 6
REMARK VINA RESULT:      -5.2      1.386      4.630
REMARK  11 active torsions:
REMARK  status: ('A' for Active; 'I' for Inactive)
REMARK    1  A    between atoms: C_1  and  C_2 
REMARK    2  A    between atoms: C_1  and  O_12 
REMARK    3  A    between atoms: C_2  and  C_3 
REMARK    4  A    between atoms: C_2  and  O_11 
REMARK    5  A    between atoms: C_3  and  C_4 
REMARK    6  A    between atoms: C_3  and  O_10 
REMARK    7  A    between atoms: C_4  and  C_5 
REMARK    8  A    between atoms: C_4  and  O_9 
REMARK    9  A    between atoms: C_5  and  C_6 
REMARK   10  A    between atoms: C_5  and  O_8 
REMARK   11  A    between atoms: C_6  and  O_7 
ROOT
HETATM    1  C   UNL     1     -24.129  -4.088 -10.890  1.00  0.00     0.180 C 
ENDROOT
BRANCH   1   2
HETATM    2  C   UNL     1     -23.423  -3.605  -9.587  1.00  0.00     0.173 C 
BRANCH   2   3
HETATM    3  C   UNL     1     -22.158  -4.427  -9.271  1.00  0.00     0.198 C 
BRANCH   3   4
HETATM    4  O   UNL     1     -21.095  -4.180 -10.183  1.00  0.00    -0.398 OA
HETATM    5  H   UNL     1     -21.063  -3.209 -10.321  1.00  0.00     0.209 HD
ENDBRANCH   3   4
ENDBRANCH   2   3
BRANCH   2   6
HETATM    6  O   UNL     1     -24.279  -3.645  -8.448  1.00  0.00    -0.391 OA
HETATM    7  H   UNL     1     -25.138  -3.259  -8.685  1.00  0.00     0.210 HD
ENDBRANCH   2   6
ENDBRANCH   1   2
BRANCH   1   8
HETATM    8  C   UNL     1     -24.050  -3.076 -12.071  1.00  0.00     0.180 C 
BRANCH   8   9
HETATM    9  C   UNL     1     -23.111  -3.521 -13.224  1.00  0.00     0.173 C 
BRANCH   9  10
HETATM   10  C   UNL     1     -23.158  -2.535 -14.405  1.00  0.00     0.198 C 
BRANCH  10  11
HETATM   11  O   UNL     1     -22.256  -2.965 -15.428  1.00  0.00    -0.398 OA
HETATM   12  H   UNL     1     -21.364  -2.939 -15.030  1.00  0.00     0.209 HD
ENDBRANCH  10  11
ENDBRANCH   9  10
BRANCH   9  13
HETATM   13  O   UNL     1     -21.739  -3.638 -12.827  1.00  0.00    -0.391 OA
HETATM   14  H   UNL     1     -21.314  -2.770 -12.924  1.00  0.00     0.210 HD
ENDBRANCH   9  13
ENDBRANCH   8   9
BRANCH   8  15
HETATM   15  O   UNL     1     -25.343  -2.817 -12.618  1.00  0.00    -0.390 OA
HETATM   16  H   UNL     1     -25.890  -3.617 -12.526  1.00  0.00     0.210 HD
ENDBRANCH   8  15
ENDBRANCH   1   8
BRANCH   1  17
HETATM   17  O   UNL     1     -23.578  -5.359 -11.261  1.00  0.00    -0.390 OA
HETATM   18  H   UNL     1     -22.798  -5.523 -10.701  1.00  0.00     0.210 HD
ENDBRANCH   1  17
TORSDOF 11
ENDMDL
MODEL 7
REMARK VINA RESULT:      -5.2      1.324      4.530
REMARK  11 active torsions:
REMARK  status: ('A' for Active; 'I' for Inactive)
REMARK    1  A    between atoms: C_1  and  C_2 
REMARK    2  A    between atoms: C_1  and  O_12 
REMARK    3  A    between atoms: C_2  and  C_3 
REMARK    4  A    between atoms: C_2  and  O_11 
REMARK    5  A    between atoms: C_3  and  C_4 
REMARK    6  A    between atoms: C_3  and  O_10 
REMARK    7  A    between atoms: C_4  and  C_5 
REMARK    8  A    between atoms: C_4  and  O_9 
REMARK    9  A    between atoms: C_5  and  C_6 
REMARK   10  A    between atoms: C_5  and  O_8 
REMARK   11  A    between atoms: C_6  and  O_7 
ROOT
HETATM    1  C   UNL     1     -23.836  -3.885 -12.222  1.00  0.00     0.180 C 
ENDROOT
BRANCH   1   2
HETATM    2  C   UNL     1     -23.457  -4.066 -10.721  1.00  0.00     0.173 C 
BRANCH   2   3
HETATM    3  C   UNL     1     -24.519  -3.468  -9.777  1.00  0.00     0.198 C 
BRANCH   3   4
HETATM    4  O   UNL     1     -24.228  -3.693  -8.404  1.00  0.00    -0.398 OA
HETATM    5  H   UNL     1     -24.335  -2.831  -7.948  1.00  0.00     0.209 HD
ENDBRANCH   3   4
ENDBRANCH   2   3
BRANCH   2   6
HETATM    6  O   UNL     1     -22.194  -3.491 -10.397  1.00  0.00    -0.391 OA
HETATM    7  H   UNL     1     -21.672  -3.396 -11.210  1.00  0.00     0.210 HD
ENDBRANCH   2   6
ENDBRANCH   1   2
BRANCH   1   8
HETATM    8  C   UNL     1     -22.882  -2.941 -13.011  1.00  0.00     0.180 C 
BRANCH   8   9
HETATM    9  C   UNL     1     -23.267  -2.754 -14.503  1.00  0.00     0.173 C 
BRANCH   9  10
HETATM   10  C   UNL     1     -23.524  -1.275 -14.841  1.00  0.00     0.198 C 
BRANCH  10  11
HETATM   11  O   UNL     1     -24.835  -0.902 -14.409  1.00  0.00    -0.398 OA
HETATM   12  H   UNL     1     -24.709  -0.307 -13.645  1.00  0.00     0.209 HD
ENDBRANCH  10  11
ENDBRANCH   9  10
BRANCH   9  13
HETATM   13  O   UNL     1     -22.266  -3.226 -15.413  1.00  0.00    -0.391 OA
HETATM   14  H   UNL     1     -21.702  -2.478 -15.667  1.00  0.00     0.210 HD
ENDBRANCH   9  13
ENDBRANCH   8   9
BRANCH   8  15
HETATM   15  O   UNL     1     -22.807  -1.653 -12.401  1.00  0.00    -0.390 OA
HETATM   16  H   UNL     1     -22.722  -1.764 -11.438  1.00  0.00     0.210 HD
ENDBRANCH   8  15
ENDBRANCH   1   8
BRANCH   1  17
HETATM   17  O   UNL     1     -23.903  -5.181 -12.833  1.00  0.00    -0.390 OA
HETATM   18  H   UNL     1     -23.129  -5.693 -12.538  1.00  0.00     0.210 HD
ENDBRANCH   1  17
TORSDOF 11
ENDMDL
MODEL 8
REMARK VINA RESULT:      -5.2      1.770      2.998
REMARK  11 active torsions:
REMARK  status: ('A' for Active; 'I' for Inactive)
REMARK    1  A    between atoms: C_1  and  C_2 
REMARK    2  A    between atoms: C_1  and  O_12 
REMARK    3  A    between atoms: C_2  and  C_3 
REMARK    4  A    between atoms: C_2  and  O_11 
REMARK    5  A    between atoms: C_3  and  C_4 
REMARK    6  A    between atoms: C_3  and  O_10 
REMARK    7  A    between atoms: C_4  and  C_5 
REMARK    8  A    between atoms: C_4  and  O_9 
REMARK    9  A    between atoms: C_5  and  C_6 
REMARK   10  A    between atoms: C_5  and  O_8 
REMARK   11  A    between atoms: C_6  and  O_7 
ROOT
HETATM    1  C   UNL     1     -23.344  -3.626 -11.271  1.00  0.00     0.180 C 
ENDROOT
BRANCH   1   2
HETATM    2  C   UNL     1     -22.643  -2.997 -12.513  1.00  0.00     0.173 C 
BRANCH   2   3
HETATM    3  C   UNL     1     -23.586  -2.904 -13.728  1.00  0.00     0.198 C 
BRANCH   3   4
HETATM    4  O   UNL     1     -24.363  -1.713 -13.736  1.00  0.00    -0.398 OA
HETATM    5  H   UNL     1     -24.298  -1.328 -12.836  1.00  0.00     0.209 HD
ENDBRANCH   3   4
ENDBRANCH   2   3
BRANCH   2   6
HETATM    6  O   UNL     1     -21.473  -3.710 -12.907  1.00  0.00    -0.391 OA
HETATM    7  H   UNL     1     -20.813  -3.651 -12.197  1.00  0.00     0.210 HD
ENDBRANCH   2   6
ENDBRANCH   1   2
BRANCH   1   8
HETATM    8  C   UNL     1     -22.518  -3.529  -9.955  1.00  0.00     0.180 C 
BRANCH   8   9
HETATM    9  C   UNL     1     -23.099  -4.359  -8.779  1.00  0.00     0.173 C 
BRANCH   9  10
HETATM   10  C   UNL     1     -22.119  -4.427  -7.595  1.00  0.00     0.198 C 
BRANCH  10  11
HETATM   11  O   UNL     1     -21.698  -3.107  -7.241  1.00  0.00    -0.398 OA
HETATM   12  H   UNL     1     -21.282  -3.183  -6.361  1.00  0.00     0.209 HD
ENDBRANCH  10  11
ENDBRANCH   9  10
BRANCH   9  13
HETATM   13  O   UNL     1     -24.336  -3.842  -8.274  1.00  0.00    -0.391 OA
HETATM   14  H   UNL     1     -24.138  -3.170  -7.602  1.00  0.00     0.210 HD
ENDBRANCH   9  13
ENDBRANCH   8   9
BRANCH   8  15
HETATM   15  O   UNL     1     -21.163  -3.931 -10.163  1.00  0.00    -0.390 OA
HETATM   16  H   UNL     1     -20.707  -3.960  -9.304  1.00  0.00     0.210 HD
ENDBRANCH   8  15
ENDBRANCH   1   8
BRANCH   1  17
HETATM   17  O   UNL     1     -24.633  -3.016 -11.119  1.00  0.00    -0.390 OA
HETATM   18  H   UNL     1     -25.309  -3.695 -11.289  1.00  0.00     0.210 HD
ENDBRANCH   1  17
TORSDOF 11
ENDMDL
MODEL 9
REMARK VINA RESULT:      -5.1      6.285      7.655
REMARK  11 active torsions:
REMARK  status: ('A' for Active; 'I' for Inactive)
REMARK    1  A    between atoms: C_1  and  C_2 
REMARK    2  A    between atoms: C_1  and  O_12 
REMARK    3  A    between atoms: C_2  and  C_3 
REMARK    4  A    between atoms: C_2  and  O_11 
REMARK    5  A    between atoms: C_3  and  C_4 
REMARK    6  A    between atoms: C_3  and  O_10 
REMARK    7  A    between atoms: C_4  and  C_5 
REMARK    8  A    between atoms: C_4  and  O_9 
REMARK    9  A    between atoms: C_5  and  C_6 
REMARK   10  A    between atoms: C_5  and  O_8 
REMARK   11  A    between atoms: C_6  and  O_7 
ROOT
HETATM    1  C   UNL     1     -28.141  -6.658 -16.403  1.00  0.00     0.180 C 
ENDROOT
BRANCH   1   2
HETATM    2  C   UNL     1     -29.236  -6.891 -17.487  1.00  0.00     0.173 C 
BRANCH   2   3
HETATM    3  C   UNL     1     -30.612  -6.348 -17.051  1.00  0.00     0.198 C 
BRANCH   3   4
HETATM    4  O   UNL     1     -30.751  -4.951 -17.272  1.00  0.00    -0.398 OA
HETATM    5  H   UNL     1     -30.805  -4.823 -18.243  1.00  0.00     0.209 HD
ENDBRANCH   3   4
ENDBRANCH   2   3
BRANCH   2   6
HETATM    6  O   UNL     1     -29.386  -8.265 -17.835  1.00  0.00    -0.391 OA
HETATM    7  H   UNL     1     -29.490  -8.337 -18.798  1.00  0.00     0.210 HD
ENDBRANCH   2   6
ENDBRANCH   1   2
BRANCH   1   8
HETATM    8  C   UNL     1     -26.760  -6.222 -16.976  1.00  0.00     0.180 C 
BRANCH   8   9
HETATM    9  C   UNL     1     -25.546  -6.707 -16.138  1.00  0.00     0.173 C 
BRANCH   9  10
HETATM   10  C   UNL     1     -24.481  -7.381 -17.021  1.00  0.00     0.198 C 
BRANCH  10  11
HETATM   11  O   UNL     1     -23.740  -8.326 -16.246  1.00  0.00    -0.398 OA
HETATM   12  H   UNL     1     -24.207  -8.401 -15.391  1.00  0.00     0.209 HD
ENDBRANCH  10  11
ENDBRANCH   9  10
BRANCH   9  13
HETATM   13  O   UNL     1     -24.893  -5.652 -15.421  1.00  0.00    -0.391 OA
HETATM   14  H   UNL     1     -24.933  -5.853 -14.472  1.00  0.00     0.210 HD
ENDBRANCH   9  13
ENDBRANCH   8   9
BRANCH   8  15
HETATM   15  O   UNL     1     -26.589  -6.677 -18.319  1.00  0.00    -0.390 OA
HETATM   16  H   UNL     1     -26.622  -7.649 -18.329  1.00  0.00     0.210 HD
ENDBRANCH   8  15
ENDBRANCH   1   8
BRANCH   1  17
HETATM   17  O   UNL     1     -28.634  -5.698 -15.458  1.00  0.00    -0.390 OA
HETATM   18  H   UNL     1     -28.157  -5.830 -14.620  1.00  0.00     0.210 HD
ENDBRANCH   1  17
TORSDOF 11
ENDMDL
