MODEL 1
REMARK VINA RESULT:      -9.8      0.000      0.000
REMARK  12 active torsions:
REMARK  status: ('A' for Active; 'I' for Inactive)
REMARK    1  A    between atoms: C_2  and  C_19 
REMARK    2  A    between atoms: C_3  and  C_4 
REMARK    3  A    between atoms: C_5  and  C_6 
REMARK    4  A    between atoms: C_7  and  C_9 
REMARK    5  A    between atoms: C_10  and  C_11 
REMARK    6  A    between atoms: C_12  and  C_14 
REMARK    7  A    between atoms: C_15  and  C_16 
REMARK    8  A    between atoms: C_16  and  O_18 
REMARK    9  A    between atoms: C_20  and  C_21 
REMARK   10  A    between atoms: C_22  and  C_24 
REMARK   11  A    between atoms: C_25  and  C_26 
REMARK   12  A    between atoms: C_26  and  O_28 
ROOT
HETATM    1  C   UNL     1     -21.675  -6.708  -4.889  1.00  0.00     0.001 C 
HETATM    2  C   UNL     1     -21.016  -6.761  -6.057  1.00  0.00     0.001 C 
ENDROOT
BRANCH   1   3
HETATM    3  C   UNL     1     -21.417  -7.630  -3.790  1.00  0.00     0.007 C 
HETATM    4  C   UNL     1     -21.597  -7.389  -2.473  1.00  0.00    -0.062 C 
HETATM    5  C   UNL     1     -22.115  -6.072  -1.934  1.00  0.00     0.048 C 
BRANCH   4   6
HETATM    6  C   UNL     1     -21.285  -8.434  -1.475  1.00  0.00     0.007 C 
HETATM    7  C   UNL     1     -21.884  -9.639  -1.440  1.00  0.00     0.001 C 
BRANCH   7   8
HETATM    8  C   UNL     1     -21.647 -10.725  -0.503  1.00  0.00     0.007 C 
HETATM    9  C   UNL     1     -22.615 -11.463   0.098  1.00  0.00    -0.062 C 
HETATM   10  C   UNL     1     -24.100 -11.261  -0.120  1.00  0.00     0.048 C 
BRANCH   9  11
HETATM   11  C   UNL     1     -22.255 -12.543   1.034  1.00  0.00     0.013 C 
HETATM   12  C   UNL     1     -23.125 -13.429   1.553  1.00  0.00     0.082 C 
BRANCH  12  13
HETATM   13  C   UNL     1     -22.664 -14.476   2.484  1.00  0.00     0.165 C 
HETATM   14  O   UNL     1     -21.543 -14.954   2.462  1.00  0.00    -0.647 OA
BRANCH  13  15
HETATM   15  O   UNL     1     -23.615 -14.854   3.366  1.00  0.00    -0.773 OA
HETATM   16  H   UNL     1     -24.151 -14.128   3.734  1.00  0.00     0.167 HD
ENDBRANCH  13  15
ENDBRANCH  12  13
ENDBRANCH   9  11
ENDBRANCH   7   8
ENDBRANCH   4   6
ENDBRANCH   1   3
BRANCH   2  17
HETATM   17  C   UNL     1     -21.250  -5.854  -7.174  1.00  0.00     0.007 C 
HETATM   18  C   UNL     1     -20.394  -4.909  -7.625  1.00  0.00    -0.062 C 
HETATM   19  C   UNL     1     -19.034  -4.661  -7.006  1.00  0.00     0.048 C 
BRANCH  18  20
HETATM   20  C   UNL     1     -20.759  -4.051  -8.774  1.00  0.00     0.007 C 
HETATM   21  C   UNL     1     -20.724  -4.470 -10.052  1.00  0.00     0.001 C 
BRANCH  21  22
HETATM   22  C   UNL     1     -21.058  -3.721 -11.249  1.00  0.00     0.007 C 
HETATM   23  C   UNL     1     -22.242  -3.802 -11.905  1.00  0.00    -0.062 C 
HETATM   24  C   UNL     1     -23.395  -4.691 -11.483  1.00  0.00     0.048 C 
BRANCH  23  25
HETATM   25  C   UNL     1     -22.470  -2.994 -13.112  1.00  0.00     0.013 C 
HETATM   26  C   UNL     1     -23.606  -2.333 -13.400  1.00  0.00     0.082 C 
BRANCH  26  27
HETATM   27  C   UNL     1     -23.734  -1.547 -14.642  1.00  0.00     0.165 C 
HETATM   28  O   UNL     1     -22.983  -1.631 -15.597  1.00  0.00    -0.647 OA
BRANCH  27  29
HETATM   29  O   UNL     1     -24.793  -0.712 -14.605  1.00  0.00    -0.773 OA
HETATM   30  H   UNL     1     -24.618   0.209 -14.863  1.00  0.00     0.167 HD
ENDBRANCH  27  29
ENDBRANCH  26  27
ENDBRANCH  23  25
ENDBRANCH  21  22
ENDBRANCH  18  20
ENDBRANCH   2  17
TORSDOF 12
ENDMDL
MODEL 2
REMARK VINA RESULT:      -9.4      0.669     14.412
REMARK  12 active torsions:
REMARK  status: ('A' for Active; 'I' for Inactive)
REMARK    1  A    between atoms: C_2  and  C_19 
REMARK    2  A    between atoms: C_3  and  C_4 
REMARK    3  A    between atoms: C_5  and  C_6 
REMARK    4  A    between atoms: C_7  and  C_9 
REMARK    5  A    between atoms: C_10  and  C_11 
REMARK    6  A    between atoms: C_12  and  C_14 
REMARK    7  A    between atoms: C_15  and  C_16 
REMARK    8  A    between atoms: C_16  and  O_18 
REMARK    9  A    between atoms: C_20  and  C_21 
REMARK   10  A    between atoms: C_22  and  C_24 
REMARK   11  A    between atoms: C_25  and  C_26 
REMARK   12  A    between atoms: C_26  and  O_28 
ROOT
HETATM    1  C   UNL     1     -21.165  -7.165  -5.593  1.00  0.00     0.001 C 
HETATM    2  C   UNL     1     -21.443  -6.869  -4.313  1.00  0.00     0.001 C 
ENDROOT
BRANCH   1   3
HETATM    3  C   UNL     1     -21.342  -6.215  -6.683  1.00  0.00     0.007 C 
HETATM    4  C   UNL     1     -20.609  -5.104  -6.914  1.00  0.00    -0.062 C 
HETATM    5  C   UNL     1     -19.453  -4.675  -6.034  1.00  0.00     0.048 C 
BRANCH   4   6
HETATM    6  C   UNL     1     -20.916  -4.235  -8.070  1.00  0.00     0.007 C 
HETATM    7  C   UNL     1     -20.745  -4.606  -9.353  1.00  0.00     0.001 C 
BRANCH   7   8
HETATM    8  C   UNL     1     -21.016  -3.827 -10.549  1.00  0.00     0.007 C 
HETATM    9  C   UNL     1     -22.225  -3.723 -11.157  1.00  0.00    -0.062 C 
HETATM   10  C   UNL     1     -23.484  -4.411 -10.673  1.00  0.00     0.048 C 
BRANCH   9  11
HETATM   11  C   UNL     1     -22.381  -2.901 -12.371  1.00  0.00     0.013 C 
HETATM   12  C   UNL     1     -23.343  -3.075 -13.296  1.00  0.00     0.082 C 
BRANCH  12  13
HETATM   13  C   UNL     1     -23.414  -2.197 -14.478  1.00  0.00     0.165 C 
HETATM   14  O   UNL     1     -22.658  -2.283 -15.431  1.00  0.00    -0.647 OA
BRANCH  13  15
HETATM   15  O   UNL     1     -24.404  -1.280 -14.397  1.00  0.00    -0.773 OA
HETATM   16  H   UNL     1     -24.263  -0.577 -13.738  1.00  0.00     0.167 HD
ENDBRANCH  13  15
ENDBRANCH  12  13
ENDBRANCH   9  11
ENDBRANCH   7   8
ENDBRANCH   4   6
ENDBRANCH   1   3
BRANCH   2  17
HETATM   17  C   UNL     1     -21.277  -7.796  -3.200  1.00  0.00     0.007 C 
HETATM   18  C   UNL     1     -21.620  -7.563  -1.913  1.00  0.00    -0.062 C 
HETATM   19  C   UNL     1     -22.243  -6.263  -1.444  1.00  0.00     0.048 C 
BRANCH  18  20
HETATM   20  C   UNL     1     -21.396  -8.595  -0.877  1.00  0.00     0.007 C 
HETATM   21  C   UNL     1     -21.530  -9.914  -1.105  1.00  0.00     0.001 C 
BRANCH  21  22
HETATM   22  C   UNL     1     -21.337 -11.008  -0.171  1.00  0.00     0.007 C 
HETATM   23  C   UNL     1     -22.336 -11.759   0.354  1.00  0.00    -0.062 C 
HETATM   24  C   UNL     1     -23.807 -11.566   0.044  1.00  0.00     0.048 C 
BRANCH  23  25
HETATM   25  C   UNL     1     -22.022 -12.846   1.294  1.00  0.00     0.013 C 
HETATM   26  C   UNL     1     -22.917 -13.705   1.815  1.00  0.00     0.082 C 
BRANCH  26  27
HETATM   27  C   UNL     1     -22.499 -14.763   2.753  1.00  0.00     0.165 C 
HETATM   28  O   UNL     1     -23.029 -14.990   3.826  1.00  0.00    -0.647 OA
BRANCH  27  29
HETATM   29  O   UNL     1     -21.446 -15.466   2.286  1.00  0.00    -0.773 OA
HETATM   30  H   UNL     1     -21.109 -15.200   1.414  1.00  0.00     0.167 HD
ENDBRANCH  27  29
ENDBRANCH  26  27
ENDBRANCH  23  25
ENDBRANCH  21  22
ENDBRANCH  18  20
ENDBRANCH   2  17
TORSDOF 12
ENDMDL
MODEL 3
REMARK VINA RESULT:      -8.6      3.167      3.815
REMARK  12 active torsions:
REMARK  status: ('A' for Active; 'I' for Inactive)
REMARK    1  A    between atoms: C_2  and  C_19 
REMARK    2  A    between atoms: C_3  and  C_4 
REMARK    3  A    between atoms: C_5  and  C_6 
REMARK    4  A    between atoms: C_7  and  C_9 
REMARK    5  A    between atoms: C_10  and  C_11 
REMARK    6  A    between atoms: C_12  and  C_14 
REMARK    7  A    between atoms: C_15  and  C_16 
REMARK    8  A    between atoms: C_16  and  O_18 
REMARK    9  A    between atoms: C_20  and  C_21 
REMARK   10  A    between atoms: C_22  and  C_24 
REMARK   11  A    between atoms: C_25  and  C_26 
REMARK   12  A    between atoms: C_26  and  O_28 
ROOT
HETATM    1  C   UNL     1     -20.845  -6.940  -5.032  1.00  0.00     0.001 C 
HETATM    2  C   UNL     1     -20.574  -6.943  -6.347  1.00  0.00     0.001 C 
ENDROOT
BRANCH   1   3
HETATM    3  C   UNL     1     -20.306  -7.931  -4.109  1.00  0.00     0.007 C 
HETATM    4  C   UNL     1     -20.611  -8.066  -2.799  1.00  0.00    -0.062 C 
HETATM    5  C   UNL     1     -21.597  -7.168  -2.081  1.00  0.00     0.048 C 
BRANCH   4   6
HETATM    6  C   UNL     1     -19.974  -9.127  -1.991  1.00  0.00     0.007 C 
HETATM    7  C   UNL     1     -18.870  -9.797  -2.370  1.00  0.00     0.001 C 
BRANCH   7   8
HETATM    8  C   UNL     1     -18.175 -10.850  -1.650  1.00  0.00     0.007 C 
HETATM    9  C   UNL     1     -16.844 -11.104  -1.730  1.00  0.00    -0.062 C 
HETATM   10  C   UNL     1     -15.877 -10.321  -2.591  1.00  0.00     0.048 C 
BRANCH   9  11
HETATM   11  C   UNL     1     -16.247 -12.203  -0.949  1.00  0.00     0.013 C 
HETATM   12  C   UNL     1     -16.267 -12.288   0.394  1.00  0.00     0.082 C 
BRANCH  12  13
HETATM   13  C   UNL     1     -15.639 -13.432   1.082  1.00  0.00     0.165 C 
HETATM   14  O   UNL     1     -14.764 -14.121   0.587  1.00  0.00    -0.647 OA
BRANCH  13  15
HETATM   15  O   UNL     1     -16.136 -13.640   2.321  1.00  0.00    -0.773 OA
HETATM   16  H   UNL     1     -16.251 -12.837   2.861  1.00  0.00     0.167 HD
ENDBRANCH  13  15
ENDBRANCH  12  13
ENDBRANCH   9  11
ENDBRANCH   7   8
ENDBRANCH   4   6
ENDBRANCH   1   3
BRANCH   2  17
HETATM   17  C   UNL     1     -21.095  -5.967  -7.295  1.00  0.00     0.007 C 
HETATM   18  C   UNL     1     -20.408  -4.932  -7.831  1.00  0.00    -0.062 C 
HETATM   19  C   UNL     1     -18.957  -4.643  -7.504  1.00  0.00     0.048 C 
BRANCH  18  20
HETATM   20  C   UNL     1     -21.062  -4.011  -8.787  1.00  0.00     0.007 C 
HETATM   21  C   UNL     1     -20.808  -4.012 -10.108  1.00  0.00     0.001 C 
BRANCH  21  22
HETATM   22  C   UNL     1     -21.385  -3.160 -11.131  1.00  0.00     0.007 C 
HETATM   23  C   UNL     1     -22.607  -3.346 -11.690  1.00  0.00    -0.062 C 
HETATM   24  C   UNL     1     -23.552  -4.474 -11.328  1.00  0.00     0.048 C 
BRANCH  23  25
HETATM   25  C   UNL     1     -23.091  -2.416 -12.722  1.00  0.00     0.013 C 
HETATM   26  C   UNL     1     -23.010  -2.620 -14.050  1.00  0.00     0.082 C 
BRANCH  26  27
HETATM   27  C   UNL     1     -23.527  -1.622 -15.005  1.00  0.00     0.165 C 
HETATM   28  O   UNL     1     -24.637  -1.123 -14.954  1.00  0.00    -0.647 OA
BRANCH  27  29
HETATM   29  O   UNL     1     -22.621  -1.317 -15.958  1.00  0.00    -0.773 OA
HETATM   30  H   UNL     1     -22.842  -1.598 -16.862  1.00  0.00     0.167 HD
ENDBRANCH  27  29
ENDBRANCH  26  27
ENDBRANCH  23  25
ENDBRANCH  21  22
ENDBRANCH  18  20
ENDBRANCH   2  17
TORSDOF 12
ENDMDL
MODEL 4
REMARK VINA RESULT:      -8.5      1.719      2.288
REMARK  12 active torsions:
REMARK  status: ('A' for Active; 'I' for Inactive)
REMARK    1  A    between atoms: C_2  and  C_19 
REMARK    2  A    between atoms: C_3  and  C_4 
REMARK    3  A    between atoms: C_5  and  C_6 
REMARK    4  A    between atoms: C_7  and  C_9 
REMARK    5  A    between atoms: C_10  and  C_11 
REMARK    6  A    between atoms: C_12  and  C_14 
REMARK    7  A    between atoms: C_15  and  C_16 
REMARK    8  A    between atoms: C_16  and  O_18 
REMARK    9  A    between atoms: C_20  and  C_21 
REMARK   10  A    between atoms: C_22  and  C_24 
REMARK   11  A    between atoms: C_25  and  C_26 
REMARK   12  A    between atoms: C_26  and  O_28 
ROOT
HETATM    1  C   UNL     1     -21.625  -6.610  -4.858  1.00  0.00     0.001 C 
HETATM    2  C   UNL     1     -21.031  -6.739  -6.054  1.00  0.00     0.001 C 
ENDROOT
BRANCH   1   3
HETATM    3  C   UNL     1     -21.443  -7.567  -3.774  1.00  0.00     0.007 C 
HETATM    4  C   UNL     1     -21.636  -7.342  -2.455  1.00  0.00    -0.062 C 
HETATM    5  C   UNL     1     -22.090  -6.008  -1.899  1.00  0.00     0.048 C 
BRANCH   4   6
HETATM    6  C   UNL     1     -21.405  -8.422  -1.473  1.00  0.00     0.007 C 
HETATM    7  C   UNL     1     -21.061  -9.679  -1.809  1.00  0.00     0.001 C 
BRANCH   7   8
HETATM    8  C   UNL     1     -20.814 -10.803  -0.921  1.00  0.00     0.007 C 
HETATM    9  C   UNL     1     -19.646 -11.487  -0.833  1.00  0.00    -0.062 C 
HETATM   10  C   UNL     1     -18.413 -11.179  -1.657  1.00  0.00     0.048 C 
BRANCH   9  11
HETATM   11  C   UNL     1     -19.511 -12.615   0.107  1.00  0.00     0.013 C 
HETATM   12  C   UNL     1     -19.133 -13.860  -0.237  1.00  0.00     0.082 C 
BRANCH  12  13
HETATM   13  C   UNL     1     -19.028 -14.920   0.781  1.00  0.00     0.165 C 
HETATM   14  O   UNL     1     -19.992 -15.439   1.320  1.00  0.00    -0.647 OA
BRANCH  13  15
HETATM   15  O   UNL     1     -17.750 -15.260   1.061  1.00  0.00    -0.773 OA
HETATM   16  H   UNL     1     -17.631 -16.153   1.431  1.00  0.00     0.167 HD
ENDBRANCH  13  15
ENDBRANCH  12  13
ENDBRANCH   9  11
ENDBRANCH   7   8
ENDBRANCH   4   6
ENDBRANCH   1   3
BRANCH   2  17
HETATM   17  C   UNL     1     -21.193  -5.801  -7.158  1.00  0.00     0.007 C 
HETATM   18  C   UNL     1     -20.285  -4.882  -7.560  1.00  0.00    -0.062 C 
HETATM   19  C   UNL     1     -18.936  -4.703  -6.894  1.00  0.00     0.048 C 
BRANCH  18  20
HETATM   20  C   UNL     1     -20.578  -3.986  -8.701  1.00  0.00     0.007 C 
HETATM   21  C   UNL     1     -20.839  -4.431  -9.944  1.00  0.00     0.001 C 
BRANCH  21  22
HETATM   22  C   UNL     1     -21.138  -3.650 -11.129  1.00  0.00     0.007 C 
HETATM   23  C   UNL     1     -22.387  -3.334 -11.551  1.00  0.00    -0.062 C 
HETATM   24  C   UNL     1     -23.661  -3.754 -10.844  1.00  0.00     0.048 C 
BRANCH  23  25
HETATM   25  C   UNL     1     -22.570  -2.534 -12.771  1.00  0.00     0.013 C 
HETATM   26  C   UNL     1     -23.701  -2.476 -13.499  1.00  0.00     0.082 C 
BRANCH  26  27
HETATM   27  C   UNL     1     -23.783  -1.641 -14.712  1.00  0.00     0.165 C 
HETATM   28  O   UNL     1     -24.614  -0.771 -14.900  1.00  0.00    -0.647 OA
BRANCH  27  29
HETATM   29  O   UNL     1     -22.821  -1.950 -15.605  1.00  0.00    -0.773 OA
HETATM   30  H   UNL     1     -23.045  -1.810 -16.540  1.00  0.00     0.167 HD
ENDBRANCH  27  29
ENDBRANCH  26  27
ENDBRANCH  23  25
ENDBRANCH  21  22
ENDBRANCH  18  20
ENDBRANCH   2  17
TORSDOF 12
ENDMDL
