MODEL 1
REMARK VINA RESULT:      -5.8      0.000      0.000
REMARK  2 active torsions:
REMARK  status: ('A' for Active; 'I' for Inactive)
REMARK    1  A    between atoms: C_3  and  O_4 
REMARK    2  A    between atoms: CA_6  and  C_7 
ROOT
HETATM    1  C   UNL     1     -22.076  -3.269 -12.193  1.00  0.00     0.044 C 
HETATM    2  C   UNL     1     -22.478  -3.585 -10.759  1.00  0.00     0.089 C 
HETATM    3  C   UNL     1     -23.953  -3.809 -10.902  1.00  0.00     0.152 C 
HETATM    4  N   UNL     1     -24.403  -3.025 -11.932  1.00  0.00    -0.357 N 
HETATM    5  CA  UNL     1     -23.303  -2.570 -12.783  1.00  0.00     0.185 C 
HETATM    6  H   UNL     1     -25.305  -3.191 -12.364  1.00  0.00     0.162 HD
ENDROOT
BRANCH   5   7
HETATM    7  C   UNL     1     -23.394  -3.075 -14.253  1.00  0.00     0.196 C 
HETATM    8  O   UNL     1     -24.186  -4.074 -14.387  1.00  0.00    -0.646 OA
HETATM    9  OXT UNL     1     -22.672  -2.490 -15.084  1.00  0.00    -0.646 OA
ENDBRANCH   5   7
BRANCH   3  10
HETATM   10  O   UNL     1     -24.611  -4.630 -10.283  1.00  0.00    -0.177 OA
HETATM   11  K   UNL     2     -26.724  -3.465  -9.467  1.00  0.00     0.000 K 
ENDBRANCH   3  10
TORSDOF 2
ENDMDL
MODEL 2
REMARK VINA RESULT:      -5.7      2.763      4.337
REMARK  2 active torsions:
REMARK  status: ('A' for Active; 'I' for Inactive)
REMARK    1  A    between atoms: C_3  and  O_4 
REMARK    2  A    between atoms: CA_6  and  C_7 
ROOT
HETATM    1  C   UNL     1     -22.577  -3.378 -11.219  1.00  0.00     0.044 C 
HETATM    2  C   UNL     1     -22.408  -3.046 -12.695  1.00  0.00     0.089 C 
HETATM    3  C   UNL     1     -23.825  -2.784 -13.109  1.00  0.00     0.152 C 
HETATM    4  N   UNL     1     -24.644  -3.560 -12.331  1.00  0.00    -0.357 N 
HETATM    5  CA  UNL     1     -23.951  -4.047 -11.137  1.00  0.00     0.185 C 
HETATM    6  H   UNL     1     -25.638  -3.372 -12.264  1.00  0.00     0.162 HD
ENDROOT
BRANCH   5   7
HETATM    7  C   UNL     1     -24.571  -3.545  -9.801  1.00  0.00     0.196 C 
HETATM    8  O   UNL     1     -23.804  -3.740  -8.792  1.00  0.00    -0.646 OA
HETATM    9  OXT UNL     1     -25.721  -3.069  -9.870  1.00  0.00    -0.646 OA
ENDBRANCH   5   7
BRANCH   3  10
HETATM   10  O   UNL     1     -24.185  -1.944 -13.918  1.00  0.00    -0.177 OA
HETATM   11  K   UNL     2     -22.398  -1.801 -15.726  1.00  0.00     0.000 K 
ENDBRANCH   3  10
TORSDOF 2
ENDMDL
MODEL 3
REMARK VINA RESULT:      -5.6      3.149      3.773
REMARK  2 active torsions:
REMARK  status: ('A' for Active; 'I' for Inactive)
REMARK    1  A    between atoms: C_3  and  O_4 
REMARK    2  A    between atoms: CA_6  and  C_7 
ROOT
HETATM    1  C   UNL     1     -21.657  -4.172 -10.021  1.00  0.00     0.044 C 
HETATM    2  C   UNL     1     -20.970  -4.304  -8.669  1.00  0.00     0.089 C 
HETATM    3  C   UNL     1     -22.143  -4.331  -7.736  1.00  0.00     0.152 C 
HETATM    4  N   UNL     1     -23.146  -3.585  -8.295  1.00  0.00    -0.357 N 
HETATM    5  CA  UNL     1     -22.922  -3.363  -9.724  1.00  0.00     0.185 C 
HETATM    6  H   UNL     1     -24.103  -3.659  -7.967  1.00  0.00     0.162 HD
ENDROOT
BRANCH   5   7
HETATM    7  C   UNL     1     -24.023  -3.976 -10.637  1.00  0.00     0.196 C 
HETATM    8  O   UNL     1     -25.100  -3.280 -10.652  1.00  0.00    -0.646 OA
HETATM    9  OXT UNL     1     -23.744  -5.058 -11.189  1.00  0.00    -0.646 OA
ENDBRANCH   5   7
BRANCH   3  10
HETATM   10  O   UNL     1     -22.224  -4.995  -6.715  1.00  0.00    -0.177 OA
HETATM   11  K   UNL     2     -24.595  -4.746  -5.820  1.00  0.00     0.000 K 
ENDBRANCH   3  10
TORSDOF 2
ENDMDL
MODEL 4
REMARK VINA RESULT:      -5.6      2.551      3.209
REMARK  2 active torsions:
REMARK  status: ('A' for Active; 'I' for Inactive)
REMARK    1  A    between atoms: C_3  and  O_4 
REMARK    2  A    between atoms: CA_6  and  C_7 
ROOT
HETATM    1  C   UNL     1     -22.526  -3.196 -12.123  1.00  0.00     0.044 C 
HETATM    2  C   UNL     1     -24.031  -2.979 -12.051  1.00  0.00     0.089 C 
HETATM    3  C   UNL     1     -24.360  -3.591 -10.722  1.00  0.00     0.152 C 
HETATM    4  N   UNL     1     -23.470  -4.607 -10.492  1.00  0.00    -0.357 N 
HETATM    5  CA  UNL     1     -22.296  -4.502 -11.360  1.00  0.00     0.185 C 
HETATM    6  H   UNL     1     -23.346  -4.997  -9.565  1.00  0.00     0.162 HD
ENDROOT
BRANCH   5   7
HETATM    7  C   UNL     1     -20.959  -4.296 -10.589  1.00  0.00     0.196 C 
HETATM    8  O   UNL     1     -21.114  -4.299  -9.317  1.00  0.00    -0.646 OA
HETATM    9  OXT UNL     1     -19.941  -4.117 -11.286  1.00  0.00    -0.646 OA
ENDBRANCH   5   7
BRANCH   3  10
HETATM   10  O   UNL     1     -25.201  -3.181  -9.939  1.00  0.00    -0.177 OA
HETATM   11  K   UNL     2     -26.759  -5.121  -9.396  1.00  0.00     0.000 K 
ENDBRANCH   3  10
TORSDOF 2
ENDMDL
MODEL 5
REMARK VINA RESULT:      -5.5      2.378      4.395
REMARK  2 active torsions:
REMARK  status: ('A' for Active; 'I' for Inactive)
REMARK    1  A    between atoms: C_3  and  O_4 
REMARK    2  A    between atoms: CA_6  and  C_7 
ROOT
HETATM    1  C   UNL     1     -21.839  -3.672 -10.308  1.00  0.00     0.044 C 
HETATM    2  C   UNL     1     -22.758  -3.490 -11.508  1.00  0.00     0.089 C 
HETATM    3  C   UNL     1     -24.107  -3.701 -10.887  1.00  0.00     0.152 C 
HETATM    4  N   UNL     1     -23.961  -4.578  -9.844  1.00  0.00    -0.357 N 
HETATM    5  CA  UNL     1     -22.562  -4.693  -9.428  1.00  0.00     0.185 C 
HETATM    6  H   UNL     1     -24.681  -4.679  -9.137  1.00  0.00     0.162 HD
ENDROOT
BRANCH   5   7
HETATM    7  C   UNL     1     -22.301  -4.230  -7.965  1.00  0.00     0.196 C 
HETATM    8  O   UNL     1     -21.139  -3.712  -7.808  1.00  0.00    -0.646 OA
HETATM    9  OXT UNL     1     -23.212  -4.454  -7.144  1.00  0.00    -0.646 OA
ENDBRANCH   5   7
BRANCH   3  10
HETATM   10  O   UNL     1     -25.130  -3.108 -11.190  1.00  0.00    -0.177 OA
HETATM   11  K   UNL     2     -26.879  -3.634  -9.416  1.00  0.00     0.000 K 
ENDBRANCH   3  10
TORSDOF 2
ENDMDL
MODEL 6
REMARK VINA RESULT:      -5.4      3.179      4.338
REMARK  2 active torsions:
REMARK  status: ('A' for Active; 'I' for Inactive)
REMARK    1  A    between atoms: C_3  and  O_4 
REMARK    2  A    between atoms: CA_6  and  C_7 
ROOT
HETATM    1  C   UNL     1     -23.920  -3.334 -11.369  1.00  0.00     0.044 C 
HETATM    2  C   UNL     1     -24.565  -2.866 -12.666  1.00  0.00     0.089 C 
HETATM    3  C   UNL     1     -23.430  -3.012 -13.635  1.00  0.00     0.152 C 
HETATM    4  N   UNL     1     -22.261  -2.806 -12.952  1.00  0.00    -0.357 N 
HETATM    5  CA  UNL     1     -22.453  -2.921 -11.506  1.00  0.00     0.185 C 
HETATM    6  H   UNL     1     -21.368  -3.089 -13.341  1.00  0.00     0.162 HD
ENDROOT
BRANCH   5   7
HETATM    7  C   UNL     1     -21.640  -4.077 -10.853  1.00  0.00     0.196 C 
HETATM    8  O   UNL     1     -20.445  -4.162 -11.308  1.00  0.00    -0.646 OA
HETATM    9  OXT UNL     1     -22.250  -4.782 -10.025  1.00  0.00    -0.646 OA
ENDBRANCH   5   7
BRANCH   3  10
HETATM   10  O   UNL     1     -23.531  -3.362 -14.800  1.00  0.00    -0.177 OA
HETATM   11  K   UNL     2     -22.799  -1.408 -16.259  1.00  0.00     0.000 K 
ENDBRANCH   3  10
TORSDOF 2
ENDMDL
MODEL 7
REMARK VINA RESULT:      -5.4      7.904      9.003
REMARK  2 active torsions:
REMARK  status: ('A' for Active; 'I' for Inactive)
REMARK    1  A    between atoms: C_3  and  O_4 
REMARK    2  A    between atoms: CA_6  and  C_7 
ROOT
HETATM    1  C   UNL     1     -29.713  -6.355 -16.240  1.00  0.00     0.044 C 
HETATM    2  C   UNL     1     -30.657  -6.649 -17.398  1.00  0.00     0.089 C 
HETATM    3  C   UNL     1     -29.807  -7.533 -18.262  1.00  0.00     0.152 C 
HETATM    4  N   UNL     1     -28.499  -7.163 -18.088  1.00  0.00    -0.357 N 
HETATM    5  CA  UNL     1     -28.321  -6.362 -16.876  1.00  0.00     0.185 C 
HETATM    6  H   UNL     1     -27.739  -7.769 -18.377  1.00  0.00     0.162 HD
ENDROOT
BRANCH   5   7
HETATM    7  C   UNL     1     -27.391  -7.021 -15.817  1.00  0.00     0.196 C 
HETATM    8  O   UNL     1     -26.147  -6.891 -16.099  1.00  0.00    -0.646 OA
HETATM    9  OXT UNL     1     -27.956  -7.612 -14.876  1.00  0.00    -0.646 OA
ENDBRANCH   5   7
BRANCH   3  10
HETATM   10  O   UNL     1     -30.205  -8.484 -18.915  1.00  0.00    -0.177 OA
HETATM   11  K   UNL     2     -28.199  -9.478 -20.128  1.00  0.00     0.000 K 
ENDBRANCH   3  10
TORSDOF 2
ENDMDL
MODEL 8
REMARK VINA RESULT:      -5.4     10.616     11.103
REMARK  2 active torsions:
REMARK  status: ('A' for Active; 'I' for Inactive)
REMARK    1  A    between atoms: C_3  and  O_4 
REMARK    2  A    between atoms: CA_6  and  C_7 
ROOT
HETATM    1  C   UNL     1     -33.098  -3.383 -11.570  1.00  0.00     0.044 C 
HETATM    2  C   UNL     1     -33.259  -4.886 -11.392  1.00  0.00     0.089 C 
HETATM    3  C   UNL     1     -34.694  -5.083 -11.777  1.00  0.00     0.152 C 
HETATM    4  N   UNL     1     -35.381  -3.943 -11.450  1.00  0.00    -0.357 N 
HETATM    5  CA  UNL     1     -34.477  -2.813 -11.233  1.00  0.00     0.185 C 
HETATM    6  H   UNL     1     -36.300  -3.754 -11.834  1.00  0.00     0.162 HD
ENDROOT
BRANCH   5   7
HETATM    7  C   UNL     1     -34.689  -1.637 -12.231  1.00  0.00     0.196 C 
HETATM    8  O   UNL     1     -34.874  -2.035 -13.435  1.00  0.00    -0.646 OA
HETATM    9  OXT UNL     1     -34.612  -0.488 -11.754  1.00  0.00    -0.646 OA
ENDBRANCH   5   7
BRANCH   3  10
HETATM   10  O   UNL     1     -35.143  -6.045 -12.379  1.00  0.00    -0.177 OA
HETATM   11  K   UNL     2     -34.721  -5.667 -14.861  1.00  0.00     0.000 K 
ENDBRANCH   3  10
TORSDOF 2
ENDMDL
MODEL 9
REMARK VINA RESULT:      -5.3      3.056      3.347
REMARK  2 active torsions:
REMARK  status: ('A' for Active; 'I' for Inactive)
REMARK    1  A    between atoms: C_3  and  O_4 
REMARK    2  A    between atoms: CA_6  and  C_7 
ROOT
HETATM    1  C   UNL     1     -24.053  -3.455 -10.052  1.00  0.00     0.044 C 
HETATM    2  C   UNL     1     -22.930  -3.989  -9.174  1.00  0.00     0.089 C 
HETATM    3  C   UNL     1     -21.829  -4.175 -10.175  1.00  0.00     0.152 C 
HETATM    4  N   UNL     1     -22.401  -4.474 -11.383  1.00  0.00    -0.357 N 
HETATM    5  CA  UNL     1     -23.822  -4.122 -11.410  1.00  0.00     0.185 C 
HETATM    6  H   UNL     1     -21.874  -4.402 -12.247  1.00  0.00     0.162 HD
ENDROOT
BRANCH   5   7
HETATM    7  C   UNL     1     -24.182  -3.037 -12.465  1.00  0.00     0.196 C 
HETATM    8  O   UNL     1     -25.412  -3.080 -12.823  1.00  0.00    -0.646 OA
HETATM    9  OXT UNL     1     -23.246  -2.310 -12.851  1.00  0.00    -0.646 OA
ENDBRANCH   5   7
BRANCH   3  10
HETATM   10  O   UNL     1     -20.642  -3.982  -9.969  1.00  0.00    -0.177 OA
HETATM   11  K   UNL     2     -19.814  -2.333 -11.724  1.00  0.00     0.000 K 
ENDBRANCH   3  10
TORSDOF 2
ENDMDL
