MODEL 1
REMARK VINA RESULT:      -4.5      0.000      0.000
REMARK  0 active torsions:
REMARK  status: ('A' for Active; 'I' for Inactive)
ROOT
HETATM    1  C   UNL     1     -24.285  -2.928 -12.491  1.00  0.00     0.168 C 
HETATM    2  N   UNL     1     -23.755  -3.380 -11.230  1.00  0.00    -0.289 N 
HETATM    3  C   UNL     1     -24.476  -3.440 -10.057  1.00  0.00     0.253 A 
HETATM    4  O   UNL     1     -25.646  -3.140  -9.876  1.00  0.00    -0.268 OA
HETATM    5  C   UNL     1     -23.610  -3.944  -8.969  1.00  0.00     0.083 A 
HETATM    6  C   UNL     1     -22.376  -4.202  -9.411  1.00  0.00     0.073 A 
HETATM    7  S   UNL     1     -22.138  -3.882 -11.093  1.00  0.00    -0.022 SA
ENDROOT
TORSDOF 0
ENDMDL
MODEL 2
REMARK VINA RESULT:      -4.4      0.894      2.462
REMARK  0 active torsions:
REMARK  status: ('A' for Active; 'I' for Inactive)
ROOT
HETATM    1  C   UNL     1     -22.883  -3.993  -8.872  1.00  0.00     0.168 C 
HETATM    2  N   UNL     1     -23.062  -3.622 -10.253  1.00  0.00    -0.289 N 
HETATM    3  C   UNL     1     -24.274  -3.288 -10.819  1.00  0.00     0.253 A 
HETATM    4  O   UNL     1     -25.369  -3.241 -10.281  1.00  0.00    -0.268 OA
HETATM    5  C   UNL     1     -24.080  -2.971 -12.250  1.00  0.00     0.083 A 
HETATM    6  C   UNL     1     -22.797  -3.093 -12.606  1.00  0.00     0.073 A 
HETATM    7  S   UNL     1     -21.745  -3.577 -11.323  1.00  0.00    -0.022 SA
ENDROOT
TORSDOF 0
ENDMDL
MODEL 3
REMARK VINA RESULT:      -3.9      2.129      2.571
REMARK  0 active torsions:
REMARK  status: ('A' for Active; 'I' for Inactive)
ROOT
HETATM    1  C   UNL     1     -24.524  -3.400  -9.794  1.00  0.00     0.168 C 
HETATM    2  N   UNL     1     -23.138  -3.588 -10.140  1.00  0.00    -0.289 N 
HETATM    3  C   UNL     1     -22.549  -3.107 -11.290  1.00  0.00     0.253 A 
HETATM    4  O   UNL     1     -23.066  -2.458 -12.186  1.00  0.00    -0.268 OA
HETATM    5  C   UNL     1     -21.122  -3.494 -11.313  1.00  0.00     0.083 A 
HETATM    6  C   UNL     1     -20.791  -4.199 -10.227  1.00  0.00     0.073 A 
HETATM    7  S   UNL     1     -22.094  -4.456  -9.120  1.00  0.00    -0.022 SA
ENDROOT
TORSDOF 0
ENDMDL
MODEL 4
REMARK VINA RESULT:      -3.9      2.463      3.506
REMARK  0 active torsions:
REMARK  status: ('A' for Active; 'I' for Inactive)
ROOT
HETATM    1  C   UNL     1     -22.045  -4.197  -8.817  1.00  0.00     0.168 C 
HETATM    2  N   UNL     1     -22.597  -3.716 -10.059  1.00  0.00    -0.289 N 
HETATM    3  C   UNL     1     -21.845  -3.261 -11.121  1.00  0.00     0.253 A 
HETATM    4  O   UNL     1     -20.629  -3.189 -11.207  1.00  0.00    -0.268 OA
HETATM    5  C   UNL     1     -22.743  -2.844 -12.219  1.00  0.00     0.083 A 
HETATM    6  C   UNL     1     -24.027  -3.017 -11.890  1.00  0.00     0.073 A 
HETATM    7  S   UNL     1     -24.276  -3.665 -10.307  1.00  0.00    -0.022 SA
ENDROOT
TORSDOF 0
ENDMDL
MODEL 5
REMARK VINA RESULT:      -3.9     10.399     10.789
REMARK  0 active torsions:
REMARK  status: ('A' for Active; 'I' for Inactive)
ROOT
HETATM    1  C   UNL     1     -35.076  -1.125 -12.936  1.00  0.00     0.168 C 
HETATM    2  N   UNL     1     -34.484  -2.276 -12.303  1.00  0.00    -0.289 N 
HETATM    3  C   UNL     1     -34.158  -3.445 -12.957  1.00  0.00     0.253 A 
HETATM    4  O   UNL     1     -34.299  -3.710 -14.140  1.00  0.00    -0.268 OA
HETATM    5  C   UNL     1     -33.578  -4.405 -11.993  1.00  0.00     0.083 A 
HETATM    6  C   UNL     1     -33.528  -3.887 -10.762  1.00  0.00     0.073 A 
HETATM    7  S   UNL     1     -34.140  -2.276 -10.640  1.00  0.00    -0.022 SA
ENDROOT
TORSDOF 0
ENDMDL
MODEL 6
REMARK VINA RESULT:      -3.8      2.304      2.531
REMARK  0 active torsions:
REMARK  status: ('A' for Active; 'I' for Inactive)
ROOT
HETATM    1  C   UNL     1     -23.248  -2.699 -12.470  1.00  0.00     0.168 C 
HETATM    2  N   UNL     1     -23.050  -3.233 -11.147  1.00  0.00    -0.289 N 
HETATM    3  C   UNL     1     -21.821  -3.561 -10.614  1.00  0.00     0.253 A 
HETATM    4  O   UNL     1     -20.723  -3.462 -11.139  1.00  0.00    -0.268 OA
HETATM    5  C   UNL     1     -22.001  -4.083  -9.242  1.00  0.00     0.083 A 
HETATM    6  C   UNL     1     -23.290  -4.096  -8.892  1.00  0.00     0.073 A 
HETATM    7  S   UNL     1     -24.367  -3.513 -10.112  1.00  0.00    -0.022 SA
ENDROOT
TORSDOF 0
ENDMDL
MODEL 7
REMARK VINA RESULT:      -3.8      1.698      2.665
REMARK  0 active torsions:
REMARK  status: ('A' for Active; 'I' for Inactive)
ROOT
HETATM    1  C   UNL     1     -20.767  -4.154  -9.602  1.00  0.00     0.168 C 
HETATM    2  N   UNL     1     -22.126  -3.844  -9.965  1.00  0.00    -0.289 N 
HETATM    3  C   UNL     1     -23.199  -3.912  -9.101  1.00  0.00     0.253 A 
HETATM    4  O   UNL     1     -23.197  -4.229  -7.922  1.00  0.00    -0.268 OA
HETATM    5  C   UNL     1     -24.435  -3.530  -9.817  1.00  0.00     0.083 A 
HETATM    6  C   UNL     1     -24.183  -3.226 -11.094  1.00  0.00     0.073 A 
HETATM    7  S   UNL     1     -22.520  -3.360 -11.544  1.00  0.00    -0.022 SA
ENDROOT
TORSDOF 0
ENDMDL
MODEL 8
REMARK VINA RESULT:      -3.8      2.309      2.979
REMARK  0 active torsions:
REMARK  status: ('A' for Active; 'I' for Inactive)
ROOT
HETATM    1  C   UNL     1     -20.599  -4.291 -10.744  1.00  0.00     0.168 C 
HETATM    2  N   UNL     1     -21.994  -3.939 -10.659  1.00  0.00    -0.289 N 
HETATM    3  C   UNL     1     -22.734  -3.425 -11.703  1.00  0.00     0.253 A 
HETATM    4  O   UNL     1     -22.365  -3.187 -12.842  1.00  0.00    -0.268 OA
HETATM    5  C   UNL     1     -24.121  -3.179 -11.251  1.00  0.00     0.083 A 
HETATM    6  C   UNL     1     -24.281  -3.516  -9.968  1.00  0.00     0.073 A 
HETATM    7  S   UNL     1     -22.856  -4.132  -9.208  1.00  0.00    -0.022 SA
ENDROOT
TORSDOF 0
ENDMDL
MODEL 9
REMARK VINA RESULT:      -3.7     10.316     10.646
REMARK  0 active torsions:
REMARK  status: ('A' for Active; 'I' for Inactive)
ROOT
HETATM    1  C   UNL     1     -35.160  -1.344 -13.007  1.00  0.00     0.168 C 
HETATM    2  N   UNL     1     -34.533  -2.454 -12.334  1.00  0.00    -0.289 N 
HETATM    3  C   UNL     1     -34.178  -2.458 -11.002  1.00  0.00     0.253 A 
HETATM    4  O   UNL     1     -34.324  -1.566 -10.181  1.00  0.00    -0.268 OA
HETATM    5  C   UNL     1     -33.557  -3.755 -10.661  1.00  0.00     0.083 A 
HETATM    6  C   UNL     1     -33.507  -4.565 -11.723  1.00  0.00     0.073 A 
HETATM    7  S   UNL     1     -34.167  -3.887 -13.168  1.00  0.00    -0.022 SA
ENDROOT
TORSDOF 0
ENDMDL
