MODEL 1
REMARK VINA RESULT:      -6.8      0.000      0.000
REMARK  6 active torsions:
REMARK  status: ('A' for Active; 'I' for Inactive)
REMARK    1  A    between atoms: C_4  and  C_6 
REMARK    2  A    between atoms: C_6  and  C_7 
REMARK    3  A    between atoms: C_7  and  C_8 
REMARK    4  A    between atoms: C_8  and  C_9 
REMARK    5  A    between atoms: C_9  and  C_10 
REMARK    6  A    between atoms: C_10  and  O_12 
ROOT
HETATM    1  C   UNL     1     -23.831  -5.090 -10.398  1.00  0.00     0.101 C 
HETATM    2  C   UNL     1     -23.059  -4.825 -11.695  1.00  0.00     0.119 C 
HETATM    3  C   UNL     1     -21.986  -3.737 -11.467  1.00  0.00     0.123 C 
HETATM    4  C   UNL     1     -21.746  -3.515  -9.971  1.00  0.00     0.072 C 
HETATM    5  S   UNL     1     -23.397  -3.765  -9.243  1.00  0.00    -0.160 SA
HETATM    6  N   UNL     1     -22.543  -2.576 -12.137  1.00  0.00    -0.335 N 
HETATM    7  C   UNL     1     -23.630  -2.907 -12.911  1.00  0.00     0.316 C 
HETATM    8  O   UNL     1     -24.245  -2.152 -13.640  1.00  0.00    -0.247 OA
HETATM    9  N   UNL     1     -23.893  -4.247 -12.728  1.00  0.00    -0.336 N 
HETATM   10  H   UNL     1     -22.141  -1.650 -12.186  1.00  0.00     0.164 HD
HETATM   11  H   UNL     1     -24.711  -4.665 -13.151  1.00  0.00     0.164 HD
ENDROOT
BRANCH   4  12
HETATM   12  C   UNL     1     -20.763  -4.509  -9.333  1.00  0.00     0.017 C 
BRANCH  12  13
HETATM   13  C   UNL     1     -19.950  -3.892  -8.192  1.00  0.00     0.002 C 
BRANCH  13  14
HETATM   14  C   UNL     1     -19.476  -4.956  -7.202  1.00  0.00     0.010 C 
BRANCH  14  15
HETATM   15  C   UNL     1     -20.302  -4.908  -5.917  1.00  0.00     0.110 C 
BRANCH  15  16
HETATM   16  C   UNL     1     -21.396  -5.951  -5.906  1.00  0.00     0.139 C 
HETATM   17  O   UNL     1     -22.521  -5.786  -5.467  1.00  0.00    -0.650 OA
BRANCH  16  18
HETATM   18  O   UNL     1     -20.993  -7.118  -6.456  1.00  0.00    -0.776 OA
HETATM   19  H   UNL     1     -21.071  -7.147  -7.427  1.00  0.00     0.167 HD
ENDBRANCH  16  18
ENDBRANCH  15  16
ENDBRANCH  14  15
ENDBRANCH  13  14
ENDBRANCH  12  13
ENDBRANCH   4  12
TORSDOF 6
ENDMDL
MODEL 2
REMARK VINA RESULT:      -6.4      1.370      2.090
REMARK  6 active torsions:
REMARK  status: ('A' for Active; 'I' for Inactive)
REMARK    1  A    between atoms: C_4  and  C_6 
REMARK    2  A    between atoms: C_6  and  C_7 
REMARK    3  A    between atoms: C_7  and  C_8 
REMARK    4  A    between atoms: C_8  and  C_9 
REMARK    5  A    between atoms: C_9  and  C_10 
REMARK    6  A    between atoms: C_10  and  O_12 
ROOT
HETATM    1  C   UNL     1     -21.295  -2.569 -11.410  1.00  0.00     0.101 C 
HETATM    2  C   UNL     1     -22.791  -2.410 -11.699  1.00  0.00     0.119 C 
HETATM    3  C   UNL     1     -23.540  -3.725 -11.390  1.00  0.00     0.123 C 
HETATM    4  C   UNL     1     -22.669  -4.661 -10.546  1.00  0.00     0.072 C 
HETATM    5  S   UNL     1     -20.987  -4.338 -11.167  1.00  0.00    -0.160 SA
HETATM    6  N   UNL     1     -23.840  -4.254 -12.707  1.00  0.00    -0.335 N 
HETATM    7  C   UNL     1     -23.602  -3.328 -13.695  1.00  0.00     0.316 C 
HETATM    8  O   UNL     1     -23.837  -3.470 -14.879  1.00  0.00    -0.247 OA
HETATM    9  N   UNL     1     -23.064  -2.205 -13.106  1.00  0.00    -0.336 N 
HETATM   10  H   UNL     1     -24.306  -5.125 -12.922  1.00  0.00     0.164 HD
HETATM   11  H   UNL     1     -22.742  -1.437 -13.680  1.00  0.00     0.164 HD
ENDROOT
BRANCH   4  12
HETATM   12  C   UNL     1     -22.708  -4.374  -9.037  1.00  0.00     0.017 C 
BRANCH  12  13
HETATM   13  C   UNL     1     -21.320  -4.386  -8.393  1.00  0.00     0.002 C 
BRANCH  13  14
HETATM   14  C   UNL     1     -21.379  -3.960  -6.926  1.00  0.00     0.010 C 
BRANCH  14  15
HETATM   15  C   UNL     1     -20.649  -4.967  -6.037  1.00  0.00     0.110 C 
BRANCH  15  16
HETATM   16  C   UNL     1     -21.439  -6.242  -5.856  1.00  0.00     0.139 C 
HETATM   17  O   UNL     1     -21.086  -7.348  -6.227  1.00  0.00    -0.650 OA
BRANCH  16  18
HETATM   18  O   UNL     1     -22.609  -6.029  -5.214  1.00  0.00    -0.776 OA
HETATM   19  H   UNL     1     -22.692  -6.512  -4.370  1.00  0.00     0.167 HD
ENDBRANCH  16  18
ENDBRANCH  15  16
ENDBRANCH  14  15
ENDBRANCH  13  14
ENDBRANCH  12  13
ENDBRANCH   4  12
TORSDOF 6
ENDMDL
MODEL 3
REMARK VINA RESULT:      -5.8      3.932      7.093
REMARK  6 active torsions:
REMARK  status: ('A' for Active; 'I' for Inactive)
REMARK    1  A    between atoms: C_4  and  C_6 
REMARK    2  A    between atoms: C_6  and  C_7 
REMARK    3  A    between atoms: C_7  and  C_8 
REMARK    4  A    between atoms: C_8  and  C_9 
REMARK    5  A    between atoms: C_9  and  C_10 
REMARK    6  A    between atoms: C_10  and  O_12 
ROOT
HETATM    1  C   UNL     1     -19.705  -6.697  -6.150  1.00  0.00     0.101 C 
HETATM    2  C   UNL     1     -20.998  -7.339  -5.636  1.00  0.00     0.119 C 
HETATM    3  C   UNL     1     -22.129  -6.290  -5.572  1.00  0.00     0.123 C 
HETATM    4  C   UNL     1     -21.758  -5.040  -6.377  1.00  0.00     0.072 C 
HETATM    5  S   UNL     1     -19.959  -4.903  -6.127  1.00  0.00    -0.160 SA
HETATM    6  N   UNL     1     -22.267  -6.035  -4.150  1.00  0.00    -0.335 N 
HETATM    7  C   UNL     1     -21.572  -6.952  -3.398  1.00  0.00     0.316 C 
HETATM    8  O   UNL     1     -21.570  -7.028  -2.185  1.00  0.00    -0.247 OA
HETATM    9  N   UNL     1     -20.888  -7.780  -4.261  1.00  0.00    -0.336 N 
HETATM   10  H   UNL     1     -22.896  -5.379  -3.706  1.00  0.00     0.164 HD
HETATM   11  H   UNL     1     -20.249  -8.474  -3.897  1.00  0.00     0.164 HD
ENDROOT
BRANCH   4  12
HETATM   12  C   UNL     1     -22.048  -5.148  -7.883  1.00  0.00     0.017 C 
BRANCH  12  13
HETATM   13  C   UNL     1     -22.317  -3.789  -8.534  1.00  0.00     0.002 C 
BRANCH  13  14
HETATM   14  C   UNL     1     -22.091  -3.839 -10.046  1.00  0.00     0.010 C 
BRANCH  14  15
HETATM   15  C   UNL     1     -23.324  -4.386 -10.763  1.00  0.00     0.110 C 
BRANCH  15  16
HETATM   16  C   UNL     1     -24.406  -3.342 -10.909  1.00  0.00     0.139 C 
HETATM   17  O   UNL     1     -25.369  -3.217 -10.171  1.00  0.00    -0.650 OA
BRANCH  16  18
HETATM   18  O   UNL     1     -24.190  -2.529 -11.967  1.00  0.00    -0.776 OA
HETATM   19  H   UNL     1     -23.451  -1.904 -11.843  1.00  0.00     0.167 HD
ENDBRANCH  16  18
ENDBRANCH  15  16
ENDBRANCH  14  15
ENDBRANCH  13  14
ENDBRANCH  12  13
ENDBRANCH   4  12
TORSDOF 6
ENDMDL
MODEL 4
REMARK VINA RESULT:      -5.7      3.099      6.992
REMARK  6 active torsions:
REMARK  status: ('A' for Active; 'I' for Inactive)
REMARK    1  A    between atoms: C_4  and  C_6 
REMARK    2  A    between atoms: C_6  and  C_7 
REMARK    3  A    between atoms: C_7  and  C_8 
REMARK    4  A    between atoms: C_8  and  C_9 
REMARK    5  A    between atoms: C_9  and  C_10 
REMARK    6  A    between atoms: C_10  and  O_12 
ROOT
HETATM    1  C   UNL     1     -19.739  -4.671  -7.287  1.00  0.00     0.101 C 
HETATM    2  C   UNL     1     -20.457  -5.969  -6.901  1.00  0.00     0.119 C 
HETATM    3  C   UNL     1     -21.987  -5.783  -6.996  1.00  0.00     0.123 C 
HETATM    4  C   UNL     1     -22.334  -4.520  -7.791  1.00  0.00     0.072 C 
HETATM    5  S   UNL     1     -20.995  -3.368  -7.346  1.00  0.00    -0.160 SA
HETATM    6  N   UNL     1     -22.400  -5.716  -5.606  1.00  0.00    -0.335 N 
HETATM    7  C   UNL     1     -21.386  -6.084  -4.754  1.00  0.00     0.316 C 
HETATM    8  O   UNL     1     -21.471  -6.194  -3.547  1.00  0.00    -0.247 OA
HETATM    9  N   UNL     1     -20.258  -6.319  -5.510  1.00  0.00    -0.336 N 
HETATM   10  H   UNL     1     -23.338  -5.571  -5.255  1.00  0.00     0.164 HD
HETATM   11  H   UNL     1     -19.378  -6.522  -5.056  1.00  0.00     0.164 HD
ENDROOT
BRANCH   4  12
HETATM   12  C   UNL     1     -22.341  -4.715  -9.316  1.00  0.00     0.017 C 
BRANCH  12  13
HETATM   13  C   UNL     1     -23.233  -3.703 -10.039  1.00  0.00     0.002 C 
BRANCH  13  14
HETATM   14  C   UNL     1     -23.449  -4.093 -11.502  1.00  0.00     0.010 C 
BRANCH  14  15
HETATM   15  C   UNL     1     -23.118  -2.925 -12.431  1.00  0.00     0.110 C 
BRANCH  15  16
HETATM   16  C   UNL     1     -23.577  -3.178 -13.847  1.00  0.00     0.139 C 
HETATM   17  O   UNL     1     -23.402  -2.426 -14.790  1.00  0.00    -0.650 OA
BRANCH  16  18
HETATM   18  O   UNL     1     -24.215  -4.364 -13.972  1.00  0.00    -0.776 OA
HETATM   19  H   UNL     1     -23.708  -5.038 -14.462  1.00  0.00     0.167 HD
ENDBRANCH  16  18
ENDBRANCH  15  16
ENDBRANCH  14  15
ENDBRANCH  13  14
ENDBRANCH  12  13
ENDBRANCH   4  12
TORSDOF 6
ENDMDL
MODEL 5
REMARK VINA RESULT:      -5.5      5.077      6.923
REMARK  6 active torsions:
REMARK  status: ('A' for Active; 'I' for Inactive)
REMARK    1  A    between atoms: C_4  and  C_6 
REMARK    2  A    between atoms: C_6  and  C_7 
REMARK    3  A    between atoms: C_7  and  C_8 
REMARK    4  A    between atoms: C_8  and  C_9 
REMARK    5  A    between atoms: C_9  and  C_10 
REMARK    6  A    between atoms: C_10  and  O_12 
ROOT
HETATM    1  C   UNL     1     -19.958  -7.850  -5.561  1.00  0.00     0.101 C 
HETATM    2  C   UNL     1     -19.916  -6.341  -5.824  1.00  0.00     0.119 C 
HETATM    3  C   UNL     1     -21.147  -5.652  -5.194  1.00  0.00     0.123 C 
HETATM    4  C   UNL     1     -21.835  -6.582  -4.190  1.00  0.00     0.072 C 
HETATM    5  S   UNL     1     -21.612  -8.232  -4.929  1.00  0.00    -0.160 SA
HETATM    6  N   UNL     1     -21.975  -5.336  -6.342  1.00  0.00    -0.335 N 
HETATM    7  C   UNL     1     -21.295  -5.509  -7.524  1.00  0.00     0.316 C 
HETATM    8  O   UNL     1     -21.714  -5.247  -8.635  1.00  0.00    -0.247 OA
HETATM    9  N   UNL     1     -20.050  -6.020  -7.230  1.00  0.00    -0.336 N 
HETATM   10  H   UNL     1     -22.887  -4.898  -6.335  1.00  0.00     0.164 HD
HETATM   11  H   UNL     1     -19.426  -6.296  -7.976  1.00  0.00     0.164 HD
ENDROOT
BRANCH   4  12
HETATM   12  C   UNL     1     -21.209  -6.574  -2.786  1.00  0.00     0.017 C 
BRANCH  12  13
HETATM   13  C   UNL     1     -22.194  -6.142  -1.698  1.00  0.00     0.002 C 
BRANCH  13  14
HETATM   14  C   UNL     1     -22.431  -7.260  -0.681  1.00  0.00     0.010 C 
BRANCH  14  15
HETATM   15  C   UNL     1     -21.176  -8.117  -0.514  1.00  0.00     0.110 C 
BRANCH  15  16
HETATM   16  C   UNL     1     -21.343  -9.162   0.564  1.00  0.00     0.139 C 
HETATM   17  O   UNL     1     -21.812 -10.275   0.400  1.00  0.00    -0.650 OA
BRANCH  16  18
HETATM   18  O   UNL     1     -20.897  -8.730   1.765  1.00  0.00    -0.776 OA
HETATM   19  H   UNL     1     -21.563  -8.237   2.281  1.00  0.00     0.167 HD
ENDBRANCH  16  18
ENDBRANCH  15  16
ENDBRANCH  14  15
ENDBRANCH  13  14
ENDBRANCH  12  13
ENDBRANCH   4  12
TORSDOF 6
ENDMDL
MODEL 6
REMARK VINA RESULT:      -5.3      4.479      7.242
REMARK  6 active torsions:
REMARK  status: ('A' for Active; 'I' for Inactive)
REMARK    1  A    between atoms: C_4  and  C_6 
REMARK    2  A    between atoms: C_6  and  C_7 
REMARK    3  A    between atoms: C_7  and  C_8 
REMARK    4  A    between atoms: C_8  and  C_9 
REMARK    5  A    between atoms: C_9  and  C_10 
REMARK    6  A    between atoms: C_10  and  O_12 
ROOT
HETATM    1  C   UNL     1     -21.671  -6.870  -3.437  1.00  0.00     0.101 C 
HETATM    2  C   UNL     1     -20.514  -7.833  -3.724  1.00  0.00     0.119 C 
HETATM    3  C   UNL     1     -20.187  -7.844  -5.234  1.00  0.00     0.123 C 
HETATM    4  C   UNL     1     -20.829  -6.644  -5.938  1.00  0.00     0.072 C 
HETATM    5  S   UNL     1     -22.396  -6.421  -5.035  1.00  0.00    -0.160 SA
HETATM    6  N   UNL     1     -20.716  -9.119  -5.679  1.00  0.00    -0.335 N 
HETATM    7  C   UNL     1     -21.059  -9.927  -4.621  1.00  0.00     0.316 C 
HETATM    8  O   UNL     1     -21.454 -11.074  -4.696  1.00  0.00    -0.247 OA
HETATM    9  N   UNL     1     -20.865  -9.213  -3.459  1.00  0.00    -0.336 N 
HETATM   10  H   UNL     1     -20.717  -9.483  -6.623  1.00  0.00     0.164 HD
HETATM   11  H   UNL     1     -21.141  -9.608  -2.570  1.00  0.00     0.164 HD
ENDROOT
BRANCH   4  12
HETATM   12  C   UNL     1     -20.012  -5.345  -5.848  1.00  0.00     0.017 C 
BRANCH  12  13
HETATM   13  C   UNL     1     -19.800  -4.681  -7.211  1.00  0.00     0.002 C 
BRANCH  13  14
HETATM   14  C   UNL     1     -21.020  -3.858  -7.628  1.00  0.00     0.010 C 
BRANCH  14  15
HETATM   15  C   UNL     1     -21.810  -4.574  -8.723  1.00  0.00     0.110 C 
BRANCH  15  16
HETATM   16  C   UNL     1     -23.164  -3.943  -8.951  1.00  0.00     0.139 C 
HETATM   17  O   UNL     1     -23.508  -3.360  -9.965  1.00  0.00    -0.650 OA
BRANCH  16  18
HETATM   18  O   UNL     1     -23.984  -4.101  -7.889  1.00  0.00    -0.776 OA
HETATM   19  H   UNL     1     -24.783  -4.628  -8.079  1.00  0.00     0.167 HD
ENDBRANCH  16  18
ENDBRANCH  15  16
ENDBRANCH  14  15
ENDBRANCH  13  14
ENDBRANCH  12  13
ENDBRANCH   4  12
TORSDOF 6
ENDMDL
MODEL 7
REMARK VINA RESULT:      -5.2      8.045     10.749
REMARK  6 active torsions:
REMARK  status: ('A' for Active; 'I' for Inactive)
REMARK    1  A    between atoms: C_4  and  C_6 
REMARK    2  A    between atoms: C_6  and  C_7 
REMARK    3  A    between atoms: C_7  and  C_8 
REMARK    4  A    between atoms: C_8  and  C_9 
REMARK    5  A    between atoms: C_9  and  C_10 
REMARK    6  A    between atoms: C_10  and  O_12 
ROOT
HETATM    1  C   UNL     1     -20.706 -10.958  -1.488  1.00  0.00     0.101 C 
HETATM    2  C   UNL     1     -22.166 -10.756  -1.906  1.00  0.00     0.119 C 
HETATM    3  C   UNL     1     -22.975 -10.137  -0.746  1.00  0.00     0.123 C 
HETATM    4  C   UNL     1     -22.041  -9.562   0.323  1.00  0.00     0.072 C 
HETATM    5  S   UNL     1     -20.629 -10.714   0.305  1.00  0.00    -0.160 SA
HETATM    6  N   UNL     1     -23.776 -11.250  -0.269  1.00  0.00    -0.335 N 
HETATM    7  C   UNL     1     -23.729 -12.319  -1.131  1.00  0.00     0.316 C 
HETATM    8  O   UNL     1     -24.361 -13.352  -1.025  1.00  0.00    -0.247 OA
HETATM    9  N   UNL     1     -22.851 -12.010  -2.147  1.00  0.00    -0.336 N 
HETATM   10  H   UNL     1     -24.422 -11.246   0.509  1.00  0.00     0.164 HD
HETATM   11  H   UNL     1     -22.615 -12.705  -2.842  1.00  0.00     0.164 HD
ENDROOT
BRANCH   4  12
HETATM   12  C   UNL     1     -21.532  -8.143   0.023  1.00  0.00     0.017 C 
BRANCH  12  13
HETATM   13  C   UNL     1     -22.632  -7.217  -0.501  1.00  0.00     0.002 C 
BRANCH  13  14
HETATM   14  C   UNL     1     -22.121  -6.327  -1.635  1.00  0.00     0.010 C 
BRANCH  14  15
HETATM   15  C   UNL     1     -21.210  -7.115  -2.576  1.00  0.00     0.110 C 
BRANCH  15  16
HETATM   16  C   UNL     1     -21.523  -6.842  -4.029  1.00  0.00     0.139 C 
HETATM   17  O   UNL     1     -22.457  -6.172  -4.435  1.00  0.00    -0.650 OA
BRANCH  16  18
HETATM   18  O   UNL     1     -20.631  -7.426  -4.860  1.00  0.00    -0.776 OA
HETATM   19  H   UNL     1     -20.672  -8.401  -4.864  1.00  0.00     0.167 HD
ENDBRANCH  16  18
ENDBRANCH  15  16
ENDBRANCH  14  15
ENDBRANCH  13  14
ENDBRANCH  12  13
ENDBRANCH   4  12
TORSDOF 6
ENDMDL
MODEL 8
REMARK VINA RESULT:      -5.2      4.620      7.566
REMARK  6 active torsions:
REMARK  status: ('A' for Active; 'I' for Inactive)
REMARK    1  A    between atoms: C_4  and  C_6 
REMARK    2  A    between atoms: C_6  and  C_7 
REMARK    3  A    between atoms: C_7  and  C_8 
REMARK    4  A    between atoms: C_8  and  C_9 
REMARK    5  A    between atoms: C_9  and  C_10 
REMARK    6  A    between atoms: C_10  and  O_12 
ROOT
HETATM    1  C   UNL     1     -21.024  -8.187  -5.690  1.00  0.00     0.101 C 
HETATM    2  C   UNL     1     -21.978  -7.872  -4.533  1.00  0.00     0.119 C 
HETATM    3  C   UNL     1     -21.948  -6.362  -4.210  1.00  0.00     0.123 C 
HETATM    4  C   UNL     1     -21.291  -5.575  -5.348  1.00  0.00     0.072 C 
HETATM    5  S   UNL     1     -20.004  -6.714  -5.953  1.00  0.00    -0.160 SA
HETATM    6  N   UNL     1     -21.201  -6.303  -2.967  1.00  0.00    -0.335 N 
HETATM    7  C   UNL     1     -21.026  -7.550  -2.417  1.00  0.00     0.316 C 
HETATM    8  O   UNL     1     -20.508  -7.793  -1.345  1.00  0.00    -0.247 OA
HETATM    9  N   UNL     1     -21.555  -8.478  -3.287  1.00  0.00    -0.336 N 
HETATM   10  H   UNL     1     -20.947  -5.473  -2.448  1.00  0.00     0.164 HD
HETATM   11  H   UNL     1     -21.450  -9.466  -3.099  1.00  0.00     0.164 HD
ENDROOT
BRANCH   4  12
HETATM   12  C   UNL     1     -22.239  -5.230  -6.508  1.00  0.00     0.017 C 
BRANCH  12  13
HETATM   13  C   UNL     1     -21.495  -4.906  -7.806  1.00  0.00     0.002 C 
BRANCH  13  14
HETATM   14  C   UNL     1     -22.226  -3.836  -8.618  1.00  0.00     0.010 C 
BRANCH  14  15
HETATM   15  C   UNL     1     -23.727  -4.123  -8.668  1.00  0.00     0.110 C 
BRANCH  15  16
HETATM   16  C   UNL     1     -24.357  -3.630  -9.950  1.00  0.00     0.139 C 
HETATM   17  O   UNL     1     -25.449  -3.095 -10.038  1.00  0.00    -0.650 OA
BRANCH  16  18
HETATM   18  O   UNL     1     -23.561  -3.841 -11.022  1.00  0.00    -0.776 OA
HETATM   19  H   UNL     1     -22.607  -3.778 -10.826  1.00  0.00     0.167 HD
ENDBRANCH  16  18
ENDBRANCH  15  16
ENDBRANCH  14  15
ENDBRANCH  13  14
ENDBRANCH  12  13
ENDBRANCH   4  12
TORSDOF 6
ENDMDL
MODEL 9
REMARK VINA RESULT:      -5.0      7.155     10.221
REMARK  6 active torsions:
REMARK  status: ('A' for Active; 'I' for Inactive)
REMARK    1  A    between atoms: C_4  and  C_6 
REMARK    2  A    between atoms: C_6  and  C_7 
REMARK    3  A    between atoms: C_7  and  C_8 
REMARK    4  A    between atoms: C_8  and  C_9 
REMARK    5  A    between atoms: C_9  and  C_10 
REMARK    6  A    between atoms: C_10  and  O_12 
ROOT
HETATM    1  C   UNL     1     -21.535 -10.022  -2.771  1.00  0.00     0.101 C 
HETATM    2  C   UNL     1     -22.541 -10.210  -1.630  1.00  0.00     0.119 C 
HETATM    3  C   UNL     1     -22.278  -9.181  -0.509  1.00  0.00     0.123 C 
HETATM    4  C   UNL     1     -21.368  -8.054  -1.008  1.00  0.00     0.072 C 
HETATM    5  S   UNL     1     -20.246  -8.905  -2.163  1.00  0.00    -0.160 SA
HETATM    6  N   UNL     1     -21.676  -9.980   0.542  1.00  0.00    -0.335 N 
HETATM    7  C   UNL     1     -21.790 -11.326   0.287  1.00  0.00     0.316 C 
HETATM    8  O   UNL     1     -21.446 -12.225   1.029  1.00  0.00    -0.247 OA
HETATM    9  N   UNL     1     -22.375 -11.478  -0.950  1.00  0.00    -0.336 N 
HETATM   10  H   UNL     1     -21.337  -9.654   1.437  1.00  0.00     0.164 HD
HETATM   11  H   UNL     1     -22.470 -12.400  -1.356  1.00  0.00     0.164 HD
ENDROOT
BRANCH   4  12
HETATM   12  C   UNL     1     -22.103  -6.932  -1.760  1.00  0.00     0.017 C 
BRANCH  12  13
HETATM   13  C   UNL     1     -21.262  -6.320  -2.882  1.00  0.00     0.002 C 
BRANCH  13  14
HETATM   14  C   UNL     1     -21.975  -6.415  -4.232  1.00  0.00     0.010 C 
BRANCH  14  15
HETATM   15  C   UNL     1     -21.041  -6.982  -5.301  1.00  0.00     0.110 C 
BRANCH  15  16
HETATM   16  C   UNL     1     -20.369  -5.893  -6.103  1.00  0.00     0.139 C 
HETATM   17  O   UNL     1     -20.183  -4.750  -5.722  1.00  0.00    -0.650 OA
BRANCH  16  18
HETATM   18  O   UNL     1     -19.972  -6.327  -7.320  1.00  0.00    -0.776 OA
HETATM   19  H   UNL     1     -20.532  -7.036  -7.690  1.00  0.00     0.167 HD
ENDBRANCH  16  18
ENDBRANCH  15  16
ENDBRANCH  14  15
ENDBRANCH  13  14
ENDBRANCH  12  13
ENDBRANCH   4  12
TORSDOF 6
ENDMDL
