MODEL 1
REMARK VINA RESULT:     -10.3      0.000      0.000
REMARK  10 active torsions:
REMARK  status: ('A' for Active; 'I' for Inactive)
REMARK    1  A    between atoms: C_3  and  C_10 
REMARK    2  A    between atoms: C_11  and  C_12 
REMARK    3  A    between atoms: C_13  and  C_14 
REMARK    4  A    between atoms: C_15  and  C_16 
REMARK    5  A    between atoms: C_17  and  C_18 
REMARK    6  A    between atoms: C_19  and  C_20 
REMARK    7  A    between atoms: C_21  and  C_23 
REMARK    8  A    between atoms: C_24  and  C_25 
REMARK    9  A    between atoms: C_26  and  C_28 
REMARK   10  A    between atoms: C_29  and  C_30 
ROOT
HETATM    1  C   UNL     1     -21.398 -10.078  -0.964  1.00  0.00     0.001 C 
HETATM    2  C   UNL     1     -20.472  -9.107  -1.128  1.00  0.00     0.001 C 
ENDROOT
BRANCH   1   3
HETATM    3  C   UNL     1     -21.583 -10.980   0.196  1.00  0.00     0.007 C 
HETATM    4  C   UNL     1     -21.955 -12.288   0.119  1.00  0.00    -0.062 C 
HETATM    5  C   UNL     1     -22.071 -13.220   1.306  1.00  0.00     0.048 C 
BRANCH   4   6
HETATM    6  C   UNL     1     -22.323 -12.889  -1.140  1.00  0.00     0.007 C 
HETATM    7  C   UNL     1     -22.900 -12.111  -2.070  1.00  0.00     0.001 C 
BRANCH   7   8
HETATM    8  C   UNL     1     -23.185 -12.421  -3.443  1.00  0.00     0.007 C 
HETATM    9  C   UNL     1     -22.306 -12.146  -4.427  1.00  0.00    -0.062 C 
HETATM   10  C   UNL     1     -22.513 -12.706  -5.804  1.00  0.00     0.048 C 
BRANCH   9  11
HETATM   11  C   UNL     1     -21.137 -11.279  -4.251  1.00  0.00     0.007 C 
HETATM   12  C   UNL     1     -19.912 -11.784  -4.069  1.00  0.00     0.009 C 
BRANCH  12  13
HETATM   13  C   UNL     1     -18.658 -11.107  -3.747  1.00  0.00    -0.048 C 
HETATM   14  C   UNL     1     -18.082 -11.418  -2.551  1.00  0.00    -0.077 C 
HETATM   15  C   UNL     1     -18.535 -12.457  -1.533  1.00  0.00     0.044 C 
HETATM   16  C   UNL     1     -16.824 -10.742  -2.062  1.00  0.00     0.034 C 
HETATM   17  C   UNL     1     -16.520  -9.509  -2.886  1.00  0.00     0.005 C 
HETATM   18  C   UNL     1     -16.481  -9.940  -4.350  1.00  0.00     0.014 C 
HETATM   19  C   UNL     1     -17.920 -10.263  -4.856  1.00  0.00    -0.020 C 
HETATM   20  C   UNL     1     -17.790 -11.130  -6.137  1.00  0.00     0.020 C 
HETATM   21  C   UNL     1     -18.515  -8.906  -5.334  1.00  0.00     0.020 C 
ENDBRANCH  12  13
ENDBRANCH   9  11
ENDBRANCH   7   8
ENDBRANCH   4   6
ENDBRANCH   1   3
BRANCH   2  22
HETATM   22  C   UNL     1     -20.540  -8.108  -2.198  1.00  0.00     0.007 C 
HETATM   23  C   UNL     1     -21.346  -7.027  -2.348  1.00  0.00    -0.062 C 
HETATM   24  C   UNL     1     -22.396  -6.514  -1.389  1.00  0.00     0.048 C 
BRANCH  23  25
HETATM   25  C   UNL     1     -21.258  -6.138  -3.528  1.00  0.00     0.007 C 
HETATM   26  C   UNL     1     -21.626  -6.468  -4.782  1.00  0.00     0.001 C 
BRANCH  26  27
HETATM   27  C   UNL     1     -21.907  -5.494  -5.847  1.00  0.00     0.007 C 
HETATM   28  C   UNL     1     -21.007  -4.786  -6.575  1.00  0.00    -0.062 C 
HETATM   29  C   UNL     1     -19.540  -4.725  -6.214  1.00  0.00     0.048 C 
BRANCH  28  30
HETATM   30  C   UNL     1     -21.407  -4.060  -7.812  1.00  0.00     0.007 C 
HETATM   31  C   UNL     1     -21.742  -4.648  -8.979  1.00  0.00     0.009 C 
BRANCH  31  32
HETATM   32  C   UNL     1     -22.305  -4.050 -10.200  1.00  0.00    -0.048 C 
HETATM   33  C   UNL     1     -21.551  -3.496 -11.181  1.00  0.00    -0.077 C 
HETATM   34  C   UNL     1     -22.148  -2.919 -12.457  1.00  0.00     0.034 C 
HETATM   35  C   UNL     1     -20.044  -3.428 -11.189  1.00  0.00     0.044 C 
HETATM   36  C   UNL     1     -23.655  -2.713 -12.421  1.00  0.00     0.005 C 
HETATM   37  C   UNL     1     -24.330  -3.924 -11.808  1.00  0.00     0.014 C 
HETATM   38  C   UNL     1     -23.850  -4.203 -10.355  1.00  0.00    -0.020 C 
HETATM   39  C   UNL     1     -24.350  -5.634 -10.028  1.00  0.00     0.020 C 
HETATM   40  C   UNL     1     -24.561  -3.220  -9.398  1.00  0.00     0.020 C 
ENDBRANCH  31  32
ENDBRANCH  28  30
ENDBRANCH  26  27
ENDBRANCH  23  25
ENDBRANCH   2  22
TORSDOF 10
ENDMDL
MODEL 2
REMARK VINA RESULT:      -9.6      1.497      4.270
REMARK  10 active torsions:
REMARK  status: ('A' for Active; 'I' for Inactive)
REMARK    1  A    between atoms: C_3  and  C_10 
REMARK    2  A    between atoms: C_11  and  C_12 
REMARK    3  A    between atoms: C_13  and  C_14 
REMARK    4  A    between atoms: C_15  and  C_16 
REMARK    5  A    between atoms: C_17  and  C_18 
REMARK    6  A    between atoms: C_19  and  C_20 
REMARK    7  A    between atoms: C_21  and  C_23 
REMARK    8  A    between atoms: C_24  and  C_25 
REMARK    9  A    between atoms: C_26  and  C_28 
REMARK   10  A    between atoms: C_29  and  C_30 
ROOT
HETATM    1  C   UNL     1     -16.629  -9.854  -3.833  1.00  0.00     0.001 C 
HETATM    2  C   UNL     1     -17.952  -9.761  -3.569  1.00  0.00     0.001 C 
ENDROOT
BRANCH   1   3
HETATM    3  C   UNL     1     -15.647 -10.807  -3.265  1.00  0.00     0.007 C 
HETATM    4  C   UNL     1     -14.974 -11.754  -3.975  1.00  0.00    -0.062 C 
HETATM    5  C   UNL     1     -13.920 -12.674  -3.398  1.00  0.00     0.048 C 
BRANCH   4   6
HETATM    6  C   UNL     1     -15.261 -11.988  -5.370  1.00  0.00     0.007 C 
HETATM    7  C   UNL     1     -16.007 -13.055  -5.695  1.00  0.00     0.001 C 
BRANCH   7   8
HETATM    8  C   UNL     1     -16.574 -13.394  -6.971  1.00  0.00     0.007 C 
HETATM    9  C   UNL     1     -17.794 -12.958  -7.341  1.00  0.00    -0.062 C 
HETATM   10  C   UNL     1     -18.253 -13.109  -8.762  1.00  0.00     0.048 C 
BRANCH   9  11
HETATM   11  C   UNL     1     -18.755 -12.355  -6.412  1.00  0.00     0.007 C 
HETATM   12  C   UNL     1     -19.433 -13.096  -5.528  1.00  0.00     0.009 C 
BRANCH  12  13
HETATM   13  C   UNL     1     -20.513 -12.715  -4.620  1.00  0.00    -0.048 C 
HETATM   14  C   UNL     1     -20.202 -12.641  -3.294  1.00  0.00    -0.077 C 
HETATM   15  C   UNL     1     -18.839 -12.820  -2.638  1.00  0.00     0.044 C 
HETATM   16  C   UNL     1     -21.237 -12.327  -2.240  1.00  0.00     0.034 C 
HETATM   17  C   UNL     1     -22.635 -12.445  -2.807  1.00  0.00     0.005 C 
HETATM   18  C   UNL     1     -22.699 -11.553  -4.045  1.00  0.00     0.014 C 
HETATM   19  C   UNL     1     -21.876 -12.184  -5.208  1.00  0.00    -0.020 C 
HETATM   20  C   UNL     1     -21.571 -11.063  -6.237  1.00  0.00     0.020 C 
HETATM   21  C   UNL     1     -22.849 -13.159  -5.934  1.00  0.00     0.020 C 
ENDBRANCH  12  13
ENDBRANCH   9  11
ENDBRANCH   7   8
ENDBRANCH   4   6
ENDBRANCH   1   3
BRANCH   2  22
HETATM   22  C   UNL     1     -18.874  -8.956  -4.374  1.00  0.00     0.007 C 
HETATM   23  C   UNL     1     -20.118  -8.491  -4.094  1.00  0.00    -0.062 C 
HETATM   24  C   UNL     1     -20.896  -8.644  -2.807  1.00  0.00     0.048 C 
BRANCH  23  25
HETATM   25  C   UNL     1     -20.896  -7.691  -5.066  1.00  0.00     0.007 C 
HETATM   26  C   UNL     1     -21.561  -6.553  -4.783  1.00  0.00     0.001 C 
BRANCH  26  27
HETATM   27  C   UNL     1     -21.990  -5.572  -5.791  1.00  0.00     0.007 C 
HETATM   28  C   UNL     1     -21.199  -4.791  -6.570  1.00  0.00    -0.062 C 
HETATM   29  C   UNL     1     -19.713  -4.648  -6.331  1.00  0.00     0.048 C 
BRANCH  28  30
HETATM   30  C   UNL     1     -21.745  -4.061  -7.746  1.00  0.00     0.007 C 
HETATM   31  C   UNL     1     -21.633  -4.467  -9.028  1.00  0.00     0.009 C 
BRANCH  31  32
HETATM   32  C   UNL     1     -22.267  -3.922 -10.241  1.00  0.00    -0.048 C 
HETATM   33  C   UNL     1     -21.578  -3.313 -11.237  1.00  0.00    -0.077 C 
HETATM   34  C   UNL     1     -22.244  -2.793 -12.504  1.00  0.00     0.034 C 
HETATM   35  C   UNL     1     -20.082  -3.121 -11.273  1.00  0.00     0.044 C 
HETATM   36  C   UNL     1     -23.762  -2.710 -12.440  1.00  0.00     0.005 C 
HETATM   37  C   UNL     1     -24.324  -3.970 -11.811  1.00  0.00     0.014 C 
HETATM   38  C   UNL     1     -23.796  -4.202 -10.366  1.00  0.00    -0.020 C 
HETATM   39  C   UNL     1     -24.171  -5.667 -10.026  1.00  0.00     0.020 C 
HETATM   40  C   UNL     1     -24.567  -3.277  -9.399  1.00  0.00     0.020 C 
ENDBRANCH  31  32
ENDBRANCH  28  30
ENDBRANCH  26  27
ENDBRANCH  23  25
ENDBRANCH   2  22
TORSDOF 10
ENDMDL
MODEL 3
REMARK VINA RESULT:      -9.6      1.322      3.173
REMARK  10 active torsions:
REMARK  status: ('A' for Active; 'I' for Inactive)
REMARK    1  A    between atoms: C_3  and  C_10 
REMARK    2  A    between atoms: C_11  and  C_12 
REMARK    3  A    between atoms: C_13  and  C_14 
REMARK    4  A    between atoms: C_15  and  C_16 
REMARK    5  A    between atoms: C_17  and  C_18 
REMARK    6  A    between atoms: C_19  and  C_20 
REMARK    7  A    between atoms: C_21  and  C_23 
REMARK    8  A    between atoms: C_24  and  C_25 
REMARK    9  A    between atoms: C_26  and  C_28 
REMARK   10  A    between atoms: C_29  and  C_30 
ROOT
HETATM    1  C   UNL     1     -22.811 -10.245  -0.726  1.00  0.00     0.001 C 
HETATM    2  C   UNL     1     -22.577  -8.933  -0.496  1.00  0.00     0.001 C 
ENDROOT
BRANCH   1   3
HETATM    3  C   UNL     1     -23.220 -11.286   0.246  1.00  0.00     0.007 C 
HETATM    4  C   UNL     1     -22.450 -12.340   0.635  1.00  0.00    -0.062 C 
HETATM    5  C   UNL     1     -22.851 -13.357   1.682  1.00  0.00     0.048 C 
BRANCH   4   6
HETATM    6  C   UNL     1     -21.169 -12.597   0.022  1.00  0.00     0.007 C 
HETATM    7  C   UNL     1     -20.134 -11.813   0.362  1.00  0.00     0.001 C 
BRANCH   7   8
HETATM    8  C   UNL     1     -18.744 -11.978   0.038  1.00  0.00     0.007 C 
HETATM    9  C   UNL     1     -18.261 -11.673  -1.182  1.00  0.00    -0.062 C 
HETATM   10  C   UNL     1     -16.780 -11.610  -1.416  1.00  0.00     0.048 C 
BRANCH   9  11
HETATM   11  C   UNL     1     -19.111 -11.421  -2.350  1.00  0.00     0.007 C 
HETATM   12  C   UNL     1     -19.548 -12.419  -3.126  1.00  0.00     0.009 C 
BRANCH  12  13
HETATM   13  C   UNL     1     -20.282 -12.371  -4.388  1.00  0.00    -0.048 C 
HETATM   14  C   UNL     1     -19.573 -12.645  -5.521  1.00  0.00    -0.077 C 
HETATM   15  C   UNL     1     -18.119 -13.085  -5.634  1.00  0.00     0.044 C 
HETATM   16  C   UNL     1     -20.188 -12.563  -6.897  1.00  0.00     0.034 C 
HETATM   17  C   UNL     1     -21.518 -11.843  -6.850  1.00  0.00     0.005 C 
HETATM   18  C   UNL     1     -22.382 -12.554  -5.810  1.00  0.00     0.014 C 
HETATM   19  C   UNL     1     -21.854 -12.254  -4.374  1.00  0.00    -0.020 C 
HETATM   20  C   UNL     1     -22.425 -13.337  -3.421  1.00  0.00     0.020 C 
HETATM   21  C   UNL     1     -22.536 -10.922  -3.943  1.00  0.00     0.020 C 
ENDBRANCH  12  13
ENDBRANCH   9  11
ENDBRANCH   7   8
ENDBRANCH   4   6
ENDBRANCH   1   3
BRANCH   2  22
HETATM   22  C   UNL     1     -22.429  -7.947  -1.569  1.00  0.00     0.007 C 
HETATM   23  C   UNL     1     -21.373  -7.670  -2.375  1.00  0.00    -0.062 C 
HETATM   24  C   UNL     1     -20.032  -8.365  -2.417  1.00  0.00     0.048 C 
BRANCH  23  25
HETATM   25  C   UNL     1     -21.427  -6.610  -3.406  1.00  0.00     0.007 C 
HETATM   26  C   UNL     1     -21.490  -6.819  -4.737  1.00  0.00     0.001 C 
BRANCH  26  27
HETATM   27  C   UNL     1     -21.932  -5.813  -5.714  1.00  0.00     0.007 C 
HETATM   28  C   UNL     1     -21.154  -4.970  -6.439  1.00  0.00    -0.062 C 
HETATM   29  C   UNL     1     -19.681  -4.782  -6.157  1.00  0.00     0.048 C 
BRANCH  28  30
HETATM   30  C   UNL     1     -21.701  -4.212  -7.598  1.00  0.00     0.007 C 
HETATM   31  C   UNL     1     -21.589  -4.588  -8.889  1.00  0.00     0.009 C 
BRANCH  31  32
HETATM   32  C   UNL     1     -22.222  -4.014 -10.088  1.00  0.00    -0.048 C 
HETATM   33  C   UNL     1     -21.528  -3.445 -11.104  1.00  0.00    -0.077 C 
HETATM   34  C   UNL     1     -22.196  -2.895 -12.356  1.00  0.00     0.034 C 
HETATM   35  C   UNL     1     -20.025  -3.334 -11.178  1.00  0.00     0.044 C 
HETATM   36  C   UNL     1     -23.705  -2.731 -12.255  1.00  0.00     0.005 C 
HETATM   37  C   UNL     1     -24.318  -3.957 -11.607  1.00  0.00     0.014 C 
HETATM   38  C   UNL     1     -23.767  -4.212 -10.174  1.00  0.00    -0.020 C 
HETATM   39  C   UNL     1     -24.211  -5.654  -9.818  1.00  0.00     0.020 C 
HETATM   40  C   UNL     1     -24.463  -3.244  -9.193  1.00  0.00     0.020 C 
ENDBRANCH  31  32
ENDBRANCH  28  30
ENDBRANCH  26  27
ENDBRANCH  23  25
ENDBRANCH   2  22
TORSDOF 10
ENDMDL
MODEL 4
REMARK VINA RESULT:      -9.6      1.042      1.857
REMARK  10 active torsions:
REMARK  status: ('A' for Active; 'I' for Inactive)
REMARK    1  A    between atoms: C_3  and  C_10 
REMARK    2  A    between atoms: C_11  and  C_12 
REMARK    3  A    between atoms: C_13  and  C_14 
REMARK    4  A    between atoms: C_15  and  C_16 
REMARK    5  A    between atoms: C_17  and  C_18 
REMARK    6  A    between atoms: C_19  and  C_20 
REMARK    7  A    between atoms: C_21  and  C_23 
REMARK    8  A    between atoms: C_24  and  C_25 
REMARK    9  A    between atoms: C_26  and  C_28 
REMARK   10  A    between atoms: C_29  and  C_30 
ROOT
HETATM    1  C   UNL     1     -21.950 -10.102  -0.884  1.00  0.00     0.001 C 
HETATM    2  C   UNL     1     -20.854  -9.385  -1.220  1.00  0.00     0.001 C 
ENDROOT
BRANCH   1   3
HETATM    3  C   UNL     1     -22.137 -10.993   0.285  1.00  0.00     0.007 C 
HETATM    4  C   UNL     1     -22.610 -12.269   0.229  1.00  0.00    -0.062 C 
HETATM    5  C   UNL     1     -22.730 -13.194   1.421  1.00  0.00     0.048 C 
BRANCH   4   6
HETATM    6  C   UNL     1     -23.091 -12.835  -1.008  1.00  0.00     0.007 C 
HETATM    7  C   UNL     1     -22.252 -13.600  -1.724  1.00  0.00     0.001 C 
BRANCH   7   8
HETATM    8  C   UNL     1     -22.543 -14.412  -2.873  1.00  0.00     0.007 C 
HETATM    9  C   UNL     1     -21.642 -14.591  -3.859  1.00  0.00    -0.062 C 
HETATM   10  C   UNL     1     -21.870 -15.637  -4.911  1.00  0.00     0.048 C 
BRANCH   9  11
HETATM   11  C   UNL     1     -20.426 -13.785  -4.002  1.00  0.00     0.007 C 
HETATM   12  C   UNL     1     -20.453 -12.452  -3.889  1.00  0.00     0.009 C 
BRANCH  12  13
HETATM   13  C   UNL     1     -19.396 -11.471  -4.124  1.00  0.00    -0.048 C 
HETATM   14  C   UNL     1     -19.719 -10.394  -4.897  1.00  0.00    -0.077 C 
HETATM   15  C   UNL     1     -21.079 -10.032  -5.480  1.00  0.00     0.044 C 
HETATM   16  C   UNL     1     -18.706  -9.342  -5.276  1.00  0.00     0.034 C 
HETATM   17  C   UNL     1     -17.300  -9.816  -4.980  1.00  0.00     0.005 C 
HETATM   18  C   UNL     1     -17.262 -10.233  -3.511  1.00  0.00     0.014 C 
HETATM   19  C   UNL     1     -18.051 -11.562  -3.307  1.00  0.00    -0.020 C 
HETATM   20  C   UNL     1     -18.392 -11.686  -1.799  1.00  0.00     0.020 C 
HETATM   21  C   UNL     1     -17.035 -12.706  -3.596  1.00  0.00     0.020 C 
ENDBRANCH  12  13
ENDBRANCH   9  11
ENDBRANCH   7   8
ENDBRANCH   4   6
ENDBRANCH   1   3
BRANCH   2  22
HETATM   22  C   UNL     1     -20.865  -8.343  -2.251  1.00  0.00     0.007 C 
HETATM   23  C   UNL     1     -21.518  -7.155  -2.299  1.00  0.00    -0.062 C 
HETATM   24  C   UNL     1     -22.405  -6.542  -1.240  1.00  0.00     0.048 C 
BRANCH  23  25
HETATM   25  C   UNL     1     -21.399  -6.238  -3.454  1.00  0.00     0.007 C 
HETATM   26  C   UNL     1     -21.673  -6.559  -4.735  1.00  0.00     0.001 C 
BRANCH  26  27
HETATM   27  C   UNL     1     -21.932  -5.577  -5.798  1.00  0.00     0.007 C 
HETATM   28  C   UNL     1     -21.018  -4.861  -6.501  1.00  0.00    -0.062 C 
HETATM   29  C   UNL     1     -19.559  -4.801  -6.108  1.00  0.00     0.048 C 
BRANCH  28  30
HETATM   30  C   UNL     1     -21.393  -4.126  -7.740  1.00  0.00     0.007 C 
HETATM   31  C   UNL     1     -21.734  -4.706  -8.909  1.00  0.00     0.009 C 
BRANCH  31  32
HETATM   32  C   UNL     1     -22.275  -4.094 -10.134  1.00  0.00    -0.048 C 
HETATM   33  C   UNL     1     -21.501  -3.579 -11.121  1.00  0.00    -0.077 C 
HETATM   34  C   UNL     1     -22.077  -2.988 -12.400  1.00  0.00     0.034 C 
HETATM   35  C   UNL     1     -19.992  -3.574 -11.132  1.00  0.00     0.044 C 
HETATM   36  C   UNL     1     -23.574  -2.719 -12.362  1.00  0.00     0.005 C 
HETATM   37  C   UNL     1     -24.297  -3.897 -11.739  1.00  0.00     0.014 C 
HETATM   38  C   UNL     1     -23.825  -4.184 -10.284  1.00  0.00    -0.020 C 
HETATM   39  C   UNL     1     -24.383  -5.590  -9.945  1.00  0.00     0.020 C 
HETATM   40  C   UNL     1     -24.492  -3.166  -9.334  1.00  0.00     0.020 C 
ENDBRANCH  31  32
ENDBRANCH  28  30
ENDBRANCH  26  27
ENDBRANCH  23  25
ENDBRANCH   2  22
TORSDOF 10
ENDMDL
MODEL 5
REMARK VINA RESULT:      -9.4      1.786      3.083
REMARK  10 active torsions:
REMARK  status: ('A' for Active; 'I' for Inactive)
REMARK    1  A    between atoms: C_3  and  C_10 
REMARK    2  A    between atoms: C_11  and  C_12 
REMARK    3  A    between atoms: C_13  and  C_14 
REMARK    4  A    between atoms: C_15  and  C_16 
REMARK    5  A    between atoms: C_17  and  C_18 
REMARK    6  A    between atoms: C_19  and  C_20 
REMARK    7  A    between atoms: C_21  and  C_23 
REMARK    8  A    between atoms: C_24  and  C_25 
REMARK    9  A    between atoms: C_26  and  C_28 
REMARK   10  A    between atoms: C_29  and  C_30 
ROOT
HETATM    1  C   UNL     1     -21.795 -10.951  -0.517  1.00  0.00     0.001 C 
HETATM    2  C   UNL     1     -21.099  -9.799  -0.645  1.00  0.00     0.001 C 
ENDROOT
BRANCH   1   3
HETATM    3  C   UNL     1     -21.945 -11.801   0.687  1.00  0.00     0.007 C 
HETATM    4  C   UNL     1     -22.774 -12.877   0.788  1.00  0.00    -0.062 C 
HETATM    5  C   UNL     1     -22.866 -13.781   1.998  1.00  0.00     0.048 C 
BRANCH   4   6
HETATM    6  C   UNL     1     -23.691 -13.217  -0.274  1.00  0.00     0.007 C 
HETATM    7  C   UNL     1     -23.699 -14.481  -0.725  1.00  0.00     0.001 C 
BRANCH   7   8
HETATM    8  C   UNL     1     -24.628 -15.102  -1.627  1.00  0.00     0.007 C 
HETATM    9  C   UNL     1     -24.261 -15.489  -2.865  1.00  0.00    -0.062 C 
HETATM   10  C   UNL     1     -25.168 -16.357  -3.687  1.00  0.00     0.048 C 
BRANCH   9  11
HETATM   11  C   UNL     1     -23.006 -15.079  -3.503  1.00  0.00     0.007 C 
HETATM   12  C   UNL     1     -22.944 -14.006  -4.299  1.00  0.00     0.009 C 
BRANCH  12  13
HETATM   13  C   UNL     1     -21.841 -13.514  -5.122  1.00  0.00    -0.048 C 
HETATM   14  C   UNL     1     -21.651 -14.128  -6.325  1.00  0.00    -0.077 C 
HETATM   15  C   UNL     1     -22.503 -15.214  -6.969  1.00  0.00     0.044 C 
HETATM   16  C   UNL     1     -20.508 -13.767  -7.242  1.00  0.00     0.034 C 
HETATM   17  C   UNL     1     -19.480 -12.926  -6.517  1.00  0.00     0.005 C 
HETATM   18  C   UNL     1     -20.215 -11.728  -5.918  1.00  0.00     0.014 C 
HETATM   19  C   UNL     1     -21.098 -12.183  -4.716  1.00  0.00    -0.020 C 
HETATM   20  C   UNL     1     -22.158 -11.080  -4.460  1.00  0.00     0.020 C 
HETATM   21  C   UNL     1     -20.163 -12.157  -3.471  1.00  0.00     0.020 C 
ENDBRANCH  12  13
ENDBRANCH   9  11
ENDBRANCH   7   8
ENDBRANCH   4   6
ENDBRANCH   1   3
BRANCH   2  22
HETATM   22  C   UNL     1     -21.228  -8.910  -1.803  1.00  0.00     0.007 C 
HETATM   23  C   UNL     1     -21.710  -7.645  -1.896  1.00  0.00    -0.062 C 
HETATM   24  C   UNL     1     -22.216  -6.762  -0.779  1.00  0.00     0.048 C 
BRANCH  23  25
HETATM   25  C   UNL     1     -21.763  -6.917  -3.183  1.00  0.00     0.007 C 
HETATM   26  C   UNL     1     -21.197  -7.328  -4.336  1.00  0.00     0.001 C 
BRANCH  26  27
HETATM   27  C   UNL     1     -21.570  -6.827  -5.667  1.00  0.00     0.007 C 
HETATM   28  C   UNL     1     -21.022  -5.783  -6.339  1.00  0.00    -0.062 C 
HETATM   29  C   UNL     1     -20.072  -4.806  -5.683  1.00  0.00     0.048 C 
BRANCH  28  30
HETATM   30  C   UNL     1     -21.287  -5.566  -7.787  1.00  0.00     0.007 C 
HETATM   31  C   UNL     1     -22.045  -4.571  -8.293  1.00  0.00     0.009 C 
BRANCH  31  32
HETATM   32  C   UNL     1     -22.241  -4.164  -9.695  1.00  0.00    -0.048 C 
HETATM   33  C   UNL     1     -21.231  -3.774 -10.511  1.00  0.00    -0.077 C 
HETATM   34  C   UNL     1     -21.446  -3.397 -11.970  1.00  0.00     0.034 C 
HETATM   35  C   UNL     1     -19.772  -3.720 -10.128  1.00  0.00     0.044 C 
HETATM   36  C   UNL     1     -22.898  -3.176 -12.365  1.00  0.00     0.005 C 
HETATM   37  C   UNL     1     -23.768  -4.272 -11.783  1.00  0.00     0.014 C 
HETATM   38  C   UNL     1     -23.697  -4.327 -10.229  1.00  0.00    -0.020 C 
HETATM   39  C   UNL     1     -24.334  -5.686  -9.840  1.00  0.00     0.020 C 
HETATM   40  C   UNL     1     -24.584  -3.203  -9.651  1.00  0.00     0.020 C 
ENDBRANCH  31  32
ENDBRANCH  28  30
ENDBRANCH  26  27
ENDBRANCH  23  25
ENDBRANCH   2  22
TORSDOF 10
ENDMDL
MODEL 6
REMARK VINA RESULT:      -9.2      1.729      4.357
REMARK  10 active torsions:
REMARK  status: ('A' for Active; 'I' for Inactive)
REMARK    1  A    between atoms: C_3  and  C_10 
REMARK    2  A    between atoms: C_11  and  C_12 
REMARK    3  A    between atoms: C_13  and  C_14 
REMARK    4  A    between atoms: C_15  and  C_16 
REMARK    5  A    between atoms: C_17  and  C_18 
REMARK    6  A    between atoms: C_19  and  C_20 
REMARK    7  A    between atoms: C_21  and  C_23 
REMARK    8  A    between atoms: C_24  and  C_25 
REMARK    9  A    between atoms: C_26  and  C_28 
REMARK   10  A    between atoms: C_29  and  C_30 
ROOT
HETATM    1  C   UNL     1     -17.014 -11.107  -2.011  1.00  0.00     0.001 C 
HETATM    2  C   UNL     1     -16.865 -10.074  -2.871  1.00  0.00     0.001 C 
ENDROOT
BRANCH   1   3
HETATM    3  C   UNL     1     -16.125 -11.506  -0.896  1.00  0.00     0.007 C 
HETATM    4  C   UNL     1     -16.126 -12.727  -0.292  1.00  0.00    -0.062 C 
HETATM    5  C   UNL     1     -15.164 -13.148   0.798  1.00  0.00     0.048 C 
BRANCH   4   6
HETATM    6  C   UNL     1     -17.109 -13.728  -0.630  1.00  0.00     0.007 C 
HETATM    7  C   UNL     1     -18.056 -14.019   0.276  1.00  0.00     0.001 C 
BRANCH   7   8
HETATM    8  C   UNL     1     -19.232 -14.827   0.112  1.00  0.00     0.007 C 
HETATM    9  C   UNL     1     -20.377 -14.318  -0.384  1.00  0.00    -0.062 C 
HETATM   10  C   UNL     1     -21.500 -15.229  -0.783  1.00  0.00     0.048 C 
BRANCH   9  11
HETATM   11  C   UNL     1     -20.625 -12.881  -0.537  1.00  0.00     0.007 C 
HETATM   12  C   UNL     1     -21.304 -12.187   0.383  1.00  0.00     0.009 C 
BRANCH  12  13
HETATM   13  C   UNL     1     -21.765 -10.801   0.358  1.00  0.00    -0.048 C 
HETATM   14  C   UNL     1     -21.006  -9.889   1.031  1.00  0.00    -0.077 C 
HETATM   15  C   UNL     1     -19.677 -10.116   1.740  1.00  0.00     0.044 C 
HETATM   16  C   UNL     1     -21.402  -8.437   1.145  1.00  0.00     0.034 C 
HETATM   17  C   UNL     1     -22.842  -8.237   0.726  1.00  0.00     0.005 C 
HETATM   18  C   UNL     1     -22.994  -8.828  -0.674  1.00  0.00     0.014 C 
HETATM   19  C   UNL     1     -22.937 -10.385  -0.612  1.00  0.00    -0.020 C 
HETATM   20  C   UNL     1     -22.613 -10.906  -2.037  1.00  0.00     0.020 C 
HETATM   21  C   UNL     1     -24.395 -10.850  -0.323  1.00  0.00     0.020 C 
ENDBRANCH  12  13
ENDBRANCH   9  11
ENDBRANCH   7   8
ENDBRANCH   4   6
ENDBRANCH   1   3
BRANCH   2  22
HETATM   22  C   UNL     1     -17.930  -9.619  -3.768  1.00  0.00     0.007 C 
HETATM   23  C   UNL     1     -19.120  -9.026  -3.498  1.00  0.00    -0.062 C 
HETATM   24  C   UNL     1     -19.665  -8.614  -2.150  1.00  0.00     0.048 C 
BRANCH  23  25
HETATM   25  C   UNL     1     -20.072  -8.649  -4.566  1.00  0.00     0.007 C 
HETATM   26  C   UNL     1     -20.578  -7.414  -4.760  1.00  0.00     0.001 C 
BRANCH  26  27
HETATM   27  C   UNL     1     -21.191  -6.957  -6.016  1.00  0.00     0.007 C 
HETATM   28  C   UNL     1     -21.046  -5.746  -6.611  1.00  0.00    -0.062 C 
HETATM   29  C   UNL     1     -20.397  -4.572  -5.913  1.00  0.00     0.048 C 
BRANCH  28  30
HETATM   30  C   UNL     1     -21.479  -5.514  -8.016  1.00  0.00     0.007 C 
HETATM   31  C   UNL     1     -22.055  -4.382  -8.471  1.00  0.00     0.009 C 
BRANCH  31  32
HETATM   32  C   UNL     1     -22.369  -3.981  -9.853  1.00  0.00    -0.048 C 
HETATM   33  C   UNL     1     -21.437  -3.556 -10.740  1.00  0.00    -0.077 C 
HETATM   34  C   UNL     1     -21.773  -3.187 -12.178  1.00  0.00     0.034 C 
HETATM   35  C   UNL     1     -19.956  -3.450 -10.467  1.00  0.00     0.044 C 
HETATM   36  C   UNL     1     -23.257  -3.016 -12.464  1.00  0.00     0.005 C 
HETATM   37  C   UNL     1     -24.042  -4.143 -11.821  1.00  0.00     0.014 C 
HETATM   38  C   UNL     1     -23.854  -4.196 -10.278  1.00  0.00    -0.020 C 
HETATM   39  C   UNL     1     -24.412  -5.577  -9.846  1.00  0.00     0.020 C 
HETATM   40  C   UNL     1     -24.735  -3.104  -9.631  1.00  0.00     0.020 C 
ENDBRANCH  31  32
ENDBRANCH  28  30
ENDBRANCH  26  27
ENDBRANCH  23  25
ENDBRANCH   2  22
TORSDOF 10
ENDMDL
MODEL 7
REMARK VINA RESULT:      -9.1      2.130      4.488
REMARK  10 active torsions:
REMARK  status: ('A' for Active; 'I' for Inactive)
REMARK    1  A    between atoms: C_3  and  C_10 
REMARK    2  A    between atoms: C_11  and  C_12 
REMARK    3  A    between atoms: C_13  and  C_14 
REMARK    4  A    between atoms: C_15  and  C_16 
REMARK    5  A    between atoms: C_17  and  C_18 
REMARK    6  A    between atoms: C_19  and  C_20 
REMARK    7  A    between atoms: C_21  and  C_23 
REMARK    8  A    between atoms: C_24  and  C_25 
REMARK    9  A    between atoms: C_26  and  C_28 
REMARK   10  A    between atoms: C_29  and  C_30 
ROOT
HETATM    1  C   UNL     1     -18.286 -10.782  -2.650  1.00  0.00     0.001 C 
HETATM    2  C   UNL     1     -18.478  -9.445  -2.621  1.00  0.00     0.001 C 
ENDROOT
BRANCH   1   3
HETATM    3  C   UNL     1     -17.722 -11.649  -1.589  1.00  0.00     0.007 C 
HETATM    4  C   UNL     1     -16.430 -12.078  -1.532  1.00  0.00    -0.062 C 
HETATM    5  C   UNL     1     -15.847 -12.904  -0.406  1.00  0.00     0.048 C 
BRANCH   4   6
HETATM    6  C   UNL     1     -15.503 -11.803  -2.604  1.00  0.00     0.007 C 
HETATM    7  C   UNL     1     -14.572 -12.727  -2.891  1.00  0.00     0.001 C 
BRANCH   7   8
HETATM    8  C   UNL     1     -13.671 -12.771  -4.008  1.00  0.00     0.007 C 
HETATM    9  C   UNL     1     -14.115 -12.952  -5.268  1.00  0.00    -0.062 C 
HETATM   10  C   UNL     1     -13.193 -12.739  -6.432  1.00  0.00     0.048 C 
BRANCH   9  11
HETATM   11  C   UNL     1     -15.475 -13.391  -5.593  1.00  0.00     0.007 C 
HETATM   12  C   UNL     1     -16.398 -12.534  -6.044  1.00  0.00     0.009 C 
BRANCH  12  13
HETATM   13  C   UNL     1     -17.822 -12.739  -6.296  1.00  0.00    -0.048 C 
HETATM   14  C   UNL     1     -18.599 -11.620  -6.374  1.00  0.00    -0.077 C 
HETATM   15  C   UNL     1     -18.155 -10.164  -6.320  1.00  0.00     0.044 C 
HETATM   16  C   UNL     1     -20.095 -11.689  -6.560  1.00  0.00     0.034 C 
HETATM   17  C   UNL     1     -20.605 -13.093  -6.314  1.00  0.00     0.005 C 
HETATM   18  C   UNL     1     -19.808 -14.030  -7.220  1.00  0.00     0.014 C 
HETATM   19  C   UNL     1     -18.346 -14.171  -6.699  1.00  0.00    -0.020 C 
HETATM   20  C   UNL     1     -17.476 -14.709  -7.864  1.00  0.00     0.020 C 
HETATM   21  C   UNL     1     -18.381 -15.317  -5.645  1.00  0.00     0.020 C 
ENDBRANCH  12  13
ENDBRANCH   9  11
ENDBRANCH   7   8
ENDBRANCH   4   6
ENDBRANCH   1   3
BRANCH   2  22
HETATM   22  C   UNL     1     -19.276  -8.729  -3.620  1.00  0.00     0.007 C 
HETATM   23  C   UNL     1     -20.585  -8.849  -3.956  1.00  0.00    -0.062 C 
HETATM   24  C   UNL     1     -21.623  -9.752  -3.332  1.00  0.00     0.048 C 
BRANCH  23  25
HETATM   25  C   UNL     1     -21.203  -8.024  -5.019  1.00  0.00     0.007 C 
HETATM   26  C   UNL     1     -21.852  -6.858  -4.823  1.00  0.00     0.001 C 
BRANCH  26  27
HETATM   27  C   UNL     1     -22.111  -5.867  -5.877  1.00  0.00     0.007 C 
HETATM   28  C   UNL     1     -21.248  -4.941  -6.368  1.00  0.00    -0.062 C 
HETATM   29  C   UNL     1     -19.924  -4.636  -5.707  1.00  0.00     0.048 C 
BRANCH  28  30
HETATM   30  C   UNL     1     -21.538  -4.200  -7.627  1.00  0.00     0.007 C 
HETATM   31  C   UNL     1     -21.860  -4.774  -8.805  1.00  0.00     0.009 C 
BRANCH  31  32
HETATM   32  C   UNL     1     -22.322  -4.148 -10.055  1.00  0.00    -0.048 C 
HETATM   33  C   UNL     1     -21.485  -3.686 -11.016  1.00  0.00    -0.077 C 
HETATM   34  C   UNL     1     -21.981  -3.080 -12.321  1.00  0.00     0.034 C 
HETATM   35  C   UNL     1     -19.979  -3.759 -10.970  1.00  0.00     0.044 C 
HETATM   36  C   UNL     1     -23.462  -2.732 -12.343  1.00  0.00     0.005 C 
HETATM   37  C   UNL     1     -24.269  -3.864 -11.737  1.00  0.00     0.014 C 
HETATM   38  C   UNL     1     -23.868  -4.159 -10.263  1.00  0.00    -0.020 C 
HETATM   39  C   UNL     1     -24.511  -5.531  -9.932  1.00  0.00     0.020 C 
HETATM   40  C   UNL     1     -24.515  -3.097  -9.347  1.00  0.00     0.020 C 
ENDBRANCH  31  32
ENDBRANCH  28  30
ENDBRANCH  26  27
ENDBRANCH  23  25
ENDBRANCH   2  22
TORSDOF 10
ENDMDL
MODEL 8
REMARK VINA RESULT:      -9.1      0.715      1.785
REMARK  10 active torsions:
REMARK  status: ('A' for Active; 'I' for Inactive)
REMARK    1  A    between atoms: C_3  and  C_10 
REMARK    2  A    between atoms: C_11  and  C_12 
REMARK    3  A    between atoms: C_13  and  C_14 
REMARK    4  A    between atoms: C_15  and  C_16 
REMARK    5  A    between atoms: C_17  and  C_18 
REMARK    6  A    between atoms: C_19  and  C_20 
REMARK    7  A    between atoms: C_21  and  C_23 
REMARK    8  A    between atoms: C_24  and  C_25 
REMARK    9  A    between atoms: C_26  and  C_28 
REMARK   10  A    between atoms: C_29  and  C_30 
ROOT
HETATM    1  C   UNL     1     -21.392  -9.945  -0.283  1.00  0.00     0.001 C 
HETATM    2  C   UNL     1     -21.810  -8.665  -0.161  1.00  0.00     0.001 C 
ENDROOT
BRANCH   1   3
HETATM    3  C   UNL     1     -21.496 -11.041   0.710  1.00  0.00     0.007 C 
HETATM    4  C   UNL     1     -22.119 -12.233   0.497  1.00  0.00    -0.062 C 
HETATM    5  C   UNL     1     -22.157 -13.373   1.492  1.00  0.00     0.048 C 
BRANCH   4   6
HETATM    6  C   UNL     1     -22.852 -12.487  -0.720  1.00  0.00     0.007 C 
HETATM    7  C   UNL     1     -22.466 -11.853  -1.838  1.00  0.00     0.001 C 
BRANCH   7   8
HETATM    8  C   UNL     1     -22.908 -12.072  -3.188  1.00  0.00     0.007 C 
HETATM    9  C   UNL     1     -22.091 -11.871  -4.241  1.00  0.00    -0.062 C 
HETATM   10  C   UNL     1     -22.488 -12.347  -5.607  1.00  0.00     0.048 C 
BRANCH   9  11
HETATM   11  C   UNL     1     -20.810 -11.163  -4.149  1.00  0.00     0.007 C 
HETATM   12  C   UNL     1     -19.675 -11.808  -3.858  1.00  0.00     0.009 C 
BRANCH  12  13
HETATM   13  C   UNL     1     -18.339 -11.277  -3.594  1.00  0.00    -0.048 C 
HETATM   14  C   UNL     1     -17.853 -11.441  -2.330  1.00  0.00    -0.077 C 
HETATM   15  C   UNL     1     -18.492 -12.191  -1.169  1.00  0.00     0.044 C 
HETATM   16  C   UNL     1     -16.518 -10.881  -1.901  1.00  0.00     0.034 C 
HETATM   17  C   UNL     1     -16.001  -9.885  -2.916  1.00  0.00     0.005 C 
HETATM   18  C   UNL     1     -15.989 -10.584  -4.273  1.00  0.00     0.014 C 
HETATM   19  C   UNL     1     -17.446 -10.777  -4.794  1.00  0.00    -0.020 C 
HETATM   20  C   UNL     1     -17.419 -11.879  -5.886  1.00  0.00     0.020 C 
HETATM   21  C   UNL     1     -17.806  -9.460  -5.542  1.00  0.00     0.020 C 
ENDBRANCH  12  13
ENDBRANCH   9  11
ENDBRANCH   7   8
ENDBRANCH   4   6
ENDBRANCH   1   3
BRANCH   2  22
HETATM   22  C   UNL     1     -21.889  -7.738  -1.293  1.00  0.00     0.007 C 
HETATM   23  C   UNL     1     -21.008  -7.488  -2.294  1.00  0.00    -0.062 C 
HETATM   24  C   UNL     1     -19.678  -8.161  -2.547  1.00  0.00     0.048 C 
BRANCH  23  25
HETATM   25  C   UNL     1     -21.280  -6.489  -3.350  1.00  0.00     0.007 C 
HETATM   26  C   UNL     1     -21.408  -6.760  -4.665  1.00  0.00     0.001 C 
BRANCH  26  27
HETATM   27  C   UNL     1     -22.053  -5.864  -5.637  1.00  0.00     0.007 C 
HETATM   28  C   UNL     1     -21.447  -5.008  -6.498  1.00  0.00    -0.062 C 
HETATM   29  C   UNL     1     -19.975  -4.674  -6.407  1.00  0.00     0.048 C 
BRANCH  28  30
HETATM   30  C   UNL     1     -22.192  -4.379  -7.623  1.00  0.00     0.007 C 
HETATM   31  C   UNL     1     -21.750  -4.302  -8.895  1.00  0.00     0.009 C 
BRANCH  31  32
HETATM   32  C   UNL     1     -22.460  -3.859 -10.107  1.00  0.00    -0.048 C 
HETATM   33  C   UNL     1     -23.807  -3.734 -10.183  1.00  0.00    -0.077 C 
HETATM   34  C   UNL     1     -24.522  -3.233 -11.431  1.00  0.00     0.034 C 
HETATM   35  C   UNL     1     -24.773  -3.999  -9.054  1.00  0.00     0.044 C 
HETATM   36  C   UNL     1     -23.662  -3.190 -12.685  1.00  0.00     0.005 C 
HETATM   37  C   UNL     1     -22.303  -2.599 -12.363  1.00  0.00     0.014 C 
HETATM   38  C   UNL     1     -21.537  -3.419 -11.285  1.00  0.00    -0.020 C 
HETATM   39  C   UNL     1     -20.372  -2.503 -10.829  1.00  0.00     0.020 C 
HETATM   40  C   UNL     1     -20.926  -4.671 -11.952  1.00  0.00     0.020 C 
ENDBRANCH  31  32
ENDBRANCH  28  30
ENDBRANCH  26  27
ENDBRANCH  23  25
ENDBRANCH   2  22
TORSDOF 10
ENDMDL
MODEL 9
REMARK VINA RESULT:      -8.8      1.461      4.012
REMARK  10 active torsions:
REMARK  status: ('A' for Active; 'I' for Inactive)
REMARK    1  A    between atoms: C_3  and  C_10 
REMARK    2  A    between atoms: C_11  and  C_12 
REMARK    3  A    between atoms: C_13  and  C_14 
REMARK    4  A    between atoms: C_15  and  C_16 
REMARK    5  A    between atoms: C_17  and  C_18 
REMARK    6  A    between atoms: C_19  and  C_20 
REMARK    7  A    between atoms: C_21  and  C_23 
REMARK    8  A    between atoms: C_24  and  C_25 
REMARK    9  A    between atoms: C_26  and  C_28 
REMARK   10  A    between atoms: C_29  and  C_30 
ROOT
HETATM    1  C   UNL     1     -16.863  -9.727  -3.247  1.00  0.00     0.001 C 
HETATM    2  C   UNL     1     -18.215  -9.730  -3.261  1.00  0.00     0.001 C 
ENDROOT
BRANCH   1   3
HETATM    3  C   UNL     1     -15.953 -10.689  -2.582  1.00  0.00     0.007 C 
HETATM    4  C   UNL     1     -15.616 -11.914  -3.071  1.00  0.00    -0.062 C 
HETATM    5  C   UNL     1     -14.629 -12.858  -2.419  1.00  0.00     0.048 C 
BRANCH   4   6
HETATM    6  C   UNL     1     -16.233 -12.439  -4.266  1.00  0.00     0.007 C 
HETATM    7  C   UNL     1     -17.252 -13.302  -4.128  1.00  0.00     0.001 C 
BRANCH   7   8
HETATM    8  C   UNL     1     -18.134 -13.812  -5.141  1.00  0.00     0.007 C 
HETATM    9  C   UNL     1     -19.471 -13.822  -4.973  1.00  0.00    -0.062 C 
HETATM   10  C   UNL     1     -20.376 -14.117  -6.133  1.00  0.00     0.048 C 
BRANCH   9  11
HETATM   11  C   UNL     1     -20.128 -13.589  -3.684  1.00  0.00     0.007 C 
HETATM   12  C   UNL     1     -20.419 -12.355  -3.259  1.00  0.00     0.009 C 
BRANCH  12  13
HETATM   13  C   UNL     1     -20.943 -11.907  -1.971  1.00  0.00    -0.048 C 
HETATM   14  C   UNL     1     -22.162 -11.293  -1.984  1.00  0.00    -0.077 C 
HETATM   15  C   UNL     1     -23.097 -11.090  -3.168  1.00  0.00     0.044 C 
HETATM   16  C   UNL     1     -22.789 -10.721  -0.736  1.00  0.00     0.034 C 
HETATM   17  C   UNL     1     -21.775 -10.629   0.383  1.00  0.00     0.005 C 
HETATM   18  C   UNL     1     -21.167 -12.019   0.559  1.00  0.00     0.014 C 
HETATM   19  C   UNL     1     -20.227 -12.353  -0.639  1.00  0.00    -0.020 C 
HETATM   20  C   UNL     1     -20.026 -13.891  -0.672  1.00  0.00     0.020 C 
HETATM   21  C   UNL     1     -18.836 -11.762  -0.262  1.00  0.00     0.020 C 
ENDBRANCH  12  13
ENDBRANCH   9  11
ENDBRANCH   7   8
ENDBRANCH   4   6
ENDBRANCH   1   3
BRANCH   2  22
HETATM   22  C   UNL     1     -19.008  -8.885  -4.159  1.00  0.00     0.007 C 
HETATM   23  C   UNL     1     -20.154  -8.193  -3.938  1.00  0.00    -0.062 C 
HETATM   24  C   UNL     1     -20.923  -8.062  -2.644  1.00  0.00     0.048 C 
BRANCH  23  25
HETATM   25  C   UNL     1     -20.808  -7.397  -5.000  1.00  0.00     0.007 C 
HETATM   26  C   UNL     1     -21.009  -6.064  -4.963  1.00  0.00     0.001 C 
BRANCH  26  27
HETATM   27  C   UNL     1     -21.288  -5.235  -6.145  1.00  0.00     0.007 C 
HETATM   28  C   UNL     1     -20.386  -4.626  -6.957  1.00  0.00    -0.062 C 
HETATM   29  C   UNL     1     -18.920  -4.519  -6.604  1.00  0.00     0.048 C 
BRANCH  28  30
HETATM   30  C   UNL     1     -20.784  -4.066  -8.277  1.00  0.00     0.007 C 
HETATM   31  C   UNL     1     -21.766  -4.558  -9.062  1.00  0.00     0.009 C 
BRANCH  31  32
HETATM   32  C   UNL     1     -22.350  -3.997 -10.291  1.00  0.00    -0.048 C 
HETATM   33  C   UNL     1     -21.613  -3.473 -11.301  1.00  0.00    -0.077 C 
HETATM   34  C   UNL     1     -22.232  -2.936 -12.584  1.00  0.00     0.034 C 
HETATM   35  C   UNL     1     -20.106  -3.404 -11.335  1.00  0.00     0.044 C 
HETATM   36  C   UNL     1     -23.738  -2.730 -12.529  1.00  0.00     0.005 C 
HETATM   37  C   UNL     1     -24.402  -3.922 -11.868  1.00  0.00     0.014 C 
HETATM   38  C   UNL     1     -23.897  -4.156 -10.415  1.00  0.00    -0.020 C 
HETATM   39  C   UNL     1     -24.390  -5.577 -10.037  1.00  0.00     0.020 C 
HETATM   40  C   UNL     1     -24.593  -3.145  -9.478  1.00  0.00     0.020 C 
ENDBRANCH  31  32
ENDBRANCH  28  30
ENDBRANCH  26  27
ENDBRANCH  23  25
ENDBRANCH   2  22
TORSDOF 10
ENDMDL
