MODEL 1
REMARK VINA RESULT:      -4.7      0.000      0.000
REMARK  4 active torsions:
REMARK  status: ('A' for Active; 'I' for Inactive)
REMARK    1  A    between atoms: C_2  and  C_3 
REMARK    2  A    between atoms: C_2  and  O_8 
REMARK    3  A    between atoms: C_3  and  C_4 
REMARK    4  A    between atoms: C_4  and  O_7 
ROOT
HETATM    1  C   UNL     1     -23.691  -2.608 -12.770  1.00  0.00     0.068 C 
ENDROOT
BRANCH   1   2
HETATM    2  C   UNL     1     -23.153  -2.730 -14.203  1.00  0.00     0.117 C 
HETATM    3  C   UNL     1     -23.399  -1.462 -15.012  1.00  0.00     0.039 C 
BRANCH   2   4
HETATM    4  O   UNL     1     -23.784  -3.828 -14.867  1.00  0.00    -0.396 OA
HETATM    5  H   UNL     1     -23.468  -4.648 -14.442  1.00  0.00     0.210 HD
ENDBRANCH   2   4
ENDBRANCH   1   2
BRANCH   1   6
HETATM    6  C   UNL     1     -23.164  -3.677 -11.787  1.00  0.00     0.053 C 
HETATM    7  C   UNL     1     -21.651  -3.585 -11.582  1.00  0.00     0.045 C 
HETATM    8  C   UNL     1     -23.872  -3.536 -10.437  1.00  0.00     0.045 C 
BRANCH   6   9
HETATM    9  O   UNL     1     -23.475  -4.985 -12.273  1.00  0.00    -0.391 OA
HETATM   10  H   UNL     1     -23.899  -4.871 -13.150  1.00  0.00     0.210 HD
ENDBRANCH   6   9
ENDBRANCH   1   6
TORSDOF 4
ENDMDL
MODEL 2
REMARK VINA RESULT:      -4.6      1.703      2.029
REMARK  4 active torsions:
REMARK  status: ('A' for Active; 'I' for Inactive)
REMARK    1  A    between atoms: C_2  and  C_3 
REMARK    2  A    between atoms: C_2  and  O_8 
REMARK    3  A    between atoms: C_3  and  C_4 
REMARK    4  A    between atoms: C_4  and  O_7 
ROOT
HETATM    1  C   UNL     1     -22.935  -2.895 -11.879  1.00  0.00     0.068 C 
ENDROOT
BRANCH   1   2
HETATM    2  C   UNL     1     -23.744  -3.076 -13.172  1.00  0.00     0.117 C 
HETATM    3  C   UNL     1     -22.925  -2.730 -14.409  1.00  0.00     0.039 C 
BRANCH   2   4
HETATM    4  O   UNL     1     -24.904  -2.240 -13.139  1.00  0.00    -0.396 OA
HETATM    5  H   UNL     1     -24.713  -1.454 -13.686  1.00  0.00     0.210 HD
ENDBRANCH   2   4
ENDBRANCH   1   2
BRANCH   1   6
HETATM    6  C   UNL     1     -23.497  -3.645 -10.651  1.00  0.00     0.053 C 
HETATM    7  C   UNL     1     -23.774  -5.120 -10.946  1.00  0.00     0.045 C 
HETATM    8  C   UNL     1     -22.518  -3.533  -9.480  1.00  0.00     0.045 C 
BRANCH   6   9
HETATM    9  O   UNL     1     -24.715  -3.034 -10.220  1.00  0.00    -0.391 OA
HETATM   10  H   UNL     1     -24.950  -2.358 -10.891  1.00  0.00     0.210 HD
ENDBRANCH   6   9
ENDBRANCH   1   6
TORSDOF 4
ENDMDL
MODEL 3
REMARK VINA RESULT:      -4.5      2.290      2.963
REMARK  4 active torsions:
REMARK  status: ('A' for Active; 'I' for Inactive)
REMARK    1  A    between atoms: C_2  and  C_3 
REMARK    2  A    between atoms: C_2  and  O_8 
REMARK    3  A    between atoms: C_3  and  C_4 
REMARK    4  A    between atoms: C_4  and  O_7 
ROOT
HETATM    1  C   UNL     1     -23.000  -3.008 -11.213  1.00  0.00     0.068 C 
ENDROOT
BRANCH   1   2
HETATM    2  C   UNL     1     -21.894  -3.844 -11.873  1.00  0.00     0.117 C 
HETATM    3  C   UNL     1     -20.537  -3.605 -11.224  1.00  0.00     0.039 C 
BRANCH   2   4
HETATM    4  O   UNL     1     -21.804  -3.517 -13.262  1.00  0.00    -0.396 OA
HETATM    5  H   UNL     1     -21.063  -4.032 -13.636  1.00  0.00     0.210 HD
ENDBRANCH   2   4
ENDBRANCH   1   2
BRANCH   1   6
HETATM    6  C   UNL     1     -23.919  -3.792 -10.250  1.00  0.00     0.053 C 
HETATM    7  C   UNL     1     -23.992  -5.280 -10.596  1.00  0.00     0.045 C 
HETATM    8  C   UNL     1     -23.426  -3.626  -8.810  1.00  0.00     0.045 C 
BRANCH   6   9
HETATM    9  O   UNL     1     -25.243  -3.254 -10.289  1.00  0.00    -0.391 OA
HETATM   10  H   UNL     1     -25.666  -3.469  -9.431  1.00  0.00     0.210 HD
ENDBRANCH   6   9
ENDBRANCH   1   6
TORSDOF 4
ENDMDL
MODEL 4
REMARK VINA RESULT:      -4.4      2.621      4.706
REMARK  4 active torsions:
REMARK  status: ('A' for Active; 'I' for Inactive)
REMARK    1  A    between atoms: C_2  and  C_3 
REMARK    2  A    between atoms: C_2  and  O_8 
REMARK    3  A    between atoms: C_3  and  C_4 
REMARK    4  A    between atoms: C_4  and  O_7 
ROOT
HETATM    1  C   UNL     1     -22.369  -4.303  -9.751  1.00  0.00     0.068 C 
ENDROOT
BRANCH   1   2
HETATM    2  C   UNL     1     -22.662  -3.597  -8.419  1.00  0.00     0.117 C 
HETATM    3  C   UNL     1     -21.517  -3.757  -7.426  1.00  0.00     0.039 C 
BRANCH   2   4
HETATM    4  O   UNL     1     -23.853  -4.133  -7.838  1.00  0.00    -0.396 OA
HETATM    5  H   UNL     1     -23.594  -4.609  -7.026  1.00  0.00     0.210 HD
ENDBRANCH   2   4
ENDBRANCH   1   2
BRANCH   1   6
HETATM    6  C   UNL     1     -23.119  -3.724 -10.971  1.00  0.00     0.053 C 
HETATM    7  C   UNL     1     -22.250  -2.769 -11.790  1.00  0.00     0.045 C 
HETATM    8  C   UNL     1     -23.611  -4.864 -11.867  1.00  0.00     0.045 C 
BRANCH   6   9
HETATM    9  O   UNL     1     -24.284  -3.018 -10.539  1.00  0.00    -0.391 OA
HETATM   10  H   UNL     1     -24.141  -2.072 -10.755  1.00  0.00     0.210 HD
ENDBRANCH   6   9
ENDBRANCH   1   6
TORSDOF 4
ENDMDL
MODEL 5
REMARK VINA RESULT:      -4.2     11.543     12.301
REMARK  4 active torsions:
REMARK  status: ('A' for Active; 'I' for Inactive)
REMARK    1  A    between atoms: C_2  and  C_3 
REMARK    2  A    between atoms: C_2  and  O_8 
REMARK    3  A    between atoms: C_3  and  C_4 
REMARK    4  A    between atoms: C_4  and  O_7 
ROOT
HETATM    1  C   UNL     1     -34.442  -1.438 -11.761  1.00  0.00     0.068 C 
ENDROOT
BRANCH   1   2
HETATM    2  C   UNL     1     -34.522  -2.915 -12.172  1.00  0.00     0.117 C 
HETATM    3  C   UNL     1     -33.441  -3.753 -11.499  1.00  0.00     0.039 C 
BRANCH   2   4
HETATM    4  O   UNL     1     -34.377  -3.032 -13.590  1.00  0.00    -0.396 OA
HETATM    5  H   UNL     1     -35.242  -2.822 -13.991  1.00  0.00     0.210 HD
ENDBRANCH   2   4
ENDBRANCH   1   2
BRANCH   1   6
HETATM    6  C   UNL     1     -35.577  -0.548 -12.314  1.00  0.00     0.053 C 
HETATM    7  C   UNL     1     -36.443   0.050 -11.202  1.00  0.00     0.045 C 
HETATM    8  C   UNL     1     -34.987   0.580 -13.164  1.00  0.00     0.045 C 
BRANCH   6   9
HETATM    9  O   UNL     1     -36.419  -1.311 -13.180  1.00  0.00    -0.391 OA
HETATM   10  H   UNL     1     -37.274  -0.835 -13.242  1.00  0.00     0.210 HD
ENDBRANCH   6   9
ENDBRANCH   1   6
TORSDOF 4
ENDMDL
MODEL 6
REMARK VINA RESULT:      -4.2     16.786     18.138
REMARK  4 active torsions:
REMARK  status: ('A' for Active; 'I' for Inactive)
REMARK    1  A    between atoms: C_2  and  C_3 
REMARK    2  A    between atoms: C_2  and  O_8 
REMARK    3  A    between atoms: C_3  and  C_4 
REMARK    4  A    between atoms: C_4  and  O_7 
ROOT
HETATM    1  C   UNL     1     -11.163   6.925 -19.710  1.00  0.00     0.068 C 
ENDROOT
BRANCH   1   2
HETATM    2  C   UNL     1     -10.082   5.857 -19.483  1.00  0.00     0.117 C 
HETATM    3  C   UNL     1     -10.586   4.458 -19.817  1.00  0.00     0.039 C 
BRANCH   2   4
HETATM    4  O   UNL     1      -9.660   5.879 -18.117  1.00  0.00    -0.396 OA
HETATM    5  H   UNL     1      -9.070   6.650 -18.005  1.00  0.00     0.210 HD
ENDBRANCH   2   4
ENDBRANCH   1   2
BRANCH   1   6
HETATM    6  C   UNL     1     -10.670   8.383 -19.586  1.00  0.00     0.053 C 
HETATM    7  C   UNL     1      -9.569   8.715 -20.596  1.00  0.00     0.045 C 
HETATM    8  C   UNL     1     -11.844   9.347 -19.775  1.00  0.00     0.045 C 
BRANCH   6   9
HETATM    9  O   UNL     1     -10.161   8.617 -18.271  1.00  0.00    -0.391 OA
HETATM   10  H   UNL     1      -9.633   9.443 -18.310  1.00  0.00     0.210 HD
ENDBRANCH   6   9
ENDBRANCH   1   6
TORSDOF 4
ENDMDL
MODEL 7
REMARK VINA RESULT:      -4.1     10.977     12.827
REMARK  4 active torsions:
REMARK  status: ('A' for Active; 'I' for Inactive)
REMARK    1  A    between atoms: C_2  and  C_3 
REMARK    2  A    between atoms: C_2  and  O_8 
REMARK    3  A    between atoms: C_3  and  C_4 
REMARK    4  A    between atoms: C_4  and  O_7 
ROOT
HETATM    1  C   UNL     1     -21.459  -7.696  -1.221  1.00  0.00     0.068 C 
ENDROOT
BRANCH   1   2
HETATM    2  C   UNL     1     -22.182  -6.734  -2.175  1.00  0.00     0.117 C 
HETATM    3  C   UNL     1     -21.396  -6.510  -3.461  1.00  0.00     0.039 C 
BRANCH   2   4
HETATM    4  O   UNL     1     -22.380  -5.472  -1.532  1.00  0.00    -0.396 OA
HETATM    5  H   UNL     1     -21.501  -5.067  -1.404  1.00  0.00     0.210 HD
ENDBRANCH   2   4
ENDBRANCH   1   2
BRANCH   1   6
HETATM    6  C   UNL     1     -22.346  -8.292  -0.106  1.00  0.00     0.053 C 
HETATM    7  C   UNL     1     -22.847  -9.697  -0.448  1.00  0.00     0.045 C 
HETATM    8  C   UNL     1     -21.567  -8.334   1.212  1.00  0.00     0.045 C 
BRANCH   6   9
HETATM    9  O   UNL     1     -23.479  -7.452   0.120  1.00  0.00    -0.391 OA
HETATM   10  H   UNL     1     -23.246  -6.560  -0.214  1.00  0.00     0.210 HD
ENDBRANCH   6   9
ENDBRANCH   1   6
TORSDOF 4
ENDMDL
MODEL 8
REMARK VINA RESULT:      -4.0     11.526     12.022
REMARK  4 active torsions:
REMARK  status: ('A' for Active; 'I' for Inactive)
REMARK    1  A    between atoms: C_2  and  C_3 
REMARK    2  A    between atoms: C_2  and  O_8 
REMARK    3  A    between atoms: C_3  and  C_4 
REMARK    4  A    between atoms: C_4  and  O_7 
ROOT
HETATM    1  C   UNL     1     -34.917  -2.028 -12.621  1.00  0.00     0.068 C 
ENDROOT
BRANCH   1   2
HETATM    2  C   UNL     1     -35.752  -0.751 -12.445  1.00  0.00     0.117 C 
HETATM    3  C   UNL     1     -36.526  -0.398 -13.710  1.00  0.00     0.039 C 
BRANCH   2   4
HETATM    4  O   UNL     1     -34.897   0.345 -12.109  1.00  0.00    -0.396 OA
HETATM    5  H   UNL     1     -35.203   0.704 -11.255  1.00  0.00     0.210 HD
ENDBRANCH   2   4
ENDBRANCH   1   2
BRANCH   1   6
HETATM    6  C   UNL     1     -34.484  -2.707 -11.303  1.00  0.00     0.053 C 
HETATM    7  C   UNL     1     -35.452  -3.810 -10.871  1.00  0.00     0.045 C 
HETATM    8  C   UNL     1     -33.078  -3.291 -11.456  1.00  0.00     0.045 C 
BRANCH   6   9
HETATM    9  O   UNL     1     -34.408  -1.738 -10.255  1.00  0.00    -0.391 OA
HETATM   10  H   UNL     1     -35.319  -1.612  -9.914  1.00  0.00     0.210 HD
ENDBRANCH   6   9
ENDBRANCH   1   6
TORSDOF 4
ENDMDL
MODEL 9
REMARK VINA RESULT:      -3.8     10.950     11.621
REMARK  4 active torsions:
REMARK  status: ('A' for Active; 'I' for Inactive)
REMARK    1  A    between atoms: C_2  and  C_3 
REMARK    2  A    between atoms: C_2  and  O_8 
REMARK    3  A    between atoms: C_3  and  C_4 
REMARK    4  A    between atoms: C_4  and  O_7 
ROOT
HETATM    1  C   UNL     1     -24.459   7.488 -11.752  1.00  0.00     0.068 C 
ENDROOT
BRANCH   1   2
HETATM    2  C   UNL     1     -23.798   8.846 -11.476  1.00  0.00     0.117 C 
HETATM    3  C   UNL     1     -23.918   9.790 -12.667  1.00  0.00     0.039 C 
BRANCH   2   4
HETATM    4  O   UNL     1     -22.413   8.659 -11.176  1.00  0.00    -0.396 OA
HETATM    5  H   UNL     1     -22.154   7.783 -11.520  1.00  0.00     0.210 HD
ENDBRANCH   2   4
ENDBRANCH   1   2
BRANCH   1   6
HETATM    6  C   UNL     1     -25.663   7.156 -10.843  1.00  0.00     0.053 C 
HETATM    7  C   UNL     1     -25.447   5.874 -10.036  1.00  0.00     0.045 C 
HETATM    8  C   UNL     1     -25.931   8.322  -9.888  1.00  0.00     0.045 C 
BRANCH   6   9
HETATM    9  O   UNL     1     -26.844   6.998 -11.632  1.00  0.00    -0.391 OA
HETATM   10  H   UNL     1     -27.587   6.847 -11.011  1.00  0.00     0.210 HD
ENDBRANCH   6   9
ENDBRANCH   1   6
TORSDOF 4
ENDMDL
