MODEL 1
REMARK VINA RESULT:      -6.0      0.000      0.000
REMARK  2 active torsions:
REMARK  status: ('A' for Active; 'I' for Inactive)
REMARK    1  A    between atoms: C_5  and  C_9 
REMARK    2  A    between atoms: C_6  and  O_8 
ROOT
HETATM    1  C   UNL     1     -20.113  -4.807  -5.221  1.00  0.00     0.010 C 
HETATM    2  C   UNL     1     -20.370  -5.539  -6.544  1.00  0.00    -0.016 C 
HETATM    3  C   UNL     1     -19.536  -4.934  -7.684  1.00  0.00     0.005 C 
HETATM    4  C   UNL     1     -20.097  -3.605  -8.201  1.00  0.00     0.008 C 
HETATM    5  C   UNL     1     -21.576  -3.718  -8.637  1.00  0.00     0.018 C 
HETATM    6  C   UNL     1     -22.370  -4.203  -7.399  1.00  0.00     0.122 C 
HETATM    7  C   UNL     1     -21.867  -5.558  -6.889  1.00  0.00     0.036 C 
ENDROOT
BRANCH   5   8
HETATM    8  C   UNL     1     -21.752  -4.572  -9.941  1.00  0.00    -0.016 C 
HETATM    9  C   UNL     1     -23.059  -4.287 -10.692  1.00  0.00     0.010 C 
HETATM   10  C   UNL     1     -20.592  -4.351 -10.924  1.00  0.00     0.010 C 
ENDBRANCH   5   8
BRANCH   6  11
HETATM   11  O   UNL     1     -23.771  -4.219  -7.635  1.00  0.00    -0.395 OA
HETATM   12  H   UNL     1     -24.220  -3.802  -6.881  1.00  0.00     0.210 HD
ENDBRANCH   6  11
TORSDOF 2
ENDMDL
MODEL 2
REMARK VINA RESULT:      -5.9      2.306      3.839
REMARK  2 active torsions:
REMARK  status: ('A' for Active; 'I' for Inactive)
REMARK    1  A    between atoms: C_5  and  C_9 
REMARK    2  A    between atoms: C_6  and  O_8 
ROOT
HETATM    1  C   UNL     1     -21.581  -5.177  -7.860  1.00  0.00     0.010 C 
HETATM    2  C   UNL     1     -22.105  -3.934  -8.590  1.00  0.00    -0.016 C 
HETATM    3  C   UNL     1     -23.493  -4.191  -9.196  1.00  0.00     0.005 C 
HETATM    4  C   UNL     1     -23.446  -5.037 -10.473  1.00  0.00     0.008 C 
HETATM    5  C   UNL     1     -22.508  -4.435 -11.546  1.00  0.00     0.018 C 
HETATM    6  C   UNL     1     -21.103  -4.334 -10.904  1.00  0.00     0.122 C 
HETATM    7  C   UNL     1     -21.106  -3.449  -9.652  1.00  0.00     0.036 C 
ENDROOT
BRANCH   5   8
HETATM    8  C   UNL     1     -23.077  -3.110 -12.162  1.00  0.00    -0.016 C 
HETATM    9  C   UNL     1     -22.691  -2.898 -13.631  1.00  0.00     0.010 C 
HETATM   10  C   UNL     1     -24.610  -3.054 -12.071  1.00  0.00     0.010 C 
ENDBRANCH   5   8
BRANCH   6  11
HETATM   11  O   UNL     1     -20.117  -3.917 -11.838  1.00  0.00    -0.395 OA
HETATM   12  H   UNL     1     -19.253  -4.261 -11.556  1.00  0.00     0.210 HD
ENDBRANCH   6  11
TORSDOF 2
ENDMDL
MODEL 3
REMARK VINA RESULT:      -5.7      2.128      4.757
REMARK  2 active torsions:
REMARK  status: ('A' for Active; 'I' for Inactive)
REMARK    1  A    between atoms: C_5  and  C_9 
REMARK    2  A    between atoms: C_6  and  O_8 
ROOT
HETATM    1  C   UNL     1     -24.397  -3.529 -12.407  1.00  0.00     0.010 C 
HETATM    2  C   UNL     1     -23.569  -4.616 -11.711  1.00  0.00    -0.016 C 
HETATM    3  C   UNL     1     -23.938  -4.727 -10.223  1.00  0.00     0.005 C 
HETATM    4  C   UNL     1     -23.348  -3.598  -9.371  1.00  0.00     0.008 C 
HETATM    5  C   UNL     1     -21.813  -3.483  -9.523  1.00  0.00     0.018 C 
HETATM    6  C   UNL     1     -21.532  -3.238 -11.025  1.00  0.00     0.122 C 
HETATM    7  C   UNL     1     -22.063  -4.377 -11.903  1.00  0.00     0.036 C 
ENDROOT
BRANCH   5   8
HETATM    8  C   UNL     1     -21.055  -4.691  -8.872  1.00  0.00    -0.016 C 
HETATM    9  C   UNL     1     -19.635  -4.348  -8.405  1.00  0.00     0.010 C 
HETATM   10  C   UNL     1     -21.819  -5.255  -7.663  1.00  0.00     0.010 C 
ENDBRANCH   5   8
BRANCH   6  11
HETATM   11  O   UNL     1     -20.158  -2.980 -11.277  1.00  0.00    -0.395 OA
HETATM   12  H   UNL     1     -19.945  -3.269 -12.180  1.00  0.00     0.210 HD
ENDBRANCH   6  11
TORSDOF 2
ENDMDL
MODEL 4
REMARK VINA RESULT:      -5.7     13.596     14.545
REMARK  2 active torsions:
REMARK  status: ('A' for Active; 'I' for Inactive)
REMARK    1  A    between atoms: C_5  and  C_9 
REMARK    2  A    between atoms: C_6  and  O_8 
ROOT
HETATM    1  C   UNL     1     -25.662   6.102 -10.062  1.00  0.00     0.010 C 
HETATM    2  C   UNL     1     -25.887   7.012 -11.275  1.00  0.00    -0.016 C 
HETATM    3  C   UNL     1     -24.574   7.257 -12.035  1.00  0.00     0.005 C 
HETATM    4  C   UNL     1     -23.650   8.259 -11.334  1.00  0.00     0.008 C 
HETATM    5  C   UNL     1     -24.350   9.609 -11.049  1.00  0.00     0.018 C 
HETATM    6  C   UNL     1     -25.583   9.293 -10.169  1.00  0.00     0.122 C 
HETATM    7  C   UNL     1     -26.556   8.334 -10.864  1.00  0.00     0.036 C 
ENDROOT
BRANCH   5   8
HETATM    8  C   UNL     1     -24.633  10.424 -12.358  1.00  0.00    -0.016 C 
HETATM    9  C   UNL     1     -25.066  11.873 -12.101  1.00  0.00     0.010 C 
HETATM   10  C   UNL     1     -23.403  10.463 -13.279  1.00  0.00     0.010 C 
ENDBRANCH   5   8
BRANCH   6  11
HETATM   11  O   UNL     1     -26.239  10.473  -9.726  1.00  0.00    -0.395 OA
HETATM   12  H   UNL     1     -27.179  10.273  -9.581  1.00  0.00     0.210 HD
ENDBRANCH   6  11
TORSDOF 2
ENDMDL
MODEL 5
REMARK VINA RESULT:      -5.3      5.380      7.255
REMARK  2 active torsions:
REMARK  status: ('A' for Active; 'I' for Inactive)
REMARK    1  A    between atoms: C_5  and  C_9 
REMARK    2  A    between atoms: C_6  and  O_8 
ROOT
HETATM    1  C   UNL     1     -21.184  -8.569   1.206  1.00  0.00     0.010 C 
HETATM    2  C   UNL     1     -21.915  -8.982  -0.078  1.00  0.00    -0.016 C 
HETATM    3  C   UNL     1     -20.940  -9.589  -1.100  1.00  0.00     0.005 C 
HETATM    4  C   UNL     1     -20.083  -8.537  -1.812  1.00  0.00     0.008 C 
HETATM    5  C   UNL     1     -20.937  -7.440  -2.490  1.00  0.00     0.018 C 
HETATM    6  C   UNL     1     -21.790  -6.787  -1.375  1.00  0.00     0.122 C 
HETATM    7  C   UNL     1     -22.699  -7.804  -0.677  1.00  0.00     0.036 C 
ENDROOT
BRANCH   5   8
HETATM    8  C   UNL     1     -21.730  -7.979  -3.731  1.00  0.00    -0.016 C 
HETATM    9  C   UNL     1     -22.073  -6.896  -4.762  1.00  0.00     0.010 C 
HETATM   10  C   UNL     1     -20.954  -9.088  -4.461  1.00  0.00     0.010 C 
ENDBRANCH   5   8
BRANCH   6  11
HETATM   11  O   UNL     1     -22.524  -5.667  -1.850  1.00  0.00    -0.395 OA
HETATM   12  H   UNL     1     -21.996  -4.863  -1.710  1.00  0.00     0.210 HD
ENDBRANCH   6  11
TORSDOF 2
ENDMDL
MODEL 6
REMARK VINA RESULT:      -5.3      1.810      4.230
REMARK  2 active torsions:
REMARK  status: ('A' for Active; 'I' for Inactive)
REMARK    1  A    between atoms: C_5  and  C_9 
REMARK    2  A    between atoms: C_6  and  O_8 
ROOT
HETATM    1  C   UNL     1     -21.248  -3.094 -11.192  1.00  0.00     0.010 C 
HETATM    2  C   UNL     1     -21.337  -4.449 -10.479  1.00  0.00    -0.016 C 
HETATM    3  C   UNL     1     -22.568  -4.512  -9.560  1.00  0.00     0.005 C 
HETATM    4  C   UNL     1     -22.385  -3.730  -8.255  1.00  0.00     0.008 C 
HETATM    5  C   UNL     1     -21.125  -4.169  -7.474  1.00  0.00     0.018 C 
HETATM    6  C   UNL     1     -19.917  -3.949  -8.417  1.00  0.00     0.122 C 
HETATM    7  C   UNL     1     -20.043  -4.761  -9.711  1.00  0.00     0.036 C 
ENDROOT
BRANCH   5   8
HETATM    8  C   UNL     1     -21.268  -5.609  -6.868  1.00  0.00    -0.016 C 
HETATM    9  C   UNL     1     -20.094  -6.020  -5.970  1.00  0.00     0.010 C 
HETATM   10  C   UNL     1     -22.557  -5.752  -6.043  1.00  0.00     0.010 C 
ENDBRANCH   5   8
BRANCH   6  11
HETATM   11  O   UNL     1     -18.679  -4.192  -7.765  1.00  0.00    -0.395 OA
HETATM   12  H   UNL     1     -18.187  -3.356  -7.704  1.00  0.00     0.210 HD
ENDBRANCH   6  11
TORSDOF 2
ENDMDL
MODEL 7
REMARK VINA RESULT:      -5.1      7.364      9.302
REMARK  2 active torsions:
REMARK  status: ('A' for Active; 'I' for Inactive)
REMARK    1  A    between atoms: C_5  and  C_9 
REMARK    2  A    between atoms: C_6  and  O_8 
ROOT
HETATM    1  C   UNL     1     -22.672 -12.309   0.717  1.00  0.00     0.010 C 
HETATM    2  C   UNL     1     -22.800 -11.478  -0.565  1.00  0.00    -0.016 C 
HETATM    3  C   UNL     1     -21.418 -11.115  -1.131  1.00  0.00     0.005 C 
HETATM    4  C   UNL     1     -20.728  -9.987  -0.356  1.00  0.00     0.008 C 
HETATM    5  C   UNL     1     -21.604  -8.716  -0.256  1.00  0.00     0.018 C 
HETATM    6  C   UNL     1     -22.919  -9.136   0.444  1.00  0.00     0.122 C 
HETATM    7  C   UNL     1     -23.663 -10.227  -0.335  1.00  0.00     0.036 C 
ENDROOT
BRANCH   5   8
HETATM    8  C   UNL     1     -21.765  -7.990  -1.637  1.00  0.00    -0.016 C 
HETATM    9  C   UNL     1     -22.237  -6.536  -1.518  1.00  0.00     0.010 C 
HETATM   10  C   UNL     1     -20.449  -7.988  -2.433  1.00  0.00     0.010 C 
ENDBRANCH   5   8
BRANCH   6  11
HETATM   11  O   UNL     1     -23.759  -8.022   0.716  1.00  0.00    -0.395 OA
HETATM   12  H   UNL     1     -23.565  -7.319   0.073  1.00  0.00     0.210 HD
ENDBRANCH   6  11
TORSDOF 2
ENDMDL
MODEL 8
REMARK VINA RESULT:      -5.0      7.815     10.003
REMARK  2 active torsions:
REMARK  status: ('A' for Active; 'I' for Inactive)
REMARK    1  A    between atoms: C_5  and  C_9 
REMARK    2  A    between atoms: C_6  and  O_8 
ROOT
HETATM    1  C   UNL     1     -22.448  -6.776  -1.440  1.00  0.00     0.010 C 
HETATM    2  C   UNL     1     -21.867  -7.557  -0.256  1.00  0.00    -0.016 C 
HETATM    3  C   UNL     1     -20.614  -8.345  -0.672  1.00  0.00     0.005 C 
HETATM    4  C   UNL     1     -20.938  -9.611  -1.472  1.00  0.00     0.008 C 
HETATM    5  C   UNL     1     -21.921 -10.545  -0.728  1.00  0.00     0.018 C 
HETATM    6  C   UNL     1     -23.205  -9.722  -0.465  1.00  0.00     0.122 C 
HETATM    7  C   UNL     1     -22.924  -8.474   0.380  1.00  0.00     0.036 C 
ENDROOT
BRANCH   5   8
HETATM    8  C   UNL     1     -21.269 -11.219   0.530  1.00  0.00    -0.016 C 
HETATM    9  C   UNL     1     -21.921 -12.551   0.922  1.00  0.00     0.010 C 
HETATM   10  C   UNL     1     -19.769 -11.479   0.320  1.00  0.00     0.010 C 
ENDBRANCH   5   8
BRANCH   6  11
HETATM   11  O   UNL     1     -24.241 -10.513   0.099  1.00  0.00    -0.395 OA
HETATM   12  H   UNL     1     -24.915  -9.924   0.477  1.00  0.00     0.210 HD
ENDBRANCH   6  11
TORSDOF 2
ENDMDL
MODEL 9
REMARK VINA RESULT:      -4.9     18.265     20.152
REMARK  2 active torsions:
REMARK  status: ('A' for Active; 'I' for Inactive)
REMARK    1  A    between atoms: C_5  and  C_9 
REMARK    2  A    between atoms: C_6  and  O_8 
ROOT
HETATM    1  C   UNL     1     -14.740   7.966   1.768  1.00  0.00     0.010 C 
HETATM    2  C   UNL     1     -14.506   9.277   2.527  1.00  0.00    -0.016 C 
HETATM    3  C   UNL     1     -13.664   9.043   3.791  1.00  0.00     0.005 C 
HETATM    4  C   UNL     1     -14.461   8.411   4.937  1.00  0.00     0.008 C 
HETATM    5  C   UNL     1     -15.728   9.224   5.294  1.00  0.00     0.018 C 
HETATM    6  C   UNL     1     -16.585   9.300   4.008  1.00  0.00     0.122 C 
HETATM    7  C   UNL     1     -15.834   9.977   2.856  1.00  0.00     0.036 C 
ENDROOT
BRANCH   5   8
HETATM    8  C   UNL     1     -15.387  10.596   5.973  1.00  0.00    -0.016 C 
HETATM    9  C   UNL     1     -16.567  11.222   6.725  1.00  0.00     0.010 C 
HETATM   10  C   UNL     1     -14.220  10.463   6.965  1.00  0.00     0.010 C 
ENDBRANCH   5   8
BRANCH   6  11
HETATM   11  O   UNL     1     -17.846   9.911   4.242  1.00  0.00    -0.395 OA
HETATM   12  H   UNL     1     -18.533   9.224   4.237  1.00  0.00     0.210 HD
ENDBRANCH   6  11
TORSDOF 2
ENDMDL
