MODEL 1
REMARK VINA RESULT:      -9.1      0.000      0.000
REMARK  16 active torsions:
REMARK  status: ('A' for Active; 'I' for Inactive)
REMARK    1  A    between atoms: CB_2  and  CA_4 
REMARK    2  A    between atoms: CA_4  and  C_5 
REMARK    3  A    between atoms: CA_4  and  N_7 
REMARK       I    between atoms: C_5  and  N_9 
REMARK       I    between atoms: N_7  and  C_43 
REMARK    4  A    between atoms: N_9  and  CA_10 
REMARK    5  A    between atoms: CA_10  and  C_12 
REMARK       I    between atoms: C_12  and  N_15 
REMARK    6  A    between atoms: CA_19  and  C_20 
REMARK       I    between atoms: C_20  and  N_22 
REMARK    7  A    between atoms: N_22  and  CA_23 
REMARK    8  A    between atoms: CA_23  and  CB_24 
REMARK    9  A    between atoms: CA_23  and  C_31 
REMARK   10  A    between atoms: CB_24  and  CG_25 
REMARK       I    between atoms: C_31  and  N_34 
REMARK   11  A    between atoms: CA_38  and  C_39 
REMARK   12  A    between atoms: C_39  and  OXT_41 
REMARK   13  A    between atoms: C_43  and  CA_45 
REMARK   14  A    between atoms: CA_45  and  CB_46 
REMARK   15  A    between atoms: CA_45  and  N_53 
REMARK   16  A    between atoms: CB_46  and  CG_47 
ROOT
ATOM      1  C   ALA A   3     -21.093 -11.832  -6.011  1.00  0.00     0.238 C 
ATOM      2  O   ALA A   3     -21.662 -11.335  -6.992  1.00  0.00    -0.272 OA
ATOM      3  N   PRO A   4     -20.152 -12.856  -6.181  1.00  0.00    -0.337 N 
ATOM      4  CD  PRO A   4     -19.815 -13.308  -7.520  1.00  0.00     0.127 C 
ATOM      5  CG  PRO A   4     -19.811 -14.820  -7.410  1.00  0.00     0.022 C 
ATOM      6  CB  PRO A   4     -19.242 -15.074  -6.024  1.00  0.00     0.037 C 
ATOM      7  CA  PRO A   4     -19.577 -13.803  -5.200  1.00  0.00     0.179 C 
ENDROOT
BRANCH   1   8
ATOM      8  CA  ALA A   3     -21.396 -11.274  -4.588  1.00  0.00     0.151 C 
ATOM      9  CB  ALA A   3     -22.582 -11.941  -3.890  1.00  0.00     0.036 C 
BRANCH   8  10
ATOM     10  N   ALA A   3     -21.571  -9.778  -4.549  1.00  0.00    -0.248 NA
ATOM     11  C   VAL A   2     -20.518  -8.940  -4.224  1.00  0.00     0.221 C 
ATOM     12  O   VAL A   2     -19.369  -9.394  -4.156  1.00  0.00    -0.278 OA
ATOM     13  H   ALA A   3     -22.402  -9.507  -4.022  1.00  0.00     0.131 HD
BRANCH  11  14
ATOM     14  CA  VAL A   2     -20.832  -7.415  -3.832  1.00  0.00     0.174 C 
BRANCH  14  15
ATOM     15  CB  VAL A   2     -21.588  -7.487  -2.380  1.00  0.00     0.009 C 
ATOM     16  CG1 VAL A   2     -20.906  -8.191  -1.183  1.00  0.00     0.012 C 
ATOM     17  CG2 VAL A   2     -22.183  -6.155  -1.925  1.00  0.00     0.012 C 
ENDBRANCH  14  15
BRANCH  14  18
ATOM     18  N   VAL A   2     -21.681  -6.518  -4.881  1.00  0.00    -0.346 N 
ATOM     19  C   PHE A   1     -21.201  -5.577  -5.787  1.00  0.00     0.251 C 
ATOM     20  O   PHE A   1     -19.996  -5.366  -5.727  1.00  0.00    -0.271 OA
ATOM     21  H   VAL A   2     -22.626  -6.314  -4.583  1.00  0.00     0.163 HD
BRANCH  19  22
ATOM     22  CA  PHE A   1     -22.005  -4.716  -6.927  1.00  0.00     0.313 C 
BRANCH  22  23
ATOM     23  CB  PHE A   1     -21.651  -5.254  -8.396  1.00  0.00     0.083 C 
BRANCH  23  24
ATOM     24  CG  PHE A   1     -21.919  -4.372  -9.592  1.00  0.00    -0.056 A 
ATOM     25  CD1 PHE A   1     -20.812  -3.890 -10.278  1.00  0.00     0.007 A 
ATOM     26  CE1 PHE A   1     -20.961  -3.123 -11.429  1.00  0.00     0.001 A 
ATOM     27  CZ  PHE A   1     -22.231  -2.807 -11.904  1.00  0.00     0.000 A 
ATOM     28  CE2 PHE A   1     -23.354  -3.298 -11.241  1.00  0.00     0.001 A 
ATOM     29  CD2 PHE A   1     -23.198  -4.083 -10.088  1.00  0.00     0.007 A 
ENDBRANCH  23  24
ENDBRANCH  22  23
BRANCH  22  30
ATOM     30  N   PHE A   1     -23.468  -4.566  -6.750  1.00  0.00     0.092 N 
ATOM     31  H1  PHE A   1     -23.918  -5.482  -6.659  1.00  0.00     0.313 HD
ATOM     32  H2  PHE A   1     -23.843  -4.307  -7.678  1.00  0.00     0.313 HD
ENDBRANCH  22  30
ENDBRANCH  19  22
ENDBRANCH  14  18
ENDBRANCH  11  14
ENDBRANCH   8  10
ENDBRANCH   1   8
BRANCH   7  33
ATOM     33  C   PRO A   4     -18.249 -13.432  -4.499  1.00  0.00     0.241 C 
ATOM     34  O   PRO A   4     -17.264 -14.170  -4.594  1.00  0.00    -0.271 OA
ATOM     35  N   PHE A   5     -18.165 -12.209  -3.865  1.00  0.00    -0.346 N 
ATOM     36  H   PHE A   5     -19.042 -11.717  -3.678  1.00  0.00     0.163 HD
BRANCH  35  37
ATOM     37  CA  PHE A   5     -16.988 -11.932  -3.031  1.00  0.00     0.181 C 
BRANCH  37  38
ATOM     38  CB  PHE A   5     -15.964 -10.945  -3.549  1.00  0.00     0.073 C 
BRANCH  38  39
ATOM     39  CG  PHE A   5     -15.098 -11.498  -4.631  1.00  0.00    -0.056 A 
ATOM     40  CD1 PHE A   5     -13.946 -12.231  -4.322  1.00  0.00     0.007 A 
ATOM     41  CE1 PHE A   5     -13.197 -12.803  -5.342  1.00  0.00     0.001 A 
ATOM     42  CZ  PHE A   5     -13.600 -12.637  -6.665  1.00  0.00     0.000 A 
ATOM     43  CE2 PHE A   5     -14.678 -11.808  -6.980  1.00  0.00     0.001 A 
ATOM     44  CD2 PHE A   5     -15.430 -11.241  -5.960  1.00  0.00     0.007 A 
ENDBRANCH  38  39
ENDBRANCH  37  38
BRANCH  37  45
ATOM     45  C   PHE A   5     -17.339 -11.613  -1.561  1.00  0.00     0.243 C 
ATOM     46  O   PHE A   5     -18.301 -10.921  -1.217  1.00  0.00    -0.271 OA
ATOM     47  N   PRO A   6     -16.568 -12.260  -0.624  1.00  0.00    -0.336 N 
ATOM     48  CD  PRO A   6     -16.914 -12.208   0.759  1.00  0.00     0.127 C 
ATOM     49  CA  PRO A   6     -15.483 -13.210  -0.875  1.00  0.00     0.185 C 
ATOM     50  CG  PRO A   6     -15.729 -12.643   1.520  1.00  0.00     0.022 C 
ATOM     51  CB  PRO A   6     -15.027 -13.543   0.524  1.00  0.00     0.038 C 
BRANCH  49  52
ATOM     52  C   PRO A   6     -15.928 -14.514  -1.559  1.00  0.00     0.163 C 
ATOM     53  O   PRO A   6     -16.909 -15.172  -1.325  1.00  0.00    -0.648 OA
BRANCH  52  54
ATOM     54  OXT PRO A   6     -15.094 -14.862  -2.541  1.00  0.00    -0.775 OA
ATOM     55  HXT PRO A   6     -14.173 -14.535  -2.517  1.00  0.00     0.167 HD
ENDBRANCH  52  54
ENDBRANCH  49  52
ENDBRANCH  37  45
ENDBRANCH  35  37
ENDBRANCH   7  33
TORSDOF 16
ENDMDL
MODEL 2
REMARK VINA RESULT:      -8.9      1.936      3.989
REMARK  16 active torsions:
REMARK  status: ('A' for Active; 'I' for Inactive)
REMARK    1  A    between atoms: CB_2  and  CA_4 
REMARK    2  A    between atoms: CA_4  and  C_5 
REMARK    3  A    between atoms: CA_4  and  N_7 
REMARK       I    between atoms: C_5  and  N_9 
REMARK       I    between atoms: N_7  and  C_43 
REMARK    4  A    between atoms: N_9  and  CA_10 
REMARK    5  A    between atoms: CA_10  and  C_12 
REMARK       I    between atoms: C_12  and  N_15 
REMARK    6  A    between atoms: CA_19  and  C_20 
REMARK       I    between atoms: C_20  and  N_22 
REMARK    7  A    between atoms: N_22  and  CA_23 
REMARK    8  A    between atoms: CA_23  and  CB_24 
REMARK    9  A    between atoms: CA_23  and  C_31 
REMARK   10  A    between atoms: CB_24  and  CG_25 
REMARK       I    between atoms: C_31  and  N_34 
REMARK   11  A    between atoms: CA_38  and  C_39 
REMARK   12  A    between atoms: C_39  and  OXT_41 
REMARK   13  A    between atoms: C_43  and  CA_45 
REMARK   14  A    between atoms: CA_45  and  CB_46 
REMARK   15  A    between atoms: CA_45  and  N_53 
REMARK   16  A    between atoms: CB_46  and  CG_47 
ROOT
ATOM      1  C   ALA A   3     -19.246 -11.609  -6.345  1.00  0.00     0.238 C 
ATOM      2  O   ALA A   3     -18.927 -11.199  -7.468  1.00  0.00    -0.272 OA
ATOM      3  N   PRO A   4     -18.362 -12.407  -5.605  1.00  0.00    -0.337 N 
ATOM      4  CD  PRO A   4     -17.050 -12.719  -6.145  1.00  0.00     0.127 C 
ATOM      5  CG  PRO A   4     -16.880 -14.201  -5.871  1.00  0.00     0.022 C 
ATOM      6  CB  PRO A   4     -17.550 -14.391  -4.521  1.00  0.00     0.037 C 
ATOM      7  CA  PRO A   4     -18.602 -13.256  -4.416  1.00  0.00     0.179 C 
ENDROOT
BRANCH   1   8
ATOM      8  CA  ALA A   3     -20.619 -11.191  -5.739  1.00  0.00     0.151 C 
ATOM      9  CB  ALA A   3     -21.830 -11.810  -6.437  1.00  0.00     0.036 C 
BRANCH   8  10
ATOM     10  N   ALA A   3     -20.808  -9.699  -5.641  1.00  0.00    -0.248 NA
ATOM     11  C   VAL A   2     -19.976  -8.919  -4.855  1.00  0.00     0.221 C 
ATOM     12  O   VAL A   2     -18.943  -9.408  -4.380  1.00  0.00    -0.278 OA
ATOM     13  H   ALA A   3     -21.781  -9.451  -5.463  1.00  0.00     0.131 HD
BRANCH  11  14
ATOM     14  CA  VAL A   2     -20.432  -7.425  -4.487  1.00  0.00     0.174 C 
BRANCH  14  15
ATOM     15  CB  VAL A   2     -21.125  -7.534  -3.007  1.00  0.00     0.009 C 
ATOM     16  CG1 VAL A   2     -20.286  -7.992  -1.789  1.00  0.00     0.012 C 
ATOM     17  CG2 VAL A   2     -21.967  -6.318  -2.625  1.00  0.00     0.012 C 
ENDBRANCH  14  15
BRANCH  14  18
ATOM     18  N   VAL A   2     -21.406  -6.649  -5.524  1.00  0.00    -0.346 N 
ATOM     19  C   PHE A   1     -21.281  -5.350  -6.009  1.00  0.00     0.251 C 
ATOM     20  O   PHE A   1     -20.353  -4.707  -5.535  1.00  0.00    -0.271 OA
ATOM     21  H   VAL A   2     -22.370  -6.954  -5.496  1.00  0.00     0.163 HD
BRANCH  19  22
ATOM     22  CA  PHE A   1     -22.182  -4.557  -7.124  1.00  0.00     0.313 C 
BRANCH  22  23
ATOM     23  CB  PHE A   1     -21.879  -5.112  -8.597  1.00  0.00     0.083 C 
BRANCH  23  24
ATOM     24  CG  PHE A   1     -22.281  -4.289  -9.797  1.00  0.00    -0.056 A 
ATOM     25  CD1 PHE A   1     -21.262  -3.651 -10.492  1.00  0.00     0.007 A 
ATOM     26  CE1 PHE A   1     -21.530  -2.923 -11.647  1.00  0.00     0.001 A 
ATOM     27  CZ  PHE A   1     -22.835  -2.804 -12.116  1.00  0.00     0.000 A 
ATOM     28  CE2 PHE A   1     -23.868  -3.452 -11.444  1.00  0.00     0.001 A 
ATOM     29  CD2 PHE A   1     -23.592  -4.197 -10.287  1.00  0.00     0.007 A 
ENDBRANCH  23  24
ENDBRANCH  22  23
BRANCH  22  30
ATOM     30  N   PHE A   1     -23.641  -4.472  -6.874  1.00  0.00     0.092 N 
ATOM     31  H1  PHE A   1     -24.036  -3.635  -7.313  1.00  0.00     0.313 HD
ATOM     32  H2  PHE A   1     -23.745  -4.186  -5.886  1.00  0.00     0.313 HD
ENDBRANCH  22  30
ENDBRANCH  19  22
ENDBRANCH  14  18
ENDBRANCH  11  14
ENDBRANCH   8  10
ENDBRANCH   1   8
BRANCH   7  33
ATOM     33  C   PRO A   4     -18.381 -12.648  -3.011  1.00  0.00     0.241 C 
ATOM     34  O   PRO A   4     -17.566 -11.736  -2.845  1.00  0.00    -0.271 OA
ATOM     35  N   PHE A   5     -19.194 -13.073  -1.981  1.00  0.00    -0.346 N 
ATOM     36  H   PHE A   5     -19.732 -13.931  -2.132  1.00  0.00     0.163 HD
BRANCH  35  37
ATOM     37  CA  PHE A   5     -18.866 -12.656  -0.612  1.00  0.00     0.181 C 
BRANCH  37  38
ATOM     38  CB  PHE A   5     -19.735 -11.602   0.040  1.00  0.00     0.073 C 
BRANCH  38  39
ATOM     39  CG  PHE A   5     -21.189 -11.758  -0.261  1.00  0.00    -0.056 A 
ATOM     40  CD1 PHE A   5     -22.037 -12.425   0.631  1.00  0.00     0.007 A 
ATOM     41  CE1 PHE A   5     -23.399 -12.490   0.370  1.00  0.00     0.001 A 
ATOM     42  CZ  PHE A   5     -23.906 -11.893  -0.782  1.00  0.00     0.000 A 
ATOM     43  CE2 PHE A   5     -23.048 -11.334  -1.729  1.00  0.00     0.001 A 
ATOM     44  CD2 PHE A   5     -21.686 -11.264  -1.465  1.00  0.00     0.007 A 
ENDBRANCH  38  39
ENDBRANCH  37  38
BRANCH  37  45
ATOM     45  C   PHE A   5     -18.650 -13.841   0.356  1.00  0.00     0.243 C 
ATOM     46  O   PHE A   5     -19.392 -14.825   0.415  1.00  0.00    -0.271 OA
ATOM     47  N   PRO A   6     -17.485 -13.793   1.085  1.00  0.00    -0.336 N 
ATOM     48  CD  PRO A   6     -17.072 -14.915   1.863  1.00  0.00     0.127 C 
ATOM     49  CA  PRO A   6     -16.447 -12.763   1.026  1.00  0.00     0.185 C 
ATOM     50  CG  PRO A   6     -16.041 -14.436   2.802  1.00  0.00     0.022 C 
ATOM     51  CB  PRO A   6     -15.459 -13.254   2.056  1.00  0.00     0.038 C 
BRANCH  49  52
ATOM     52  C   PRO A   6     -15.724 -12.669  -0.328  1.00  0.00     0.163 C 
ATOM     53  O   PRO A   6     -15.284 -13.570  -0.994  1.00  0.00    -0.648 OA
BRANCH  52  54
ATOM     54  OXT PRO A   6     -15.655 -11.408  -0.761  1.00  0.00    -0.775 OA
ATOM     55  HXT PRO A   6     -16.020 -10.695  -0.200  1.00  0.00     0.167 HD
ENDBRANCH  52  54
ENDBRANCH  49  52
ENDBRANCH  37  45
ENDBRANCH  35  37
ENDBRANCH   7  33
TORSDOF 16
ENDMDL
MODEL 3
REMARK VINA RESULT:      -8.6      2.102      5.211
REMARK  16 active torsions:
REMARK  status: ('A' for Active; 'I' for Inactive)
REMARK    1  A    between atoms: CB_2  and  CA_4 
REMARK    2  A    between atoms: CA_4  and  C_5 
REMARK    3  A    between atoms: CA_4  and  N_7 
REMARK       I    between atoms: C_5  and  N_9 
REMARK       I    between atoms: N_7  and  C_43 
REMARK    4  A    between atoms: N_9  and  CA_10 
REMARK    5  A    between atoms: CA_10  and  C_12 
REMARK       I    between atoms: C_12  and  N_15 
REMARK    6  A    between atoms: CA_19  and  C_20 
REMARK       I    between atoms: C_20  and  N_22 
REMARK    7  A    between atoms: N_22  and  CA_23 
REMARK    8  A    between atoms: CA_23  and  CB_24 
REMARK    9  A    between atoms: CA_23  and  C_31 
REMARK   10  A    between atoms: CB_24  and  CG_25 
REMARK       I    between atoms: C_31  and  N_34 
REMARK   11  A    between atoms: CA_38  and  C_39 
REMARK   12  A    between atoms: C_39  and  OXT_41 
REMARK   13  A    between atoms: C_43  and  CA_45 
REMARK   14  A    between atoms: CA_45  and  CB_46 
REMARK   15  A    between atoms: CA_45  and  N_53 
REMARK   16  A    between atoms: CB_46  and  CG_47 
ROOT
ATOM      1  C   ALA A   3     -18.085 -12.530  -0.435  1.00  0.00     0.238 C 
ATOM      2  O   ALA A   3     -17.563 -13.232   0.440  1.00  0.00    -0.272 OA
ATOM      3  N   PRO A   4     -17.298 -11.944  -1.436  1.00  0.00    -0.337 N 
ATOM      4  CD  PRO A   4     -15.868 -12.199  -1.468  1.00  0.00     0.127 C 
ATOM      5  CG  PRO A   4     -15.256 -10.835  -1.722  1.00  0.00     0.022 C 
ATOM      6  CB  PRO A   4     -16.243 -10.173  -2.669  1.00  0.00     0.037 C 
ATOM      7  CA  PRO A   4     -17.610 -10.851  -2.384  1.00  0.00     0.179 C 
ENDROOT
BRANCH   1   8
ATOM      8  CA  ALA A   3     -19.631 -12.341  -0.443  1.00  0.00     0.151 C 
ATOM      9  CB  ALA A   3     -20.401 -13.470  -1.131  1.00  0.00     0.036 C 
BRANCH   8  10
ATOM     10  N   ALA A   3     -20.076 -11.017  -1.008  1.00  0.00    -0.248 NA
ATOM     11  C   VAL A   2     -20.573 -10.016  -0.189  1.00  0.00     0.221 C 
ATOM     12  O   VAL A   2     -20.471 -10.120   1.039  1.00  0.00    -0.278 OA
ATOM     13  H   ALA A   3     -20.689 -11.136  -1.815  1.00  0.00     0.131 HD
BRANCH  11  14
ATOM     14  CA  VAL A   2     -21.371  -8.793  -0.856  1.00  0.00     0.174 C 
BRANCH  14  15
ATOM     15  CB  VAL A   2     -22.941  -9.029  -0.455  1.00  0.00     0.009 C 
ATOM     16  CG1 VAL A   2     -23.510 -10.464  -0.353  1.00  0.00     0.012 C 
ATOM     17  CG2 VAL A   2     -23.405  -8.204   0.745  1.00  0.00     0.012 C 
ENDBRANCH  14  15
BRANCH  14  18
ATOM     18  N   VAL A   2     -21.210  -8.558  -2.451  1.00  0.00    -0.346 N 
ATOM     19  C   PHE A   1     -21.269  -7.355  -3.150  1.00  0.00     0.251 C 
ATOM     20  O   PHE A   1     -21.538  -6.373  -2.470  1.00  0.00    -0.271 OA
ATOM     21  H   VAL A   2     -21.504  -9.343  -3.018  1.00  0.00     0.163 HD
BRANCH  19  22
ATOM     22  CA  PHE A   1     -21.023  -7.056  -4.742  1.00  0.00     0.313 C 
BRANCH  22  23
ATOM     23  CB  PHE A   1     -20.800  -5.489  -4.995  1.00  0.00     0.083 C 
BRANCH  23  24
ATOM     24  CG  PHE A   1     -20.888  -4.946  -6.402  1.00  0.00    -0.056 A 
ATOM     25  CD1 PHE A   1     -19.689  -4.745  -7.074  1.00  0.00     0.007 A 
ATOM     26  CE1 PHE A   1     -19.674  -4.308  -8.394  1.00  0.00     0.001 A 
ATOM     27  CZ  PHE A   1     -20.867  -4.043  -9.062  1.00  0.00     0.000 A 
ATOM     28  CE2 PHE A   1     -22.079  -4.257  -8.411  1.00  0.00     0.001 A 
ATOM     29  CD2 PHE A   1     -22.090  -4.711  -7.083  1.00  0.00     0.007 A 
ENDBRANCH  23  24
ENDBRANCH  22  23
BRANCH  22  30
ATOM     30  N   PHE A   1     -19.983  -7.862  -5.425  1.00  0.00     0.092 N 
ATOM     31  H1  PHE A   1     -19.062  -7.695  -5.008  1.00  0.00     0.313 HD
ATOM     32  H2  PHE A   1     -19.820  -7.403  -6.336  1.00  0.00     0.313 HD
ENDBRANCH  22  30
ENDBRANCH  19  22
ENDBRANCH  14  18
ENDBRANCH  11  14
ENDBRANCH   8  10
ENDBRANCH   1   8
BRANCH   7  33
ATOM     33  C   PRO A   4     -18.166 -11.212  -3.781  1.00  0.00     0.241 C 
ATOM     34  O   PRO A   4     -18.476 -10.323  -4.580  1.00  0.00    -0.271 OA
ATOM     35  N   PHE A   5     -18.198 -12.542  -4.147  1.00  0.00    -0.346 N 
ATOM     36  H   PHE A   5     -18.086 -13.235  -3.402  1.00  0.00     0.163 HD
BRANCH  35  37
ATOM     37  CA  PHE A   5     -18.904 -12.912  -5.380  1.00  0.00     0.181 C 
BRANCH  37  38
ATOM     38  CB  PHE A   5     -18.093 -13.050  -6.651  1.00  0.00     0.073 C 
BRANCH  38  39
ATOM     39  CG  PHE A   5     -16.622 -13.137  -6.413  1.00  0.00    -0.056 A 
ATOM     40  CD1 PHE A   5     -16.024 -14.351  -6.059  1.00  0.00     0.007 A 
ATOM     41  CE1 PHE A   5     -14.645 -14.427  -5.920  1.00  0.00     0.001 A 
ATOM     42  CZ  PHE A   5     -13.871 -13.289  -6.130  1.00  0.00     0.000 A 
ATOM     43  CE2 PHE A   5     -14.474 -12.053  -6.365  1.00  0.00     0.001 A 
ATOM     44  CD2 PHE A   5     -15.853 -11.978  -6.510  1.00  0.00     0.007 A 
ENDBRANCH  38  39
ENDBRANCH  37  38
BRANCH  37  45
ATOM     45  C   PHE A   5     -19.840 -14.129  -5.211  1.00  0.00     0.243 C 
ATOM     46  O   PHE A   5     -19.467 -15.233  -4.803  1.00  0.00    -0.271 OA
ATOM     47  N   PRO A   6     -21.172 -13.875  -5.431  1.00  0.00    -0.336 N 
ATOM     48  CD  PRO A   6     -22.159 -14.856  -5.116  1.00  0.00     0.127 C 
ATOM     49  CA  PRO A   6     -21.780 -12.592  -5.787  1.00  0.00     0.185 C 
ATOM     50  CG  PRO A   6     -23.400 -14.461  -5.805  1.00  0.00     0.022 C 
ATOM     51  CB  PRO A   6     -23.239 -12.959  -5.909  1.00  0.00     0.038 C 
BRANCH  49  52
ATOM     52  C   PRO A   6     -21.646 -11.505  -4.707  1.00  0.00     0.163 C 
ATOM     53  O   PRO A   6     -21.785 -11.626  -3.517  1.00  0.00    -0.648 OA
BRANCH  52  54
ATOM     54  OXT PRO A   6     -21.293 -10.331  -5.234  1.00  0.00    -0.775 OA
ATOM     55  HXT PRO A   6     -21.863  -9.930  -5.920  1.00  0.00     0.167 HD
ENDBRANCH  52  54
ENDBRANCH  49  52
ENDBRANCH  37  45
ENDBRANCH  35  37
ENDBRANCH   7  33
TORSDOF 16
ENDMDL
MODEL 4
REMARK VINA RESULT:      -8.5      1.677      2.463
REMARK  16 active torsions:
REMARK  status: ('A' for Active; 'I' for Inactive)
REMARK    1  A    between atoms: CB_2  and  CA_4 
REMARK    2  A    between atoms: CA_4  and  C_5 
REMARK    3  A    between atoms: CA_4  and  N_7 
REMARK       I    between atoms: C_5  and  N_9 
REMARK       I    between atoms: N_7  and  C_43 
REMARK    4  A    between atoms: N_9  and  CA_10 
REMARK    5  A    between atoms: CA_10  and  C_12 
REMARK       I    between atoms: C_12  and  N_15 
REMARK    6  A    between atoms: CA_19  and  C_20 
REMARK       I    between atoms: C_20  and  N_22 
REMARK    7  A    between atoms: N_22  and  CA_23 
REMARK    8  A    between atoms: CA_23  and  CB_24 
REMARK    9  A    between atoms: CA_23  and  C_31 
REMARK   10  A    between atoms: CB_24  and  CG_25 
REMARK       I    between atoms: C_31  and  N_34 
REMARK   11  A    between atoms: CA_38  and  C_39 
REMARK   12  A    between atoms: C_39  and  OXT_41 
REMARK   13  A    between atoms: C_43  and  CA_45 
REMARK   14  A    between atoms: CA_45  and  CB_46 
REMARK   15  A    between atoms: CA_45  and  N_53 
REMARK   16  A    between atoms: CB_46  and  CG_47 
ROOT
ATOM      1  C   ALA A   3     -21.833 -12.439  -4.106  1.00  0.00     0.238 C 
ATOM      2  O   ALA A   3     -22.799 -13.118  -4.473  1.00  0.00    -0.272 OA
ATOM      3  N   PRO A   4     -21.212 -12.697  -2.876  1.00  0.00    -0.337 N 
ATOM      4  CD  PRO A   4     -21.682 -13.795  -2.049  1.00  0.00     0.127 C 
ATOM      5  CG  PRO A   4     -21.735 -13.208  -0.652  1.00  0.00     0.022 C 
ATOM      6  CB  PRO A   4     -20.532 -12.281  -0.610  1.00  0.00     0.037 C 
ATOM      7  CA  PRO A   4     -20.273 -11.871  -2.084  1.00  0.00     0.179 C 
ENDROOT
BRANCH   1   8
ATOM      8  CA  ALA A   3     -21.281 -11.325  -5.044  1.00  0.00     0.151 C 
ATOM      9  CB  ALA A   3     -20.005 -11.709  -5.796  1.00  0.00     0.036 C 
BRANCH   8  10
ATOM     10  N   ALA A   3     -21.073 -10.001  -4.354  1.00  0.00    -0.248 NA
ATOM     11  C   VAL A   2     -21.117  -8.809  -5.059  1.00  0.00     0.221 C 
ATOM     12  O   VAL A   2     -21.527  -8.800  -6.226  1.00  0.00    -0.278 OA
ATOM     13  H   ALA A   3     -20.251 -10.012  -3.751  1.00  0.00     0.131 HD
BRANCH  11  14
ATOM     14  CA  VAL A   2     -20.529  -7.481  -4.374  1.00  0.00     0.174 C 
BRANCH  14  15
ATOM     15  CB  VAL A   2     -21.178  -7.444  -2.870  1.00  0.00     0.009 C 
ATOM     16  CG1 VAL A   2     -20.366  -7.967  -1.661  1.00  0.00     0.012 C 
ATOM     17  CG2 VAL A   2     -21.837  -6.112  -2.513  1.00  0.00     0.012 C 
ENDBRANCH  14  15
BRANCH  14  18
ATOM     18  N   VAL A   2     -20.754  -6.069  -5.136  1.00  0.00    -0.346 N 
ATOM     19  C   PHE A   1     -20.231  -5.663  -6.360  1.00  0.00     0.251 C 
ATOM     20  O   PHE A   1     -19.459  -6.456  -6.884  1.00  0.00    -0.271 OA
ATOM     21  H   VAL A   2     -20.927  -5.287  -4.517  1.00  0.00     0.163 HD
BRANCH  19  22
ATOM     22  CA  PHE A   1     -20.502  -4.288  -7.211  1.00  0.00     0.313 C 
BRANCH  22  23
ATOM     23  CB  PHE A   1     -20.199  -4.518  -8.769  1.00  0.00     0.083 C 
BRANCH  23  24
ATOM     24  CG  PHE A   1     -21.295  -4.278  -9.780  1.00  0.00    -0.056 A 
ATOM     25  CD1 PHE A   1     -20.966  -3.518 -10.895  1.00  0.00     0.007 A 
ATOM     26  CE1 PHE A   1     -21.892  -3.298 -11.909  1.00  0.00     0.001 A 
ATOM     27  CZ  PHE A   1     -23.178  -3.822 -11.814  1.00  0.00     0.000 A 
ATOM     28  CE2 PHE A   1     -23.522  -4.603 -10.713  1.00  0.00     0.001 A 
ATOM     29  CD2 PHE A   1     -22.580  -4.834  -9.698  1.00  0.00     0.007 A 
ENDBRANCH  23  24
ENDBRANCH  22  23
BRANCH  22  30
ATOM     30  N   PHE A   1     -21.810  -3.620  -7.013  1.00  0.00     0.092 N 
ATOM     31  H1  PHE A   1     -22.453  -3.850  -7.776  1.00  0.00     0.313 HD
ATOM     32  H2  PHE A   1     -21.658  -2.624  -7.239  1.00  0.00     0.313 HD
ENDBRANCH  22  30
ENDBRANCH  19  22
ENDBRANCH  14  18
ENDBRANCH  11  14
ENDBRANCH   8  10
ENDBRANCH   1   8
BRANCH   7  33
ATOM     33  C   PRO A   4     -18.753 -12.073  -2.284  1.00  0.00     0.241 C 
ATOM     34  O   PRO A   4     -18.332 -12.792  -3.195  1.00  0.00    -0.271 OA
ATOM     35  N   PHE A   5     -17.888 -11.344  -1.494  1.00  0.00    -0.346 N 
ATOM     36  H   PHE A   5     -18.279 -10.896  -0.662  1.00  0.00     0.163 HD
BRANCH  35  37
ATOM     37  CA  PHE A   5     -16.457 -11.672  -1.535  1.00  0.00     0.181 C 
BRANCH  37  38
ATOM     38  CB  PHE A   5     -15.524 -10.703  -2.229  1.00  0.00     0.073 C 
BRANCH  38  39
ATOM     39  CG  PHE A   5     -15.491 -10.864  -3.712  1.00  0.00    -0.056 A 
ATOM     40  CD1 PHE A   5     -14.618 -11.777  -4.314  1.00  0.00     0.007 A 
ATOM     41  CE1 PHE A   5     -14.659 -11.968  -5.688  1.00  0.00     0.001 A 
ATOM     42  CZ  PHE A   5     -15.568 -11.244  -6.455  1.00  0.00     0.000 A 
ATOM     43  CE2 PHE A   5     -16.354 -10.249  -5.872  1.00  0.00     0.001 A 
ATOM     44  CD2 PHE A   5     -16.317 -10.062  -4.497  1.00  0.00     0.007 A 
ENDBRANCH  38  39
ENDBRANCH  37  38
BRANCH  37  45
ATOM     45  C   PHE A   5     -15.880 -12.076  -0.161  1.00  0.00     0.243 C 
ATOM     46  O   PHE A   5     -16.170 -11.515   0.899  1.00  0.00    -0.271 OA
ATOM     47  N   PRO A   6     -15.095 -13.205  -0.167  1.00  0.00    -0.336 N 
ATOM     48  CD  PRO A   6     -14.667 -13.795   1.059  1.00  0.00     0.127 C 
ATOM     49  CA  PRO A   6     -14.772 -14.050  -1.317  1.00  0.00     0.185 C 
ATOM     50  CG  PRO A   6     -13.561 -14.715   0.735  1.00  0.00     0.022 C 
ATOM     51  CB  PRO A   6     -13.875 -15.094  -0.697  1.00  0.00     0.038 C 
BRANCH  49  52
ATOM     52  C   PRO A   6     -15.984 -14.765  -1.939  1.00  0.00     0.163 C 
ATOM     53  O   PRO A   6     -16.896 -15.304  -1.367  1.00  0.00    -0.648 OA
BRANCH  52  54
ATOM     54  OXT PRO A   6     -15.962 -14.697  -3.271  1.00  0.00    -0.775 OA
ATOM     55  HXT PRO A   6     -16.799 -14.810  -3.765  1.00  0.00     0.167 HD
ENDBRANCH  52  54
ENDBRANCH  49  52
ENDBRANCH  37  45
ENDBRANCH  35  37
ENDBRANCH   7  33
TORSDOF 16
ENDMDL
MODEL 5
REMARK VINA RESULT:      -8.4      2.323      3.273
REMARK  16 active torsions:
REMARK  status: ('A' for Active; 'I' for Inactive)
REMARK    1  A    between atoms: CB_2  and  CA_4 
REMARK    2  A    between atoms: CA_4  and  C_5 
REMARK    3  A    between atoms: CA_4  and  N_7 
REMARK       I    between atoms: C_5  and  N_9 
REMARK       I    between atoms: N_7  and  C_43 
REMARK    4  A    between atoms: N_9  and  CA_10 
REMARK    5  A    between atoms: CA_10  and  C_12 
REMARK       I    between atoms: C_12  and  N_15 
REMARK    6  A    between atoms: CA_19  and  C_20 
REMARK       I    between atoms: C_20  and  N_22 
REMARK    7  A    between atoms: N_22  and  CA_23 
REMARK    8  A    between atoms: CA_23  and  CB_24 
REMARK    9  A    between atoms: CA_23  and  C_31 
REMARK   10  A    between atoms: CB_24  and  CG_25 
REMARK       I    between atoms: C_31  and  N_34 
REMARK   11  A    between atoms: CA_38  and  C_39 
REMARK   12  A    between atoms: C_39  and  OXT_41 
REMARK   13  A    between atoms: C_43  and  CA_45 
REMARK   14  A    between atoms: CA_45  and  CB_46 
REMARK   15  A    between atoms: CA_45  and  N_53 
REMARK   16  A    between atoms: CB_46  and  CG_47 
ROOT
ATOM      1  C   ALA A   3     -22.139 -13.267  -2.015  1.00  0.00     0.238 C 
ATOM      2  O   ALA A   3     -23.255 -13.253  -2.549  1.00  0.00    -0.272 OA
ATOM      3  N   PRO A   4     -21.117 -14.077  -2.528  1.00  0.00    -0.337 N 
ATOM      4  CD  PRO A   4     -21.361 -14.874  -3.718  1.00  0.00     0.127 C 
ATOM      5  CG  PRO A   4     -20.766 -16.228  -3.384  1.00  0.00     0.022 C 
ATOM      6  CB  PRO A   4     -19.534 -15.883  -2.566  1.00  0.00     0.037 C 
ATOM      7  CA  PRO A   4     -19.836 -14.504  -1.923  1.00  0.00     0.179 C 
ENDROOT
BRANCH   1   8
ATOM      8  CA  ALA A   3     -21.864 -12.338  -0.794  1.00  0.00     0.151 C 
ATOM      9  CB  ALA A   3     -22.869 -12.485   0.349  1.00  0.00     0.036 C 
BRANCH   8  10
ATOM     10  N   ALA A   3     -21.734 -10.882  -1.160  1.00  0.00    -0.248 NA
ATOM     11  C   VAL A   2     -20.662 -10.123  -0.719  1.00  0.00     0.221 C 
ATOM     12  O   VAL A   2     -19.693 -10.679  -0.188  1.00  0.00    -0.278 OA
ATOM     13  H   ALA A   3     -22.603 -10.372  -1.001  1.00  0.00     0.131 HD
BRANCH  11  14
ATOM     14  CA  VAL A   2     -20.753  -8.523  -0.811  1.00  0.00     0.174 C 
BRANCH  14  15
ATOM     15  CB  VAL A   2     -21.609  -8.061   0.507  1.00  0.00     0.009 C 
ATOM     16  CG1 VAL A   2     -23.151  -8.197   0.519  1.00  0.00     0.012 C 
ATOM     17  CG2 VAL A   2     -21.035  -8.571   1.829  1.00  0.00     0.012 C 
ENDBRANCH  14  15
BRANCH  14  18
ATOM     18  N   VAL A   2     -21.372  -7.872  -2.159  1.00  0.00    -0.346 N 
ATOM     19  C   PHE A   1     -20.849  -7.914  -3.449  1.00  0.00     0.251 C 
ATOM     20  O   PHE A   1     -19.757  -8.460  -3.549  1.00  0.00    -0.271 OA
ATOM     21  H   VAL A   2     -21.930  -7.043  -2.002  1.00  0.00     0.163 HD
BRANCH  19  22
ATOM     22  CA  PHE A   1     -21.480  -7.354  -4.854  1.00  0.00     0.313 C 
BRANCH  22  23
ATOM     23  CB  PHE A   1     -21.185  -5.786  -5.020  1.00  0.00     0.083 C 
BRANCH  23  24
ATOM     24  CG  PHE A   1     -20.979  -5.213  -6.402  1.00  0.00    -0.056 A 
ATOM     25  CD1 PHE A   1     -22.117  -4.816  -7.093  1.00  0.00     0.007 A 
ATOM     26  CE1 PHE A   1     -22.020  -4.219  -8.346  1.00  0.00     0.001 A 
ATOM     27  CZ  PHE A   1     -20.776  -4.028  -8.941  1.00  0.00     0.000 A 
ATOM     28  CE2 PHE A   1     -19.623  -4.403  -8.256  1.00  0.00     0.001 A 
ATOM     29  CD2 PHE A   1     -19.724  -4.992  -6.985  1.00  0.00     0.007 A 
ENDBRANCH  23  24
ENDBRANCH  22  23
BRANCH  22  30
ATOM     30  N   PHE A   1     -21.138  -8.097  -6.090  1.00  0.00     0.092 N 
ATOM     31  H1  PHE A   1     -20.471  -7.566  -6.658  1.00  0.00     0.313 HD
ATOM     32  H2  PHE A   1     -21.961  -8.014  -6.709  1.00  0.00     0.313 HD
ENDBRANCH  22  30
ENDBRANCH  19  22
ENDBRANCH  14  18
ENDBRANCH  11  14
ENDBRANCH   8  10
ENDBRANCH   1   8
BRANCH   7  33
ATOM     33  C   PRO A   4     -18.568 -13.661  -2.193  1.00  0.00     0.241 C 
ATOM     34  O   PRO A   4     -18.112 -13.566  -3.336  1.00  0.00    -0.271 OA
ATOM     35  N   PHE A   5     -18.033 -12.933  -1.150  1.00  0.00    -0.346 N 
ATOM     36  H   PHE A   5     -18.346 -13.170  -0.205  1.00  0.00     0.163 HD
BRANCH  35  37
ATOM     37  CA  PHE A   5     -16.726 -12.293  -1.340  1.00  0.00     0.181 C 
BRANCH  37  38
ATOM     38  CB  PHE A   5     -16.692 -10.908  -1.950  1.00  0.00     0.073 C 
BRANCH  38  39
ATOM     39  CG  PHE A   5     -16.144 -10.881  -3.338  1.00  0.00    -0.056 A 
ATOM     40  CD1 PHE A   5     -15.121 -11.756  -3.721  1.00  0.00     0.007 A 
ATOM     41  CE1 PHE A   5     -14.680 -11.768  -5.037  1.00  0.00     0.001 A 
ATOM     42  CZ  PHE A   5     -15.258 -10.903  -5.962  1.00  0.00     0.000 A 
ATOM     43  CE2 PHE A   5     -16.191  -9.949  -5.556  1.00  0.00     0.001 A 
ATOM     44  CD2 PHE A   5     -16.637  -9.941  -4.241  1.00  0.00     0.007 A 
ENDBRANCH  38  39
ENDBRANCH  37  38
BRANCH  37  45
ATOM     45  C   PHE A   5     -15.829 -12.343  -0.084  1.00  0.00     0.243 C 
ATOM     46  O   PHE A   5     -16.053 -11.704   0.948  1.00  0.00    -0.271 OA
ATOM     47  N   PRO A   6     -14.803 -13.257  -0.136  1.00  0.00    -0.336 N 
ATOM     48  CD  PRO A   6     -14.028 -13.542   1.027  1.00  0.00     0.127 C 
ATOM     49  CA  PRO A   6     -14.492 -14.176  -1.232  1.00  0.00     0.185 C 
ATOM     50  CG  PRO A   6     -12.806 -14.232   0.576  1.00  0.00     0.022 C 
ATOM     51  CB  PRO A   6     -13.269 -14.887  -0.708  1.00  0.00     0.038 C 
BRANCH  49  52
ATOM     52  C   PRO A   6     -15.581 -15.229  -1.504  1.00  0.00     0.163 C 
ATOM     53  O   PRO A   6     -16.282 -15.790  -0.702  1.00  0.00    -0.648 OA
BRANCH  52  54
ATOM     54  OXT PRO A   6     -15.726 -15.457  -2.811  1.00  0.00    -0.775 OA
ATOM     55  HXT PRO A   6     -15.019 -15.171  -3.423  1.00  0.00     0.167 HD
ENDBRANCH  52  54
ENDBRANCH  49  52
ENDBRANCH  37  45
ENDBRANCH  35  37
ENDBRANCH   7  33
TORSDOF 16
ENDMDL
MODEL 6
REMARK VINA RESULT:      -8.4      2.723      5.146
REMARK  16 active torsions:
REMARK  status: ('A' for Active; 'I' for Inactive)
REMARK    1  A    between atoms: CB_2  and  CA_4 
REMARK    2  A    between atoms: CA_4  and  C_5 
REMARK    3  A    between atoms: CA_4  and  N_7 
REMARK       I    between atoms: C_5  and  N_9 
REMARK       I    between atoms: N_7  and  C_43 
REMARK    4  A    between atoms: N_9  and  CA_10 
REMARK    5  A    between atoms: CA_10  and  C_12 
REMARK       I    between atoms: C_12  and  N_15 
REMARK    6  A    between atoms: CA_19  and  C_20 
REMARK       I    between atoms: C_20  and  N_22 
REMARK    7  A    between atoms: N_22  and  CA_23 
REMARK    8  A    between atoms: CA_23  and  CB_24 
REMARK    9  A    between atoms: CA_23  and  C_31 
REMARK   10  A    between atoms: CB_24  and  CG_25 
REMARK       I    between atoms: C_31  and  N_34 
REMARK   11  A    between atoms: CA_38  and  C_39 
REMARK   12  A    between atoms: C_39  and  OXT_41 
REMARK   13  A    between atoms: C_43  and  CA_45 
REMARK   14  A    between atoms: CA_45  and  CB_46 
REMARK   15  A    between atoms: CA_45  and  N_53 
REMARK   16  A    between atoms: CB_46  and  CG_47 
ROOT
ATOM      1  C   ALA A   3     -18.514 -11.001  -5.581  1.00  0.00     0.238 C 
ATOM      2  O   ALA A   3     -17.729 -11.454  -6.423  1.00  0.00    -0.272 OA
ATOM      3  N   PRO A   4     -19.771 -11.592  -5.394  1.00  0.00    -0.337 N 
ATOM      4  CD  PRO A   4     -20.135 -12.768  -6.166  1.00  0.00     0.127 C 
ATOM      5  CG  PRO A   4     -21.555 -12.489  -6.619  1.00  0.00     0.022 C 
ATOM      6  CB  PRO A   4     -22.167 -11.758  -5.436  1.00  0.00     0.037 C 
ATOM      7  CA  PRO A   4     -20.977 -11.083  -4.704  1.00  0.00     0.179 C 
ENDROOT
BRANCH   1   8
ATOM      8  CA  ALA A   3     -18.076  -9.796  -4.696  1.00  0.00     0.151 C 
ATOM      9  CB  ALA A   3     -17.339 -10.191  -3.415  1.00  0.00     0.036 C 
BRANCH   8  10
ATOM     10  N   ALA A   3     -19.202  -8.855  -4.354  1.00  0.00    -0.248 NA
ATOM     11  C   VAL A   2     -19.566  -7.829  -5.211  1.00  0.00     0.221 C 
ATOM     12  O   VAL A   2     -19.105  -7.793  -6.358  1.00  0.00    -0.278 OA
ATOM     13  H   ALA A   3     -19.120  -8.495  -3.403  1.00  0.00     0.131 HD
BRANCH  11  14
ATOM     14  CA  VAL A   2     -20.495  -6.645  -4.652  1.00  0.00     0.174 C 
BRANCH  14  15
ATOM     15  CB  VAL A   2     -21.220  -7.255  -3.316  1.00  0.00     0.009 C 
ATOM     16  CG1 VAL A   2     -20.364  -7.809  -2.152  1.00  0.00     0.012 C 
ATOM     17  CG2 VAL A   2     -22.338  -6.374  -2.761  1.00  0.00     0.012 C 
ENDBRANCH  14  15
BRANCH  14  18
ATOM     18  N   VAL A   2     -21.587  -5.995  -5.657  1.00  0.00    -0.346 N 
ATOM     19  C   PHE A   1     -21.391  -4.994  -6.604  1.00  0.00     0.251 C 
ATOM     20  O   PHE A   1     -20.266  -4.511  -6.624  1.00  0.00    -0.271 OA
ATOM     21  H   VAL A   2     -22.535  -6.004  -5.302  1.00  0.00     0.163 HD
BRANCH  19  22
ATOM     22  CA  PHE A   1     -22.437  -4.372  -7.702  1.00  0.00     0.313 C 
BRANCH  22  23
ATOM     23  CB  PHE A   1     -22.301  -5.132  -9.107  1.00  0.00     0.083 C 
BRANCH  23  24
ATOM     24  CG  PHE A   1     -22.488  -4.357 -10.390  1.00  0.00    -0.056 A 
ATOM     25  CD1 PHE A   1     -23.566  -4.715 -11.189  1.00  0.00     0.007 A 
ATOM     26  CE1 PHE A   1     -23.854  -4.016 -12.356  1.00  0.00     0.001 A 
ATOM     27  CZ  PHE A   1     -23.050  -2.953 -12.757  1.00  0.00     0.000 A 
ATOM     28  CE2 PHE A   1     -21.975  -2.566 -11.960  1.00  0.00     0.001 A 
ATOM     29  CD2 PHE A   1     -21.696  -3.266 -10.775  1.00  0.00     0.007 A 
ENDBRANCH  23  24
ENDBRANCH  22  23
BRANCH  22  30
ATOM     30  N   PHE A   1     -23.856  -4.257  -7.290  1.00  0.00     0.092 N 
ATOM     31  H1  PHE A   1     -23.947  -4.344  -6.273  1.00  0.00     0.313 HD
ATOM     32  H2  PHE A   1     -24.303  -5.150  -7.556  1.00  0.00     0.313 HD
ENDBRANCH  22  30
ENDBRANCH  19  22
ENDBRANCH  14  18
ENDBRANCH  11  14
ENDBRANCH   8  10
ENDBRANCH   1   8
BRANCH   7  33
ATOM     33  C   PRO A   4     -21.186 -11.437  -3.213  1.00  0.00     0.241 C 
ATOM     34  O   PRO A   4     -20.365 -11.076  -2.363  1.00  0.00    -0.271 OA
ATOM     35  N   PHE A   5     -22.360 -12.063  -2.848  1.00  0.00    -0.346 N 
ATOM     36  H   PHE A   5     -22.921 -12.478  -3.596  1.00  0.00     0.163 HD
BRANCH  35  37
ATOM     37  CA  PHE A   5     -22.482 -12.580  -1.479  1.00  0.00     0.181 C 
BRANCH  37  38
ATOM     38  CB  PHE A   5     -23.393 -11.846  -0.519  1.00  0.00     0.073 C 
BRANCH  38  39
ATOM     39  CG  PHE A   5     -22.779 -10.617   0.064  1.00  0.00    -0.056 A 
ATOM     40  CD1 PHE A   5     -21.517 -10.663   0.666  1.00  0.00     0.007 A 
ATOM     41  CE1 PHE A   5     -20.930  -9.494   1.131  1.00  0.00     0.001 A 
ATOM     42  CZ  PHE A   5     -21.609  -8.286   0.996  1.00  0.00     0.000 A 
ATOM     43  CE2 PHE A   5     -22.915  -8.255   0.506  1.00  0.00     0.001 A 
ATOM     44  CD2 PHE A   5     -23.499  -9.424   0.036  1.00  0.00     0.007 A 
ENDBRANCH  38  39
ENDBRANCH  37  38
BRANCH  37  45
ATOM     45  C   PHE A   5     -22.758 -14.099  -1.419  1.00  0.00     0.243 C 
ATOM     46  O   PHE A   5     -23.606 -14.672  -2.108  1.00  0.00    -0.271 OA
ATOM     47  N   PRO A   6     -21.899 -14.816  -0.619  1.00  0.00    -0.336 N 
ATOM     48  CD  PRO A   6     -21.920 -16.242  -0.632  1.00  0.00     0.127 C 
ATOM     49  CA  PRO A   6     -20.768 -14.297   0.150  1.00  0.00     0.185 C 
ATOM     50  CG  PRO A   6     -21.196 -16.698   0.568  1.00  0.00     0.022 C 
ATOM     51  CB  PRO A   6     -20.246 -15.545   0.821  1.00  0.00     0.038 C 
BRANCH  49  52
ATOM     52  C   PRO A   6     -19.637 -13.704  -0.707  1.00  0.00     0.163 C 
ATOM     53  O   PRO A   6     -19.252 -14.079  -1.784  1.00  0.00    -0.648 OA
BRANCH  52  54
ATOM     54  OXT PRO A   6     -19.101 -12.624  -0.133  1.00  0.00    -0.775 OA
ATOM     55  HXT PRO A   6     -18.535 -12.740   0.657  1.00  0.00     0.167 HD
ENDBRANCH  52  54
ENDBRANCH  49  52
ENDBRANCH  37  45
ENDBRANCH  35  37
ENDBRANCH   7  33
TORSDOF 16
ENDMDL
MODEL 7
REMARK VINA RESULT:      -8.2      3.328      5.483
REMARK  16 active torsions:
REMARK  status: ('A' for Active; 'I' for Inactive)
REMARK    1  A    between atoms: CB_2  and  CA_4 
REMARK    2  A    between atoms: CA_4  and  C_5 
REMARK    3  A    between atoms: CA_4  and  N_7 
REMARK       I    between atoms: C_5  and  N_9 
REMARK       I    between atoms: N_7  and  C_43 
REMARK    4  A    between atoms: N_9  and  CA_10 
REMARK    5  A    between atoms: CA_10  and  C_12 
REMARK       I    between atoms: C_12  and  N_15 
REMARK    6  A    between atoms: CA_19  and  C_20 
REMARK       I    between atoms: C_20  and  N_22 
REMARK    7  A    between atoms: N_22  and  CA_23 
REMARK    8  A    between atoms: CA_23  and  CB_24 
REMARK    9  A    between atoms: CA_23  and  C_31 
REMARK   10  A    between atoms: CB_24  and  CG_25 
REMARK       I    between atoms: C_31  and  N_34 
REMARK   11  A    between atoms: CA_38  and  C_39 
REMARK   12  A    between atoms: C_39  and  OXT_41 
REMARK   13  A    between atoms: C_43  and  CA_45 
REMARK   14  A    between atoms: CA_45  and  CB_46 
REMARK   15  A    between atoms: CA_45  and  N_53 
REMARK   16  A    between atoms: CB_46  and  CG_47 
ROOT
ATOM      1  C   ALA A   3     -19.613 -12.637  -5.695  1.00  0.00     0.238 C 
ATOM      2  O   ALA A   3     -18.550 -12.429  -6.294  1.00  0.00    -0.272 OA
ATOM      3  N   PRO A   4     -19.751 -13.759  -4.867  1.00  0.00    -0.337 N 
ATOM      4  CD  PRO A   4     -18.625 -14.659  -4.680  1.00  0.00     0.127 C 
ATOM      5  CG  PRO A   4     -19.234 -16.042  -4.804  1.00  0.00     0.022 C 
ATOM      6  CB  PRO A   4     -20.597 -15.890  -4.150  1.00  0.00     0.037 C 
ATOM      7  CA  PRO A   4     -20.965 -14.391  -4.302  1.00  0.00     0.179 C 
ENDROOT
BRANCH   1   8
ATOM      8  CA  ALA A   3     -20.781 -11.615  -5.831  1.00  0.00     0.151 C 
ATOM      9  CB  ALA A   3     -21.565 -11.725  -7.140  1.00  0.00     0.036 C 
BRANCH   8  10
ATOM     10  N   ALA A   3     -20.359 -10.184  -5.622  1.00  0.00    -0.248 NA
ATOM     11  C   VAL A   2     -21.089  -9.331  -4.810  1.00  0.00     0.221 C 
ATOM     12  O   VAL A   2     -21.983  -9.787  -4.087  1.00  0.00    -0.278 OA
ATOM     13  H   ALA A   3     -20.145  -9.718  -6.504  1.00  0.00     0.131 HD
BRANCH  11  14
ATOM     14  CA  VAL A   2     -20.828  -7.750  -4.912  1.00  0.00     0.174 C 
BRANCH  14  15
ATOM     15  CB  VAL A   2     -21.863  -7.070  -3.839  1.00  0.00     0.009 C 
ATOM     16  CG1 VAL A   2     -21.327  -6.132  -2.731  1.00  0.00     0.012 C 
ATOM     17  CG2 VAL A   2     -23.105  -6.453  -4.482  1.00  0.00     0.012 C 
ENDBRANCH  14  15
BRANCH  14  18
ATOM     18  N   VAL A   2     -20.960  -7.049  -6.366  1.00  0.00    -0.346 N 
ATOM     19  C   PHE A   1     -20.443  -5.823  -6.775  1.00  0.00     0.251 C 
ATOM     20  O   PHE A   1     -19.878  -5.179  -5.900  1.00  0.00    -0.271 OA
ATOM     21  H   VAL A   2     -21.800  -7.297  -6.872  1.00  0.00     0.163 HD
BRANCH  19  22
ATOM     22  CA  PHE A   1     -20.470  -5.116  -8.254  1.00  0.00     0.313 C 
BRANCH  22  23
ATOM     23  CB  PHE A   1     -21.973  -5.003  -8.799  1.00  0.00     0.083 C 
BRANCH  23  24
ATOM     24  CG  PHE A   1     -22.231  -4.330 -10.127  1.00  0.00    -0.056 A 
ATOM     25  CD1 PHE A   1     -23.418  -3.619 -10.251  1.00  0.00     0.007 A 
ATOM     26  CE1 PHE A   1     -23.711  -2.915 -11.414  1.00  0.00     0.001 A 
ATOM     27  CZ  PHE A   1     -22.824  -2.927 -12.488  1.00  0.00     0.000 A 
ATOM     28  CE2 PHE A   1     -21.620  -3.619 -12.375  1.00  0.00     0.001 A 
ATOM     29  CD2 PHE A   1     -21.322  -4.317 -11.194  1.00  0.00     0.007 A 
ENDBRANCH  23  24
ENDBRANCH  22  23
BRANCH  22  30
ATOM     30  N   PHE A   1     -19.750  -3.828  -8.398  1.00  0.00     0.092 N 
ATOM     31  H1  PHE A   1     -20.308  -3.160  -8.938  1.00  0.00     0.313 HD
ATOM     32  H2  PHE A   1     -19.003  -3.995  -9.092  1.00  0.00     0.313 HD
ENDBRANCH  22  30
ENDBRANCH  19  22
ENDBRANCH  14  18
ENDBRANCH  11  14
ENDBRANCH   8  10
ENDBRANCH   1   8
BRANCH   7  33
ATOM     33  C   PRO A   4     -21.440 -13.961  -2.894  1.00  0.00     0.241 C 
ATOM     34  O   PRO A   4     -20.791 -14.276  -1.892  1.00  0.00    -0.271 OA
ATOM     35  N   PHE A   5     -22.537 -13.130  -2.801  1.00  0.00    -0.346 N 
ATOM     36  H   PHE A   5     -23.124 -13.034  -3.634  1.00  0.00     0.163 HD
BRANCH  35  37
ATOM     37  CA  PHE A   5     -23.116 -12.879  -1.475  1.00  0.00     0.181 C 
BRANCH  37  38
ATOM     38  CB  PHE A   5     -23.899 -11.600  -1.270  1.00  0.00     0.073 C 
BRANCH  38  39
ATOM     39  CG  PHE A   5     -23.079 -10.480  -0.721  1.00  0.00    -0.056 A 
ATOM     40  CD1 PHE A   5     -21.710 -10.392  -0.999  1.00  0.00     0.007 A 
ATOM     41  CE1 PHE A   5     -20.982  -9.301  -0.545  1.00  0.00     0.001 A 
ATOM     42  CZ  PHE A   5     -21.624  -8.306   0.188  1.00  0.00     0.000 A 
ATOM     43  CE2 PHE A   5     -22.958  -8.451   0.567  1.00  0.00     0.001 A 
ATOM     44  CD2 PHE A   5     -23.688  -9.540   0.108  1.00  0.00     0.007 A 
ENDBRANCH  38  39
ENDBRANCH  37  38
BRANCH  37  45
ATOM     45  C   PHE A   5     -23.903 -14.082  -0.911  1.00  0.00     0.243 C 
ATOM     46  O   PHE A   5     -24.562 -14.860  -1.606  1.00  0.00    -0.271 OA
ATOM     47  N   PRO A   6     -23.728 -14.315   0.433  1.00  0.00    -0.336 N 
ATOM     48  CD  PRO A   6     -24.237 -15.505   1.033  1.00  0.00     0.127 C 
ATOM     49  CA  PRO A   6     -22.877 -13.564   1.357  1.00  0.00     0.185 C 
ATOM     50  CG  PRO A   6     -24.240 -15.289   2.491  1.00  0.00     0.022 C 
ATOM     51  CB  PRO A   6     -23.125 -14.279   2.663  1.00  0.00     0.038 C 
BRANCH  49  52
ATOM     52  C   PRO A   6     -21.374 -13.644   1.042  1.00  0.00     0.163 C 
ATOM     53  O   PRO A   6     -20.597 -12.733   0.910  1.00  0.00    -0.648 OA
BRANCH  52  54
ATOM     54  OXT PRO A   6     -20.956 -14.909   0.963  1.00  0.00    -0.775 OA
ATOM     55  HXT PRO A   6     -20.438 -15.284   1.703  1.00  0.00     0.167 HD
ENDBRANCH  52  54
ENDBRANCH  49  52
ENDBRANCH  37  45
ENDBRANCH  35  37
ENDBRANCH   7  33
TORSDOF 16
ENDMDL
MODEL 8
REMARK VINA RESULT:      -8.0      2.462      3.359
REMARK  16 active torsions:
REMARK  status: ('A' for Active; 'I' for Inactive)
REMARK    1  A    between atoms: CB_2  and  CA_4 
REMARK    2  A    between atoms: CA_4  and  C_5 
REMARK    3  A    between atoms: CA_4  and  N_7 
REMARK       I    between atoms: C_5  and  N_9 
REMARK       I    between atoms: N_7  and  C_43 
REMARK    4  A    between atoms: N_9  and  CA_10 
REMARK    5  A    between atoms: CA_10  and  C_12 
REMARK       I    between atoms: C_12  and  N_15 
REMARK    6  A    between atoms: CA_19  and  C_20 
REMARK       I    between atoms: C_20  and  N_22 
REMARK    7  A    between atoms: N_22  and  CA_23 
REMARK    8  A    between atoms: CA_23  and  CB_24 
REMARK    9  A    between atoms: CA_23  and  C_31 
REMARK   10  A    between atoms: CB_24  and  CG_25 
REMARK       I    between atoms: C_31  and  N_34 
REMARK   11  A    between atoms: CA_38  and  C_39 
REMARK   12  A    between atoms: C_39  and  OXT_41 
REMARK   13  A    between atoms: C_43  and  CA_45 
REMARK   14  A    between atoms: CA_45  and  CB_46 
REMARK   15  A    between atoms: CA_45  and  N_53 
REMARK   16  A    between atoms: CB_46  and  CG_47 
ROOT
ATOM      1  C   ALA A   3     -19.308 -12.029  -6.370  1.00  0.00     0.238 C 
ATOM      2  O   ALA A   3     -18.773 -11.542  -7.373  1.00  0.00    -0.272 OA
ATOM      3  N   PRO A   4     -18.773 -13.177  -5.768  1.00  0.00    -0.337 N 
ATOM      4  CD  PRO A   4     -17.561 -13.771  -6.305  1.00  0.00     0.127 C 
ATOM      5  CG  PRO A   4     -17.858 -15.258  -6.327  1.00  0.00     0.022 C 
ATOM      6  CB  PRO A   4     -18.686 -15.474  -5.072  1.00  0.00     0.037 C 
ATOM      7  CA  PRO A   4     -19.367 -14.110  -4.785  1.00  0.00     0.179 C 
ENDROOT
BRANCH   1   8
ATOM      8  CA  ALA A   3     -20.554 -11.328  -5.750  1.00  0.00     0.151 C 
ATOM      9  CB  ALA A   3     -21.796 -11.347  -6.642  1.00  0.00     0.036 C 
BRANCH   8  10
ATOM     10  N   ALA A   3     -20.289  -9.916  -5.294  1.00  0.00    -0.248 NA
ATOM     11  C   VAL A   2     -21.101  -9.300  -4.357  1.00  0.00     0.221 C 
ATOM     12  O   VAL A   2     -21.936  -9.967  -3.733  1.00  0.00    -0.278 OA
ATOM     13  H   ALA A   3     -20.132  -9.286  -6.081  1.00  0.00     0.131 HD
BRANCH  11  14
ATOM     14  CA  VAL A   2     -21.014  -7.706  -4.183  1.00  0.00     0.174 C 
BRANCH  14  15
ATOM     15  CB  VAL A   2     -21.500  -7.409  -2.647  1.00  0.00     0.009 C 
ATOM     16  CG1 VAL A   2     -20.579  -7.771  -1.457  1.00  0.00     0.012 C 
ATOM     17  CG2 VAL A   2     -22.085  -6.012  -2.441  1.00  0.00     0.012 C 
ENDBRANCH  14  15
BRANCH  14  18
ATOM     18  N   VAL A   2     -21.827  -6.780  -5.235  1.00  0.00    -0.346 N 
ATOM     19  C   PHE A   1     -21.374  -5.649  -5.909  1.00  0.00     0.251 C 
ATOM     20  O   PHE A   1     -20.243  -5.286  -5.611  1.00  0.00    -0.271 OA
ATOM     21  H   VAL A   2     -22.827  -6.758  -5.083  1.00  0.00     0.163 HD
BRANCH  19  22
ATOM     22  CA  PHE A   1     -22.122  -4.737  -7.046  1.00  0.00     0.313 C 
BRANCH  22  23
ATOM     23  CB  PHE A   1     -21.804  -5.293  -8.516  1.00  0.00     0.083 C 
BRANCH  23  24
ATOM     24  CG  PHE A   1     -22.050  -4.405  -9.713  1.00  0.00    -0.056 A 
ATOM     25  CD1 PHE A   1     -23.374  -4.175 -10.063  1.00  0.00     0.007 A 
ATOM     26  CE1 PHE A   1     -23.699  -3.320 -11.112  1.00  0.00     0.001 A 
ATOM     27  CZ  PHE A   1     -22.695  -2.694 -11.846  1.00  0.00     0.000 A 
ATOM     28  CE2 PHE A   1     -21.362  -2.897 -11.498  1.00  0.00     0.001 A 
ATOM     29  CD2 PHE A   1     -21.039  -3.749 -10.430  1.00  0.00     0.007 A 
ENDBRANCH  23  24
ENDBRANCH  22  23
BRANCH  22  30
ATOM     30  N   PHE A   1     -23.574  -4.497  -6.868  1.00  0.00     0.092 N 
ATOM     31  H1  PHE A   1     -24.023  -5.302  -6.421  1.00  0.00     0.313 HD
ATOM     32  H2  PHE A   1     -23.996  -4.592  -7.806  1.00  0.00     0.313 HD
ENDBRANCH  22  30
ENDBRANCH  19  22
ENDBRANCH  14  18
ENDBRANCH  11  14
ENDBRANCH   8  10
ENDBRANCH   1   8
BRANCH   7  33
ATOM     33  C   PRO A   4     -19.121 -13.860  -3.279  1.00  0.00     0.241 C 
ATOM     34  O   PRO A   4     -18.336 -14.573  -2.646  1.00  0.00    -0.271 OA
ATOM     35  N   PHE A   5     -19.712 -12.758  -2.695  1.00  0.00    -0.346 N 
ATOM     36  H   PHE A   5     -20.468 -12.303  -3.213  1.00  0.00     0.163 HD
BRANCH  35  37
ATOM     37  CA  PHE A   5     -19.651 -12.622  -1.234  1.00  0.00     0.181 C 
BRANCH  37  38
ATOM     38  CB  PHE A   5     -18.463 -11.901  -0.635  1.00  0.00     0.073 C 
BRANCH  38  39
ATOM     39  CG  PHE A   5     -17.598 -11.230  -1.650  1.00  0.00    -0.056 A 
ATOM     40  CD1 PHE A   5     -16.296 -11.682  -1.893  1.00  0.00     0.007 A 
ATOM     41  CE1 PHE A   5     -15.537 -11.093  -2.896  1.00  0.00     0.001 A 
ATOM     42  CZ  PHE A   5     -16.081 -10.055  -3.647  1.00  0.00     0.000 A 
ATOM     43  CE2 PHE A   5     -17.331  -9.525  -3.327  1.00  0.00     0.001 A 
ATOM     44  CD2 PHE A   5     -18.092 -10.117  -2.328  1.00  0.00     0.007 A 
ENDBRANCH  38  39
ENDBRANCH  37  38
BRANCH  37  45
ATOM     45  C   PHE A   5     -20.963 -12.096  -0.611  1.00  0.00     0.243 C 
ATOM     46  O   PHE A   5     -21.462 -11.000  -0.880  1.00  0.00    -0.271 OA
ATOM     47  N   PRO A   6     -21.626 -12.993   0.193  1.00  0.00    -0.336 N 
ATOM     48  CD  PRO A   6     -22.941 -12.705   0.667  1.00  0.00     0.127 C 
ATOM     49  CA  PRO A   6     -21.230 -14.368   0.498  1.00  0.00     0.185 C 
ATOM     50  CG  PRO A   6     -23.215 -13.633   1.778  1.00  0.00     0.022 C 
ATOM     51  CB  PRO A   6     -22.331 -14.812   1.430  1.00  0.00     0.038 C 
BRANCH  49  52
ATOM     52  C   PRO A   6     -21.221 -15.310  -0.719  1.00  0.00     0.163 C 
ATOM     53  O   PRO A   6     -20.554 -16.299  -0.882  1.00  0.00    -0.648 OA
BRANCH  52  54
ATOM     54  OXT PRO A   6     -22.116 -14.935  -1.635  1.00  0.00    -0.775 OA
ATOM     55  HXT PRO A   6     -21.817 -14.403  -2.399  1.00  0.00     0.167 HD
ENDBRANCH  52  54
ENDBRANCH  49  52
ENDBRANCH  37  45
ENDBRANCH  35  37
ENDBRANCH   7  33
TORSDOF 16
ENDMDL
MODEL 9
REMARK VINA RESULT:      -8.0      2.594      5.182
REMARK  16 active torsions:
REMARK  status: ('A' for Active; 'I' for Inactive)
REMARK    1  A    between atoms: CB_2  and  CA_4 
REMARK    2  A    between atoms: CA_4  and  C_5 
REMARK    3  A    between atoms: CA_4  and  N_7 
REMARK       I    between atoms: C_5  and  N_9 
REMARK       I    between atoms: N_7  and  C_43 
REMARK    4  A    between atoms: N_9  and  CA_10 
REMARK    5  A    between atoms: CA_10  and  C_12 
REMARK       I    between atoms: C_12  and  N_15 
REMARK    6  A    between atoms: CA_19  and  C_20 
REMARK       I    between atoms: C_20  and  N_22 
REMARK    7  A    between atoms: N_22  and  CA_23 
REMARK    8  A    between atoms: CA_23  and  CB_24 
REMARK    9  A    between atoms: CA_23  and  C_31 
REMARK   10  A    between atoms: CB_24  and  CG_25 
REMARK       I    between atoms: C_31  and  N_34 
REMARK   11  A    between atoms: CA_38  and  C_39 
REMARK   12  A    between atoms: C_39  and  OXT_41 
REMARK   13  A    between atoms: C_43  and  CA_45 
REMARK   14  A    between atoms: CA_45  and  CB_46 
REMARK   15  A    between atoms: CA_45  and  N_53 
REMARK   16  A    between atoms: CB_46  and  CG_47 
ROOT
ATOM      1  C   ALA A   3     -22.827 -11.129  -1.232  1.00  0.00     0.238 C 
ATOM      2  O   ALA A   3     -23.986 -10.931  -1.616  1.00  0.00    -0.272 OA
ATOM      3  N   PRO A   4     -22.527 -12.233  -0.422  1.00  0.00    -0.337 N 
ATOM      4  CD  PRO A   4     -23.579 -13.169  -0.065  1.00  0.00     0.127 C 
ATOM      5  CG  PRO A   4     -23.369 -13.414   1.417  1.00  0.00     0.022 C 
ATOM      6  CB  PRO A   4     -21.857 -13.400   1.568  1.00  0.00     0.037 C 
ATOM      7  CA  PRO A   4     -21.332 -12.522   0.402  1.00  0.00     0.179 C 
ENDROOT
BRANCH   1   8
ATOM      8  CA  ALA A   3     -21.692 -10.169  -1.699  1.00  0.00     0.151 C 
ATOM      9  CB  ALA A   3     -21.843  -8.729  -1.207  1.00  0.00     0.036 C 
BRANCH   8  10
ATOM     10  N   ALA A   3     -21.476 -10.167  -3.190  1.00  0.00    -0.248 NA
ATOM     11  C   VAL A   2     -20.204 -10.241  -3.732  1.00  0.00     0.221 C 
ATOM     12  O   VAL A   2     -19.240 -10.512  -3.005  1.00  0.00    -0.278 OA
ATOM     13  H   ALA A   3     -22.002  -9.422  -3.649  1.00  0.00     0.131 HD
BRANCH  11  14
ATOM     14  CA  VAL A   2     -19.996  -9.862  -5.278  1.00  0.00     0.174 C 
BRANCH  14  15
ATOM     15  CB  VAL A   2     -18.705 -10.742  -5.772  1.00  0.00     0.009 C 
ATOM     16  CG1 VAL A   2     -18.875 -11.825  -6.863  1.00  0.00     0.012 C 
ATOM     17  CG2 VAL A   2     -17.460  -9.905  -6.064  1.00  0.00     0.012 C 
ENDBRANCH  14  15
BRANCH  14  18
ATOM     18  N   VAL A   2     -19.810  -8.299  -5.661  1.00  0.00    -0.346 N 
ATOM     19  C   PHE A   1     -20.752  -7.278  -5.577  1.00  0.00     0.251 C 
ATOM     20  O   PHE A   1     -21.872  -7.632  -5.230  1.00  0.00    -0.271 OA
ATOM     21  H   VAL A   2     -19.127  -8.127  -6.388  1.00  0.00     0.163 HD
BRANCH  19  22
ATOM     22  CA  PHE A   1     -20.586  -5.673  -5.862  1.00  0.00     0.313 C 
BRANCH  22  23
ATOM     23  CB  PHE A   1     -21.852  -5.108  -6.669  1.00  0.00     0.083 C 
BRANCH  23  24
ATOM     24  CG  PHE A   1     -21.667  -4.605  -8.080  1.00  0.00    -0.056 A 
ATOM     25  CD1 PHE A   1     -20.424  -4.812  -8.664  1.00  0.00     0.007 A 
ATOM     26  CE1 PHE A   1     -20.181  -4.440  -9.982  1.00  0.00     0.001 A 
ATOM     27  CZ  PHE A   1     -21.180  -3.830 -10.737  1.00  0.00     0.000 A 
ATOM     28  CE2 PHE A   1     -22.439  -3.630 -10.176  1.00  0.00     0.001 A 
ATOM     29  CD2 PHE A   1     -22.684  -4.021  -8.850  1.00  0.00     0.007 A 
ENDBRANCH  23  24
ENDBRANCH  22  23
BRANCH  22  30
ATOM     30  N   PHE A   1     -20.265  -4.811  -4.700  1.00  0.00     0.092 N 
ATOM     31  H1  PHE A   1     -20.360  -5.334  -3.824  1.00  0.00     0.313 HD
ATOM     32  H2  PHE A   1     -21.071  -4.176  -4.584  1.00  0.00     0.313 HD
ENDBRANCH  22  30
ENDBRANCH  19  22
ENDBRANCH  14  18
ENDBRANCH  11  14
ENDBRANCH   8  10
ENDBRANCH   1   8
BRANCH   7  33
ATOM     33  C   PRO A   4     -20.182 -13.347  -0.221  1.00  0.00     0.241 C 
ATOM     34  O   PRO A   4     -20.328 -14.553  -0.446  1.00  0.00    -0.271 OA
ATOM     35  N   PHE A   5     -19.041 -12.682  -0.618  1.00  0.00    -0.346 N 
ATOM     36  H   PHE A   5     -18.908 -11.730  -0.266  1.00  0.00     0.163 HD
BRANCH  35  37
ATOM     37  CA  PHE A   5     -17.872 -13.474  -1.022  1.00  0.00     0.181 C 
BRANCH  37  38
ATOM     38  CB  PHE A   5     -17.626 -14.791  -0.318  1.00  0.00     0.073 C 
BRANCH  38  39
ATOM     39  CG  PHE A   5     -16.912 -14.648   0.984  1.00  0.00    -0.056 A 
ATOM     40  CD1 PHE A   5     -16.961 -15.666   1.944  1.00  0.00     0.007 A 
ATOM     41  CE1 PHE A   5     -16.226 -15.546   3.115  1.00  0.00     0.001 A 
ATOM     42  CZ  PHE A   5     -15.450 -14.408   3.325  1.00  0.00     0.000 A 
ATOM     43  CE2 PHE A   5     -15.495 -13.342   2.426  1.00  0.00     0.001 A 
ATOM     44  CD2 PHE A   5     -16.226 -13.465   1.252  1.00  0.00     0.007 A 
ENDBRANCH  38  39
ENDBRANCH  37  38
BRANCH  37  45
ATOM     45  C   PHE A   5     -17.752 -13.656  -2.551  1.00  0.00     0.243 C 
ATOM     46  O   PHE A   5     -18.665 -14.075  -3.268  1.00  0.00    -0.271 OA
ATOM     47  N   PRO A   6     -16.578 -13.199  -3.102  1.00  0.00    -0.336 N 
ATOM     48  CD  PRO A   6     -16.424 -13.126  -4.518  1.00  0.00     0.127 C 
ATOM     49  CA  PRO A   6     -15.463 -12.559  -2.402  1.00  0.00     0.185 C 
ATOM     50  CG  PRO A   6     -14.982 -12.983  -4.791  1.00  0.00     0.022 C 
ATOM     51  CB  PRO A   6     -14.486 -12.314  -3.526  1.00  0.00     0.038 C 
BRANCH  49  52
ATOM     52  C   PRO A   6     -15.811 -11.203  -1.764  1.00  0.00     0.163 C 
ATOM     53  O   PRO A   6     -15.589 -10.839  -0.638  1.00  0.00    -0.648 OA
BRANCH  52  54
ATOM     54  OXT PRO A   6     -16.387 -10.381  -2.643  1.00  0.00    -0.775 OA
ATOM     55  HXT PRO A   6     -16.260  -9.416  -2.542  1.00  0.00     0.167 HD
ENDBRANCH  52  54
ENDBRANCH  49  52
ENDBRANCH  37  45
ENDBRANCH  35  37
ENDBRANCH   7  33
TORSDOF 16
ENDMDL
