MODEL 1
REMARK VINA RESULT:      -9.1      0.000      0.000
REMARK  4 active torsions:
REMARK  status: ('A' for Active; 'I' for Inactive)
REMARK    1  A    between atoms: C_9  and  O_25 
REMARK    2  A    between atoms: C_10  and  N_11 
REMARK    3  A    between atoms: N_13  and  C_15 
REMARK    4  A    between atoms: C_18  and  N_21 
ROOT
HETATM    1  N   UNL     1     -20.696  -7.060  -6.083  1.00  0.00    -0.297 N 
ATOM      2  HN  UNL     1     -21.470  -7.417  -6.643  1.00  0.00     0.187 HD
HETATM    3  N   UNL     1     -20.112  -5.982  -6.324  1.00  0.00    -0.299 N 
ATOM      4  HN  UNL     1     -19.353  -5.614  -5.750  1.00  0.00     0.187 HD
ENDROOT
BRANCH   1   5
HETATM    5  C   UNL     1     -20.174  -7.736  -4.949  1.00  0.00     0.092 A 
HETATM    6  C   UNL     1     -20.766  -7.491  -3.675  1.00  0.00     0.005 A 
HETATM    7  C   UNL     1     -21.789  -6.533  -3.469  1.00  0.00     0.014 A 
HETATM    8  C   UNL     1     -20.332  -8.235  -2.546  1.00  0.00    -0.024 A 
HETATM    9  C   UNL     1     -22.365  -6.334  -2.212  1.00  0.00     0.001 A 
HETATM   10  C   UNL     1     -21.936  -7.079  -1.123  1.00  0.00     0.001 A 
HETATM   11  C   UNL     1     -20.923  -8.023  -1.289  1.00  0.00     0.012 A 
HETATM   12  C   UNL     1     -19.322  -9.196  -2.691  1.00  0.00     0.015 A 
HETATM   13  C   UNL     1     -18.742  -9.439  -3.932  1.00  0.00     0.040 A 
HETATM   14  C   UNL     1     -19.171  -8.723  -5.049  1.00  0.00     0.094 A 
BRANCH  14  15
HETATM   15  O   UNL     1     -18.623  -9.029  -6.269  1.00  0.00    -0.358 OA
HETATM   16  H   UNL     1     -18.552  -8.220  -6.801  1.00  0.00     0.217 HD
ENDBRANCH  14  15
ENDBRANCH   1   5
BRANCH   3  17
HETATM   17  C   UNL     1     -20.611  -5.321  -7.475  1.00  0.00     0.070 A 
HETATM   18  C   UNL     1     -21.965  -4.935  -7.525  1.00  0.00     0.064 A 
HETATM   19  C   UNL     1     -22.511  -4.310  -8.656  1.00  0.00     0.062 A 
HETATM   20 CL   UNL     1     -23.023  -5.220  -6.184  1.00  0.00    -0.082 Cl
HETATM   21  C   UNL     1     -21.693  -4.049  -9.758  1.00  0.00     0.104 A 
HETATM   22  C   UNL     1     -20.337  -4.387  -9.728  1.00  0.00     0.038 A 
HETATM   23  C   UNL     1     -19.806  -5.008  -8.592  1.00  0.00     0.035 A 
BRANCH  21  24
HETATM   24  N   UNL     1     -22.261  -3.418 -10.956  1.00  0.00    -0.116 N 
HETATM   25  O   UNL     1     -21.516  -2.697 -11.633  1.00  0.00    -0.532 OA
HETATM   26  O   UNL     1     -23.452  -3.640 -11.213  1.00  0.00    -0.532 OA
ENDBRANCH  21  24
ENDBRANCH   3  17
TORSDOF 4
ENDMDL
MODEL 2
REMARK VINA RESULT:      -9.0      1.775      3.160
REMARK  4 active torsions:
REMARK  status: ('A' for Active; 'I' for Inactive)
REMARK    1  A    between atoms: C_9  and  O_25 
REMARK    2  A    between atoms: C_10  and  N_11 
REMARK    3  A    between atoms: N_13  and  C_15 
REMARK    4  A    between atoms: C_18  and  N_21 
ROOT
HETATM    1  N   UNL     1     -21.537  -6.765  -5.372  1.00  0.00    -0.297 N 
ATOM      2  HN  UNL     1     -21.979  -7.313  -6.110  1.00  0.00     0.187 HD
HETATM    3  N   UNL     1     -21.296  -5.543  -5.471  1.00  0.00    -0.299 N 
ATOM      4  HN  UNL     1     -20.873  -4.991  -4.725  1.00  0.00     0.187 HD
ENDROOT
BRANCH   1   5
HETATM    5  C   UNL     1     -21.132  -7.314  -4.127  1.00  0.00     0.092 A 
HETATM    6  C   UNL     1     -20.040  -8.231  -4.108  1.00  0.00     0.005 A 
HETATM    7  C   UNL     1     -19.398  -8.694  -5.281  1.00  0.00     0.014 A 
HETATM    8  C   UNL     1     -19.549  -8.709  -2.864  1.00  0.00    -0.024 A 
HETATM    9  C   UNL     1     -18.315  -9.574  -5.228  1.00  0.00     0.001 A 
HETATM   10  C   UNL     1     -17.841 -10.022  -4.002  1.00  0.00     0.001 A 
HETATM   11  C   UNL     1     -18.458  -9.592  -2.826  1.00  0.00     0.012 A 
HETATM   12  C   UNL     1     -20.146  -8.284  -1.669  1.00  0.00     0.015 A 
HETATM   13  C   UNL     1     -21.212  -7.390  -1.683  1.00  0.00     0.040 A 
HETATM   14  C   UNL     1     -21.692  -6.904  -2.898  1.00  0.00     0.094 A 
BRANCH  14  15
HETATM   15  O   UNL     1     -22.703  -5.976  -2.876  1.00  0.00    -0.358 OA
HETATM   16  H   UNL     1     -22.551  -5.319  -3.573  1.00  0.00     0.217 HD
ENDBRANCH  14  15
ENDBRANCH   1   5
BRANCH   3  17
HETATM   17  C   UNL     1     -21.670  -4.999  -6.727  1.00  0.00     0.070 A 
HETATM   18  C   UNL     1     -20.673  -4.654  -7.660  1.00  0.00     0.064 A 
HETATM   19  C   UNL     1     -20.993  -4.082  -8.900  1.00  0.00     0.062 A 
HETATM   20 CL   UNL     1     -18.997  -4.920  -7.316  1.00  0.00    -0.082 Cl
HETATM   21  C   UNL     1     -22.333  -3.859  -9.228  1.00  0.00     0.104 A 
HETATM   22  C   UNL     1     -23.349  -4.222  -8.339  1.00  0.00     0.038 A 
HETATM   23  C   UNL     1     -23.014  -4.794  -7.106  1.00  0.00     0.035 A 
BRANCH  21  24
HETATM   24  N   UNL     1     -22.677  -3.237 -10.513  1.00  0.00    -0.116 N 
HETATM   25  O   UNL     1     -23.878  -3.079 -10.771  1.00  0.00    -0.532 OA
HETATM   26  O   UNL     1     -21.746  -2.913 -11.263  1.00  0.00    -0.532 OA
ENDBRANCH  21  24
ENDBRANCH   3  17
TORSDOF 4
ENDMDL
MODEL 3
REMARK VINA RESULT:      -8.5      2.897      7.547
REMARK  4 active torsions:
REMARK  status: ('A' for Active; 'I' for Inactive)
REMARK    1  A    between atoms: C_9  and  O_25 
REMARK    2  A    between atoms: C_10  and  N_11 
REMARK    3  A    between atoms: N_13  and  C_15 
REMARK    4  A    between atoms: C_18  and  N_21 
ROOT
HETATM    1  N   UNL     1     -21.490  -5.251  -6.922  1.00  0.00    -0.297 N 
ATOM      2  HN  UNL     1     -21.970  -4.633  -6.266  1.00  0.00     0.187 HD
HETATM    3  N   UNL     1     -21.038  -6.372  -6.606  1.00  0.00    -0.299 N 
ATOM      4  HN  UNL     1     -20.578  -6.998  -7.266  1.00  0.00     0.187 HD
ENDROOT
BRANCH   1   5
HETATM    5  C   UNL     1     -21.269  -4.924  -8.285  1.00  0.00     0.092 A 
HETATM    6  C   UNL     1     -22.356  -4.403  -9.047  1.00  0.00     0.005 A 
HETATM    7  C   UNL     1     -23.672  -4.284  -8.537  1.00  0.00     0.014 A 
HETATM    8  C   UNL     1     -22.132  -3.969 -10.381  1.00  0.00    -0.024 A 
HETATM    9  C   UNL     1     -24.710  -3.748  -9.302  1.00  0.00     0.001 A 
HETATM   10  C   UNL     1     -24.469  -3.317 -10.599  1.00  0.00     0.001 A 
HETATM   11  C   UNL     1     -23.186  -3.430 -11.136  1.00  0.00     0.012 A 
HETATM   12  C   UNL     1     -20.850  -4.063 -10.938  1.00  0.00     0.015 A 
HETATM   13  C   UNL     1     -19.786  -4.570 -10.198  1.00  0.00     0.040 A 
HETATM   14  C   UNL     1     -19.993  -4.986  -8.883  1.00  0.00     0.094 A 
BRANCH  14  15
HETATM   15  O   UNL     1     -18.912  -5.424  -8.161  1.00  0.00    -0.358 OA
HETATM   16  H   UNL     1     -18.155  -5.544  -8.756  1.00  0.00     0.217 HD
ENDBRANCH  14  15
ENDBRANCH   1   5
BRANCH   3  17
HETATM   17  C   UNL     1     -21.229  -6.687  -5.236  1.00  0.00     0.070 A 
HETATM   18  C   UNL     1     -21.361  -8.033  -4.843  1.00  0.00     0.064 A 
HETATM   19  C   UNL     1     -21.586  -8.390  -3.506  1.00  0.00     0.062 A 
HETATM   20 CL   UNL     1     -21.254  -9.315  -6.002  1.00  0.00    -0.082 Cl
HETATM   21  C   UNL     1     -21.669  -7.391  -2.532  1.00  0.00     0.104 A 
HETATM   22  C   UNL     1     -21.508  -6.048  -2.883  1.00  0.00     0.038 A 
HETATM   23  C   UNL     1     -21.282  -5.707  -4.222  1.00  0.00     0.035 A 
BRANCH  21  24
HETATM   24  N   UNL     1     -21.929  -7.753  -1.134  1.00  0.00    -0.116 N 
HETATM   25  O   UNL     1     -21.322  -8.727  -0.670  1.00  0.00    -0.532 OA
HETATM   26  O   UNL     1     -22.745  -7.065  -0.504  1.00  0.00    -0.532 OA
ENDBRANCH  21  24
ENDBRANCH   3  17
TORSDOF 4
ENDMDL
MODEL 4
REMARK VINA RESULT:      -8.3      4.508      8.372
REMARK  4 active torsions:
REMARK  status: ('A' for Active; 'I' for Inactive)
REMARK    1  A    between atoms: C_9  and  O_25 
REMARK    2  A    between atoms: C_10  and  N_11 
REMARK    3  A    between atoms: N_13  and  C_15 
REMARK    4  A    between atoms: C_18  and  N_21 
ROOT
HETATM    1  N   UNL     1     -18.987  -9.601  -3.532  1.00  0.00    -0.297 N 
ATOM      2  HN  UNL     1     -19.253 -10.572  -3.370  1.00  0.00     0.187 HD
HETATM    3  N   UNL     1     -17.802  -9.204  -3.545  1.00  0.00    -0.299 N 
ATOM      4  HN  UNL     1     -17.535  -8.237  -3.729  1.00  0.00     0.187 HD
ENDROOT
BRANCH   1   5
HETATM    5  C   UNL     1     -19.925  -8.563  -3.769  1.00  0.00     0.092 A 
HETATM    6  C   UNL     1     -20.706  -8.086  -2.675  1.00  0.00     0.005 A 
HETATM    7  C   UNL     1     -20.660  -8.663  -1.382  1.00  0.00     0.014 A 
HETATM    8  C   UNL     1     -21.573  -6.977  -2.864  1.00  0.00    -0.024 A 
HETATM    9  C   UNL     1     -21.421  -8.158  -0.326  1.00  0.00     0.001 A 
HETATM   10  C   UNL     1     -22.253  -7.065  -0.527  1.00  0.00     0.001 A 
HETATM   11  C   UNL     1     -22.330  -6.480  -1.791  1.00  0.00     0.012 A 
HETATM   12  C   UNL     1     -21.660  -6.367  -4.122  1.00  0.00     0.015 A 
HETATM   13  C   UNL     1     -20.900  -6.828  -5.193  1.00  0.00     0.040 A 
HETATM   14  C   UNL     1     -20.035  -7.907  -5.014  1.00  0.00     0.094 A 
BRANCH  14  15
HETATM   15  O   UNL     1     -19.254  -8.299  -6.071  1.00  0.00    -0.358 OA
HETATM   16  H   UNL     1     -18.561  -8.900  -5.754  1.00  0.00     0.217 HD
ENDBRANCH  14  15
ENDBRANCH   1   5
BRANCH   3  17
HETATM   17  C   UNL     1     -16.864 -10.234  -3.277  1.00  0.00     0.070 A 
HETATM   18  C   UNL     1     -15.969 -10.640  -4.285  1.00  0.00     0.064 A 
HETATM   19  C   UNL     1     -15.048 -11.678  -4.077  1.00  0.00     0.062 A 
HETATM   20 CL   UNL     1     -15.967  -9.873  -5.838  1.00  0.00    -0.082 Cl
HETATM   21  C   UNL     1     -15.004 -12.318  -2.837  1.00  0.00     0.104 A 
HETATM   22  C   UNL     1     -15.854 -11.916  -1.803  1.00  0.00     0.038 A 
HETATM   23  C   UNL     1     -16.767 -10.878  -2.024  1.00  0.00     0.035 A 
BRANCH  21  24
HETATM   24  N   UNL     1     -14.061 -13.422  -2.617  1.00  0.00    -0.116 N 
HETATM   25  O   UNL     1     -14.414 -14.338  -1.863  1.00  0.00    -0.532 OA
HETATM   26  O   UNL     1     -12.966 -13.366  -3.195  1.00  0.00    -0.532 OA
ENDBRANCH  21  24
ENDBRANCH   3  17
TORSDOF 4
ENDMDL
MODEL 5
REMARK VINA RESULT:      -8.3      4.697      7.209
REMARK  4 active torsions:
REMARK  status: ('A' for Active; 'I' for Inactive)
REMARK    1  A    between atoms: C_9  and  O_25 
REMARK    2  A    between atoms: C_10  and  N_11 
REMARK    3  A    between atoms: N_13  and  C_15 
REMARK    4  A    between atoms: C_18  and  N_21 
ROOT
HETATM    1  N   UNL     1     -19.741  -9.379  -3.876  1.00  0.00    -0.297 N 
ATOM      2  HN  UNL     1     -20.020 -10.351  -4.010  1.00  0.00     0.187 HD
HETATM    3  N   UNL     1     -18.618  -8.935  -4.197  1.00  0.00    -0.299 N 
ATOM      4  HN  UNL     1     -18.347  -7.958  -4.084  1.00  0.00     0.187 HD
ENDROOT
BRANCH   1   5
HETATM    5  C   UNL     1     -20.589  -8.394  -3.307  1.00  0.00     0.092 A 
HETATM    6  C   UNL     1     -20.977  -8.533  -1.942  1.00  0.00     0.005 A 
HETATM    7  C   UNL     1     -20.635  -9.656  -1.150  1.00  0.00     0.014 A 
HETATM    8  C   UNL     1     -21.736  -7.504  -1.321  1.00  0.00    -0.024 A 
HETATM    9  C   UNL     1     -21.010  -9.751   0.191  1.00  0.00     0.001 A 
HETATM   10  C   UNL     1     -21.741  -8.730   0.784  1.00  0.00     0.001 A 
HETATM   11  C   UNL     1     -22.104  -7.614   0.030  1.00  0.00     0.012 A 
HETATM   12  C   UNL     1     -22.103  -6.369  -2.056  1.00  0.00     0.015 A 
HETATM   13  C   UNL     1     -21.727  -6.229  -3.388  1.00  0.00     0.040 A 
HETATM   14  C   UNL     1     -20.970  -7.226  -4.002  1.00  0.00     0.094 A 
BRANCH  14  15
HETATM   15  O   UNL     1     -20.563  -7.031  -5.298  1.00  0.00    -0.358 OA
HETATM   16  H   UNL     1     -19.715  -7.481  -5.439  1.00  0.00     0.217 HD
ENDBRANCH  14  15
ENDBRANCH   1   5
BRANCH   3  17
HETATM   17  C   UNL     1     -17.758  -9.925  -4.736  1.00  0.00     0.070 A 
HETATM   18  C   UNL     1     -16.494 -10.142  -4.154  1.00  0.00     0.064 A 
HETATM   19  C   UNL     1     -15.596 -11.086  -4.673  1.00  0.00     0.062 A 
HETATM   20 CL   UNL     1     -15.988  -9.244  -2.762  1.00  0.00    -0.082 Cl
HETATM   21  C   UNL     1     -15.964 -11.842  -5.788  1.00  0.00     0.104 A 
HETATM   22  C   UNL     1     -17.225 -11.678  -6.370  1.00  0.00     0.038 A 
HETATM   23  C   UNL     1     -18.111 -10.733  -5.839  1.00  0.00     0.035 A 
BRANCH  21  24
HETATM   24  N   UNL     1     -15.022 -12.815  -6.355  1.00  0.00    -0.116 N 
HETATM   25  O   UNL     1     -15.371 -14.003  -6.386  1.00  0.00    -0.532 OA
HETATM   26  O   UNL     1     -13.932 -12.390  -6.763  1.00  0.00    -0.532 OA
ENDBRANCH  21  24
ENDBRANCH   3  17
TORSDOF 4
ENDMDL
MODEL 6
REMARK VINA RESULT:      -8.0      2.187      3.372
REMARK  4 active torsions:
REMARK  status: ('A' for Active; 'I' for Inactive)
REMARK    1  A    between atoms: C_9  and  O_25 
REMARK    2  A    between atoms: C_10  and  N_11 
REMARK    3  A    between atoms: N_13  and  C_15 
REMARK    4  A    between atoms: C_18  and  N_21 
ROOT
HETATM    1  N   UNL     1     -20.888  -6.958  -3.780  1.00  0.00    -0.297 N 
ATOM      2  HN  UNL     1     -19.924  -6.804  -4.076  1.00  0.00     0.187 HD
HETATM    3  N   UNL     1     -21.878  -6.682  -4.491  1.00  0.00    -0.299 N 
ATOM      4  HN  UNL     1     -22.841  -6.856  -4.203  1.00  0.00     0.187 HD
ENDROOT
BRANCH   1   5
HETATM    5  C   UNL     1     -21.240  -7.507  -2.520  1.00  0.00     0.092 A 
HETATM    6  C   UNL     1     -20.670  -8.756  -2.136  1.00  0.00     0.005 A 
HETATM    7  C   UNL     1     -19.841  -9.524  -2.989  1.00  0.00     0.014 A 
HETATM    8  C   UNL     1     -20.923  -9.272  -0.836  1.00  0.00    -0.024 A 
HETATM    9  C   UNL     1     -19.279 -10.732  -2.575  1.00  0.00     0.001 A 
HETATM   10  C   UNL     1     -19.528 -11.214  -1.297  1.00  0.00     0.001 A 
HETATM   11  C   UNL     1     -20.349 -10.488  -0.434  1.00  0.00     0.012 A 
HETATM   12  C   UNL     1     -21.737  -8.555   0.051  1.00  0.00     0.015 A 
HETATM   13  C   UNL     1     -22.296  -7.336  -0.319  1.00  0.00     0.040 A 
HETATM   14  C   UNL     1     -22.041  -6.814  -1.587  1.00  0.00     0.094 A 
BRANCH  14  15
HETATM   15  O   UNL     1     -22.556  -5.581  -1.900  1.00  0.00    -0.358 OA
HETATM   16  H   UNL     1     -23.358  -5.694  -2.433  1.00  0.00     0.217 HD
ENDBRANCH  14  15
ENDBRANCH   1   5
BRANCH   3  17
HETATM   17  C   UNL     1     -21.529  -6.103  -5.737  1.00  0.00     0.070 A 
HETATM   18  C   UNL     1     -22.512  -5.435  -6.494  1.00  0.00     0.064 A 
HETATM   19  C   UNL     1     -22.221  -4.878  -7.748  1.00  0.00     0.062 A 
HETATM   20 CL   UNL     1     -24.133  -5.274  -5.907  1.00  0.00    -0.082 Cl
HETATM   21  C   UNL     1     -20.924  -4.973  -8.258  1.00  0.00     0.104 A 
HETATM   22  C   UNL     1     -19.917  -5.598  -7.517  1.00  0.00     0.038 A 
HETATM   23  C   UNL     1     -20.222  -6.148  -6.266  1.00  0.00     0.035 A 
BRANCH  21  24
HETATM   24  N   UNL     1     -20.616  -4.414  -9.580  1.00  0.00    -0.116 N 
HETATM   25  O   UNL     1     -19.637  -4.874 -10.184  1.00  0.00    -0.532 OA
HETATM   26  O   UNL     1     -21.350  -3.513 -10.010  1.00  0.00    -0.532 OA
ENDBRANCH  21  24
ENDBRANCH   3  17
TORSDOF 4
ENDMDL
MODEL 7
REMARK VINA RESULT:      -7.9      1.671      2.288
REMARK  4 active torsions:
REMARK  status: ('A' for Active; 'I' for Inactive)
REMARK    1  A    between atoms: C_9  and  O_25 
REMARK    2  A    between atoms: C_10  and  N_11 
REMARK    3  A    between atoms: N_13  and  C_15 
REMARK    4  A    between atoms: C_18  and  N_21 
ROOT
HETATM    1  N   UNL     1     -20.177  -7.426  -3.842  1.00  0.00    -0.297 N 
ATOM      2  HN  UNL     1     -19.844  -6.469  -3.723  1.00  0.00     0.187 HD
HETATM    3  N   UNL     1     -20.715  -7.842  -4.890  1.00  0.00    -0.299 N 
ATOM      4  HN  UNL     1     -21.028  -8.805  -5.016  1.00  0.00     0.187 HD
ENDROOT
BRANCH   1   5
HETATM    5  C   UNL     1     -20.076  -8.420  -2.834  1.00  0.00     0.092 A 
HETATM    6  C   UNL     1     -20.928  -8.325  -1.694  1.00  0.00     0.005 A 
HETATM    7  C   UNL     1     -21.805  -7.236  -1.472  1.00  0.00     0.014 A 
HETATM    8  C   UNL     1     -20.920  -9.365  -0.726  1.00  0.00    -0.024 A 
HETATM    9  C   UNL     1     -22.645  -7.185  -0.357  1.00  0.00     0.001 A 
HETATM   10  C   UNL     1     -22.632  -8.216   0.572  1.00  0.00     0.001 A 
HETATM   11  C   UNL     1     -21.772  -9.299   0.389  1.00  0.00     0.012 A 
HETATM   12  C   UNL     1     -20.072 -10.467  -0.894  1.00  0.00     0.015 A 
HETATM   13  C   UNL     1     -19.238 -10.563  -2.004  1.00  0.00     0.040 A 
HETATM   14  C   UNL     1     -19.249  -9.555  -2.967  1.00  0.00     0.094 A 
BRANCH  14  15
HETATM   15  O   UNL     1     -18.462  -9.709  -4.081  1.00  0.00    -0.358 OA
HETATM   16  H   UNL     1     -17.987  -8.881  -4.255  1.00  0.00     0.217 HD
ENDBRANCH  14  15
ENDBRANCH   1   5
BRANCH   3  17
HETATM   17  C   UNL     1     -20.847  -6.842  -5.887  1.00  0.00     0.070 A 
HETATM   18  C   UNL     1     -22.044  -6.106  -5.981  1.00  0.00     0.064 A 
HETATM   19  C   UNL     1     -22.233  -5.132  -6.973  1.00  0.00     0.062 A 
HETATM   20 CL   UNL     1     -23.346  -6.375  -4.871  1.00  0.00    -0.082 Cl
HETATM   21  C   UNL     1     -21.206  -4.871  -7.884  1.00  0.00     0.104 A 
HETATM   22  C   UNL     1     -19.992  -5.559  -7.797  1.00  0.00     0.038 A 
HETATM   23  C   UNL     1     -19.818  -6.528  -6.801  1.00  0.00     0.035 A 
BRANCH  21  24
HETATM   24  N   UNL     1     -21.403  -3.871  -8.940  1.00  0.00    -0.116 N 
HETATM   25  O   UNL     1     -22.506  -3.312  -9.004  1.00  0.00    -0.532 OA
HETATM   26  O   UNL     1     -20.455  -3.652  -9.708  1.00  0.00    -0.532 OA
ENDBRANCH  21  24
ENDBRANCH   3  17
TORSDOF 4
ENDMDL
MODEL 8
REMARK VINA RESULT:      -7.7      4.489      7.004
REMARK  4 active torsions:
REMARK  status: ('A' for Active; 'I' for Inactive)
REMARK    1  A    between atoms: C_9  and  O_25 
REMARK    2  A    between atoms: C_10  and  N_11 
REMARK    3  A    between atoms: N_13  and  C_15 
REMARK    4  A    between atoms: C_18  and  N_21 
ROOT
HETATM    1  N   UNL     1     -19.309  -8.980  -3.635  1.00  0.00    -0.297 N 
ATOM      2  HN  UNL     1     -18.499  -9.192  -3.051  1.00  0.00     0.187 HD
HETATM    3  N   UNL     1     -19.474  -9.451  -4.780  1.00  0.00    -0.299 N 
ATOM      4  HN  UNL     1     -20.295  -9.256  -5.354  1.00  0.00     0.187 HD
ENDROOT
BRANCH   1   5
HETATM    5  C   UNL     1     -20.362  -8.120  -3.227  1.00  0.00     0.092 A 
HETATM    6  C   UNL     1     -20.916  -8.289  -1.924  1.00  0.00     0.005 A 
HETATM    7  C   UNL     1     -20.532  -9.335  -1.050  1.00  0.00     0.014 A 
HETATM    8  C   UNL     1     -21.896  -7.373  -1.455  1.00  0.00    -0.024 A 
HETATM    9  C   UNL     1     -21.077  -9.459   0.230  1.00  0.00     0.001 A 
HETATM   10  C   UNL     1     -22.024  -8.547   0.675  1.00  0.00     0.001 A 
HETATM   11  C   UNL     1     -22.433  -7.511  -0.165  1.00  0.00     0.012 A 
HETATM   12  C   UNL     1     -22.315  -6.319  -2.278  1.00  0.00     0.015 A 
HETATM   13  C   UNL     1     -21.777  -6.150  -3.550  1.00  0.00     0.040 A 
HETATM   14  C   UNL     1     -20.805  -7.035  -4.014  1.00  0.00     0.094 A 
BRANCH  14  15
HETATM   15  O   UNL     1     -20.250  -6.806  -5.247  1.00  0.00    -0.358 OA
HETATM   16  H   UNL     1     -20.881  -7.065  -5.937  1.00  0.00     0.217 HD
ENDBRANCH  14  15
ENDBRANCH   1   5
BRANCH   3  17
HETATM   17  C   UNL     1     -18.408 -10.284  -5.202  1.00  0.00     0.070 A 
HETATM   18  C   UNL     1     -18.685 -11.445  -5.950  1.00  0.00     0.064 A 
HETATM   19  C   UNL     1     -17.665 -12.318  -6.359  1.00  0.00     0.062 A 
HETATM   20 CL   UNL     1     -20.308 -11.851  -6.398  1.00  0.00    -0.082 Cl
HETATM   21  C   UNL     1     -16.339 -12.026  -6.031  1.00  0.00     0.104 A 
HETATM   22  C   UNL     1     -16.026 -10.864  -5.320  1.00  0.00     0.038 A 
HETATM   23  C   UNL     1     -17.054 -10.001  -4.920  1.00  0.00     0.035 A 
BRANCH  21  24
HETATM   24  N   UNL     1     -15.268 -12.945  -6.433  1.00  0.00    -0.116 N 
HETATM   25  O   UNL     1     -14.139 -12.468  -6.616  1.00  0.00    -0.532 OA
HETATM   26  O   UNL     1     -15.558 -14.142  -6.571  1.00  0.00    -0.532 OA
ENDBRANCH  21  24
ENDBRANCH   3  17
TORSDOF 4
ENDMDL
MODEL 9
REMARK VINA RESULT:      -7.6      3.730      4.971
REMARK  4 active torsions:
REMARK  status: ('A' for Active; 'I' for Inactive)
REMARK    1  A    between atoms: C_9  and  O_25 
REMARK    2  A    between atoms: C_10  and  N_11 
REMARK    3  A    between atoms: N_13  and  C_15 
REMARK    4  A    between atoms: C_18  and  N_21 
ROOT
HETATM    1  N   UNL     1     -20.840  -9.950  -2.529  1.00  0.00    -0.297 N 
ATOM      2  HN  UNL     1     -21.521 -10.191  -3.249  1.00  0.00     0.187 HD
HETATM    3  N   UNL     1     -20.261  -8.844  -2.472  1.00  0.00    -0.299 N 
ATOM      4  HN  UNL     1     -19.596  -8.595  -1.739  1.00  0.00     0.187 HD
ENDROOT
BRANCH   1   5
HETATM    5  C   UNL     1     -20.455 -10.836  -1.489  1.00  0.00     0.092 A 
HETATM    6  C   UNL     1     -21.472 -11.423  -0.680  1.00  0.00     0.005 A 
HETATM    7  C   UNL     1     -22.843 -11.092  -0.801  1.00  0.00     0.014 A 
HETATM    8  C   UNL     1     -21.118 -12.394   0.295  1.00  0.00    -0.024 A 
HETATM    9  C   UNL     1     -23.818 -11.702  -0.009  1.00  0.00     0.001 A 
HETATM   10  C   UNL     1     -23.455 -12.658   0.930  1.00  0.00     0.001 A 
HETATM   11  C   UNL     1     -22.111 -13.000   1.082  1.00  0.00     0.012 A 
HETATM   12  C   UNL     1     -19.776 -12.760   0.458  1.00  0.00     0.015 A 
HETATM   13  C   UNL     1     -18.780 -12.190  -0.329  1.00  0.00     0.040 A 
HETATM   14  C   UNL     1     -19.118 -11.246  -1.298  1.00  0.00     0.094 A 
BRANCH  14  15
HETATM   15  O   UNL     1     -18.122 -10.749  -2.099  1.00  0.00    -0.358 OA
HETATM   16  H   UNL     1     -18.218  -9.786  -2.172  1.00  0.00     0.217 HD
ENDBRANCH  14  15
ENDBRANCH   1   5
BRANCH   3  17
HETATM   17  C   UNL     1     -20.620  -7.969  -3.528  1.00  0.00     0.070 A 
HETATM   18  C   UNL     1     -21.539  -6.929  -3.288  1.00  0.00     0.064 A 
HETATM   19  C   UNL     1     -21.951  -6.060  -4.310  1.00  0.00     0.062 A 
HETATM   20 CL   UNL     1     -22.208  -6.676  -1.711  1.00  0.00    -0.082 Cl
HETATM   21  C   UNL     1     -21.429  -6.218  -5.596  1.00  0.00     0.104 A 
HETATM   22  C   UNL     1     -20.489  -7.218  -5.861  1.00  0.00     0.038 A 
HETATM   23  C   UNL     1     -20.086  -8.076  -4.830  1.00  0.00     0.035 A 
BRANCH  21  24
HETATM   24  N   UNL     1     -21.873  -5.330  -6.678  1.00  0.00    -0.116 N 
HETATM   25  O   UNL     1     -22.931  -4.708  -6.514  1.00  0.00    -0.532 OA
HETATM   26  O   UNL     1     -21.164  -5.261  -7.693  1.00  0.00    -0.532 OA
ENDBRANCH  21  24
ENDBRANCH   3  17
TORSDOF 4
ENDMDL
