MODEL 1
REMARK VINA RESULT:      -6.0      0.000      0.000
REMARK  24 active torsions:
REMARK  status: ('A' for Active; 'I' for Inactive)
REMARK    1  A    between atoms: CG1_2  and  CB_3 
REMARK    2  A    between atoms: CB_3  and  CA_5 
REMARK    3  A    between atoms: CA_5  and  C_6 
REMARK    4  A    between atoms: CA_5  and  N_8 
REMARK       I    between atoms: C_6  and  N_11 
REMARK    5  A    between atoms: N_11  and  CA_12 
REMARK    6  A    between atoms: CA_12  and  CB_13 
REMARK    7  A    between atoms: CA_12  and  C_18 
REMARK    8  A    between atoms: CB_13  and  CG_14 
REMARK    9  A    between atoms: CG_14  and  CD_15 
REMARK       I    between atoms: CD_15  and  NE2_17 
REMARK       I    between atoms: C_18  and  N_23 
REMARK   10  A    between atoms: N_23  and  CA_24 
REMARK   11  A    between atoms: CA_24  and  C_26 
REMARK       I    between atoms: C_26  and  N_29 
REMARK   12  A    between atoms: N_29  and  CA_30 
REMARK   13  A    between atoms: CA_30  and  CB_31 
REMARK   14  A    between atoms: CA_30  and  C_33 
REMARK   15  A    between atoms: CB_31  and  SG_32 
REMARK       I    between atoms: C_33  and  N_37 
REMARK   16  A    between atoms: N_37  and  CA_38 
REMARK   17  A    between atoms: CA_38  and  CB_39 
REMARK   18  A    between atoms: CA_38  and  C_47 
REMARK   19  A    between atoms: CB_39  and  CG_40 
REMARK   20  A    between atoms: CG_40  and  CD_41 
REMARK   21  A    between atoms: CD_41  and  NE_42 
REMARK       I    between atoms: NE_42  and  CZ_44 
REMARK       I    between atoms: CZ_44  and  NH2_46 
REMARK       I    between atoms: C_47  and  N_54 
REMARK   22  A    between atoms: N_54  and  CA_55 
REMARK   23  A    between atoms: CA_55  and  C_56 
REMARK   24  A    between atoms: C_56  and  OXT_58 
ROOT
ATOM      1  C   ALA A   3     -18.019 -10.006  -5.650  1.00  0.00     0.240 C 
ATOM      2  O   ALA A   3     -18.296  -9.042  -6.359  1.00  0.00    -0.271 OA
ATOM      3  N   CYS A   4     -18.966 -10.890  -5.198  1.00  0.00    -0.345 N 
ATOM      4  H   CYS A   4     -18.639 -11.619  -4.563  1.00  0.00     0.163 HD
ENDROOT
BRANCH   3   5
ATOM      5  CA  CYS A   4     -20.402 -10.816  -5.390  1.00  0.00     0.185 C 
BRANCH   5   6
ATOM      6  CB  CYS A   4     -21.060 -12.170  -4.982  1.00  0.00     0.105 C 
BRANCH   6   7
ATOM      7  SG  CYS A   4     -19.943 -13.620  -4.851  1.00  0.00    -0.180 SA
ATOM      8  HG  CYS A   4     -19.445 -13.344  -3.637  1.00  0.00     0.101 HD
ENDBRANCH   6   7
ENDBRANCH   5   6
BRANCH   5   9
ATOM      9  C   CYS A   4     -21.163  -9.650  -4.601  1.00  0.00     0.241 C 
ATOM     10  O   CYS A   4     -21.884  -9.995  -3.658  1.00  0.00    -0.271 OA
ATOM     11  N   ARG A   5     -21.131  -8.319  -5.046  1.00  0.00    -0.346 N 
ATOM     12  H   ARG A   5     -20.444  -8.106  -5.761  1.00  0.00     0.163 HD
BRANCH  11  13
ATOM     13  CA  ARG A   5     -21.932  -7.078  -4.487  1.00  0.00     0.176 C 
BRANCH  13  14
ATOM     14  CB  ARG A   5     -21.238  -6.562  -3.222  1.00  0.00     0.036 C 
BRANCH  14  15
ATOM     15  CG  ARG A   5     -22.186  -6.233  -2.103  1.00  0.00     0.022 C 
BRANCH  15  16
ATOM     16  CD  ARG A   5     -21.880  -6.936  -0.793  1.00  0.00     0.122 C 
BRANCH  16  17
ATOM     17  NE  ARG A   5     -22.053  -8.346  -1.108  1.00  0.00    -0.367 N 
ATOM     18  CZ  ARG A   5     -22.908  -9.027  -0.470  1.00  0.00     0.143 C 
ATOM     19  NH1 ARG A   5     -23.722  -8.650   0.539  1.00  0.00    -0.376 N 
ATOM     20  NH2 ARG A   5     -23.079 -10.327  -0.839  1.00  0.00    -0.274 NA
ATOM     21 HH11 ARG A   5     -23.503  -7.759   0.968  1.00  0.00     0.158 HD
ATOM     22 HH12 ARG A   5     -24.033  -9.347   1.199  1.00  0.00     0.158 HD
ATOM     23 HH21 ARG A   5     -22.406 -10.570  -1.552  1.00  0.00     0.127 HD
ATOM     24 HH22 ARG A   5     -23.135 -11.018  -0.092  1.00  0.00     0.127 HD
ATOM     25  HE  ARG A   5     -21.489  -8.782  -1.837  1.00  0.00     0.162 HD
ENDBRANCH  16  17
ENDBRANCH  15  16
ENDBRANCH  14  15
ENDBRANCH  13  14
BRANCH  13  26
ATOM     26  C   ARG A   5     -22.282  -5.959  -5.671  1.00  0.00     0.240 C 
ATOM     27  O   ARG A   5     -23.445  -5.543  -5.662  1.00  0.00    -0.271 OA
ATOM     28  N   GLY A   6     -21.408  -5.412  -6.635  1.00  0.00    -0.349 N 
ATOM     29  H   GLY A   6     -20.432  -5.629  -6.503  1.00  0.00     0.163 HD
BRANCH  28  30
ATOM     30  CA  GLY A   6     -21.597  -4.807  -8.137  1.00  0.00     0.232 C 
BRANCH  30  31
ATOM     31  C   GLY A   6     -22.891  -4.349  -9.008  1.00  0.00     0.158 C 
ATOM     32  O   GLY A   6     -22.931  -4.274 -10.230  1.00  0.00    -0.649 OA
BRANCH  31  33
ATOM     33  OXT GLY A   6     -23.999  -3.970  -8.281  1.00  0.00    -0.775 OA
ATOM     34  HXT GLY A   6     -24.241  -4.565  -7.538  1.00  0.00     0.167 HD
ENDBRANCH  31  33
ENDBRANCH  30  31
ENDBRANCH  28  30
ENDBRANCH  13  26
ENDBRANCH  11  13
ENDBRANCH   5   9
ENDBRANCH   3   5
BRANCH   1  35
ATOM     35  CA  ALA A   3     -16.557 -10.308  -5.191  1.00  0.00     0.172 C 
ATOM     36  CB  ALA A   3     -15.626 -10.720  -6.334  1.00  0.00     0.042 C 
BRANCH  35  37
ATOM     37  N   ALA A   3     -16.505 -11.277  -4.084  1.00  0.00    -0.346 N 
ATOM     38  C   GLN A   2     -16.140 -10.931  -2.808  1.00  0.00     0.241 C 
ATOM     39  O   GLN A   2     -15.610  -9.845  -2.556  1.00  0.00    -0.271 OA
ATOM     40  H   ALA A   3     -16.888 -12.207  -4.263  1.00  0.00     0.163 HD
BRANCH  38  41
ATOM     41  CA  GLN A   2     -16.335 -11.957  -1.691  1.00  0.00     0.177 C 
BRANCH  41  42
ATOM     42  N   GLN A   2     -17.757 -11.848  -1.356  1.00  0.00    -0.346 N 
ATOM     43  C   ILE A   1     -18.381 -11.982  -0.146  1.00  0.00     0.251 C 
ATOM     44  O   ILE A   1     -17.855 -12.115   0.946  1.00  0.00    -0.271 OA
ATOM     45  H   GLN A   2     -18.308 -12.180  -2.148  1.00  0.00     0.163 HD
BRANCH  43  46
ATOM     46  CA  ILE A   1     -19.935 -11.838  -0.260  1.00  0.00     0.312 C 
BRANCH  46  47
ATOM     47  CB  ILE A   1     -20.742 -13.114  -0.066  1.00  0.00     0.023 C 
ATOM     48  CG2 ILE A   1     -21.570 -13.540  -1.300  1.00  0.00     0.012 C 
BRANCH  47  49
ATOM     49  CG1 ILE A   1     -21.612 -12.815   1.141  1.00  0.00     0.002 C 
ATOM     50  CD1 ILE A   1     -22.242 -14.031   1.755  1.00  0.00     0.005 C 
ENDBRANCH  47  49
ENDBRANCH  46  47
BRANCH  46  51
ATOM     51  N   ILE A   1     -20.090 -11.367  -1.606  1.00  0.00     0.092 N 
ATOM     52  H1  ILE A   1     -20.509 -12.154  -2.112  1.00  0.00     0.313 HD
ATOM     53  H2  ILE A   1     -19.146 -11.429  -2.053  1.00  0.00     0.313 HD
ENDBRANCH  46  51
ENDBRANCH  43  46
ENDBRANCH  41  42
BRANCH  41  54
ATOM     54  CB  GLN A   2     -16.002 -13.401  -1.996  1.00  0.00     0.044 C 
BRANCH  54  55
ATOM     55  CG  GLN A   2     -14.809 -13.986  -1.285  1.00  0.00     0.105 C 
BRANCH  55  56
ATOM     56  CD  GLN A   2     -15.027 -13.975   0.194  1.00  0.00     0.215 C 
ATOM     57  OE1 GLN A   2     -14.341 -13.291   0.945  1.00  0.00    -0.274 OA
ATOM     58  NE2 GLN A   2     -16.083 -14.714   0.613  1.00  0.00    -0.370 N 
ATOM     59 1HE2 GLN A   2     -16.767 -15.095  -0.022  1.00  0.00     0.159 HD
ATOM     60 2HE2 GLN A   2     -16.326 -14.679   1.603  1.00  0.00     0.159 HD
ENDBRANCH  55  56
ENDBRANCH  54  55
ENDBRANCH  41  54
ENDBRANCH  38  41
ENDBRANCH  35  37
ENDBRANCH   1  35
TORSDOF 24
ENDMDL
MODEL 2
REMARK VINA RESULT:      -5.9      2.312      9.142
REMARK  24 active torsions:
REMARK  status: ('A' for Active; 'I' for Inactive)
REMARK    1  A    between atoms: CG1_2  and  CB_3 
REMARK    2  A    between atoms: CB_3  and  CA_5 
REMARK    3  A    between atoms: CA_5  and  C_6 
REMARK    4  A    between atoms: CA_5  and  N_8 
REMARK       I    between atoms: C_6  and  N_11 
REMARK    5  A    between atoms: N_11  and  CA_12 
REMARK    6  A    between atoms: CA_12  and  CB_13 
REMARK    7  A    between atoms: CA_12  and  C_18 
REMARK    8  A    between atoms: CB_13  and  CG_14 
REMARK    9  A    between atoms: CG_14  and  CD_15 
REMARK       I    between atoms: CD_15  and  NE2_17 
REMARK       I    between atoms: C_18  and  N_23 
REMARK   10  A    between atoms: N_23  and  CA_24 
REMARK   11  A    between atoms: CA_24  and  C_26 
REMARK       I    between atoms: C_26  and  N_29 
REMARK   12  A    between atoms: N_29  and  CA_30 
REMARK   13  A    between atoms: CA_30  and  CB_31 
REMARK   14  A    between atoms: CA_30  and  C_33 
REMARK   15  A    between atoms: CB_31  and  SG_32 
REMARK       I    between atoms: C_33  and  N_37 
REMARK   16  A    between atoms: N_37  and  CA_38 
REMARK   17  A    between atoms: CA_38  and  CB_39 
REMARK   18  A    between atoms: CA_38  and  C_47 
REMARK   19  A    between atoms: CB_39  and  CG_40 
REMARK   20  A    between atoms: CG_40  and  CD_41 
REMARK   21  A    between atoms: CD_41  and  NE_42 
REMARK       I    between atoms: NE_42  and  CZ_44 
REMARK       I    between atoms: CZ_44  and  NH2_46 
REMARK       I    between atoms: C_47  and  N_54 
REMARK   22  A    between atoms: N_54  and  CA_55 
REMARK   23  A    between atoms: CA_55  and  C_56 
REMARK   24  A    between atoms: C_56  and  OXT_58 
ROOT
ATOM      1  C   ALA A   3     -21.134  -9.228   0.842  1.00  0.00     0.240 C 
ATOM      2  O   ALA A   3     -20.659  -8.969   1.945  1.00  0.00    -0.271 OA
ATOM      3  N   CYS A   4     -21.077 -10.482   0.288  1.00  0.00    -0.345 N 
ATOM      4  H   CYS A   4     -21.445 -10.576  -0.659  1.00  0.00     0.163 HD
ENDROOT
BRANCH   3   5
ATOM      5  CA  CYS A   4     -20.412 -11.654   0.827  1.00  0.00     0.185 C 
BRANCH   5   6
ATOM      6  CB  CYS A   4     -21.360 -12.889   0.734  1.00  0.00     0.105 C 
BRANCH   6   7
ATOM      7  SG  CYS A   4     -23.098 -12.555   0.250  1.00  0.00    -0.180 SA
ATOM      8  HG  CYS A   4     -23.463 -11.899   1.361  1.00  0.00     0.101 HD
ENDBRANCH   6   7
ENDBRANCH   5   6
BRANCH   5   9
ATOM      9  C   CYS A   4     -19.022 -12.057   0.142  1.00  0.00     0.241 C 
ATOM     10  O   CYS A   4     -19.081 -12.817  -0.831  1.00  0.00    -0.271 OA
ATOM     11  N   ARG A   5     -17.791 -11.686   0.705  1.00  0.00    -0.346 N 
ATOM     12  H   ARG A   5     -17.830 -10.987   1.439  1.00  0.00     0.163 HD
BRANCH  11  13
ATOM     13  CA  ARG A   5     -16.337 -12.114   0.256  1.00  0.00     0.176 C 
BRANCH  13  14
ATOM     14  CB  ARG A   5     -16.066 -13.543   0.737  1.00  0.00     0.036 C 
BRANCH  14  15
ATOM     15  CG  ARG A   5     -14.940 -13.645   1.727  1.00  0.00     0.022 C 
BRANCH  15  16
ATOM     16  CD  ARG A   5     -13.862 -14.645   1.353  1.00  0.00     0.122 C 
BRANCH  16  17
ATOM     17  NE  ARG A   5     -13.748 -14.507  -0.092  1.00  0.00    -0.367 N 
ATOM     18  CZ  ARG A   5     -12.603 -14.404  -0.620  1.00  0.00     0.143 C 
ATOM     19  NH1 ARG A   5     -11.388 -14.373  -0.031  1.00  0.00    -0.376 N 
ATOM     20  NH2 ARG A   5     -12.540 -14.338  -1.979  1.00  0.00    -0.274 NA
ATOM     21 HH11 ARG A   5     -11.393 -14.232   0.972  1.00  0.00     0.158 HD
ATOM     22 HH12 ARG A   5     -10.632 -13.895  -0.499  1.00  0.00     0.158 HD
ATOM     23 HH21 ARG A   5     -13.474 -14.304  -2.362  1.00  0.00     0.127 HD
ATOM     24 HH22 ARG A   5     -11.920 -13.637  -2.382  1.00  0.00     0.127 HD
ATOM     25  HE  ARG A   5     -14.585 -14.492  -0.674  1.00  0.00     0.162 HD
ENDBRANCH  16  17
ENDBRANCH  15  16
ENDBRANCH  14  15
ENDBRANCH  13  14
BRANCH  13  26
ATOM     26  C   ARG A   5     -16.045 -11.784  -1.351  1.00  0.00     0.240 C 
ATOM     27  O   ARG A   5     -15.181 -12.494  -1.876  1.00  0.00    -0.271 OA
ATOM     28  N   GLY A   6     -16.690 -10.837  -2.175  1.00  0.00    -0.349 N 
ATOM     29  H   GLY A   6     -17.508 -10.405  -1.774  1.00  0.00     0.163 HD
BRANCH  28  30
ATOM     30  CA  GLY A   6     -16.250  -9.976  -3.488  1.00  0.00     0.232 C 
BRANCH  30  31
ATOM     31  C   GLY A   6     -15.640 -10.377  -4.940  1.00  0.00     0.158 C 
ATOM     32  O   GLY A   6     -14.788 -11.234  -5.139  1.00  0.00    -0.649 OA
BRANCH  31  33
ATOM     33  OXT GLY A   6     -16.103  -9.638  -6.008  1.00  0.00    -0.775 OA
ATOM     34  HXT GLY A   6     -16.747  -8.930  -5.786  1.00  0.00     0.167 HD
ENDBRANCH  31  33
ENDBRANCH  30  31
ENDBRANCH  28  30
ENDBRANCH  13  26
ENDBRANCH  11  13
ENDBRANCH   5   9
ENDBRANCH   3   5
BRANCH   1  35
ATOM     35  CA  ALA A   3     -21.843  -8.147  -0.033  1.00  0.00     0.172 C 
ATOM     36  CB  ALA A   3     -23.292  -7.875   0.377  1.00  0.00     0.042 C 
BRANCH  35  37
ATOM     37  N   ALA A   3     -21.741  -8.437  -1.473  1.00  0.00    -0.346 N 
ATOM     38  C   GLN A   2     -21.454  -7.475  -2.408  1.00  0.00     0.241 C 
ATOM     39  O   GLN A   2     -21.492  -6.272  -2.134  1.00  0.00    -0.271 OA
ATOM     40  H   ALA A   3     -21.756  -9.419  -1.751  1.00  0.00     0.163 HD
BRANCH  38  41
ATOM     41  CA  GLN A   2     -21.150  -7.918  -3.839  1.00  0.00     0.177 C 
BRANCH  41  42
ATOM     42  N   GLN A   2     -21.130  -6.667  -4.600  1.00  0.00    -0.346 N 
ATOM     43  C   ILE A   1     -21.215  -6.465  -5.950  1.00  0.00     0.251 C 
ATOM     44  O   ILE A   1     -21.439  -7.300  -6.810  1.00  0.00    -0.271 OA
ATOM     45  H   GLN A   2     -20.532  -5.996  -4.115  1.00  0.00     0.163 HD
BRANCH  43  46
ATOM     46  CA  ILE A   1     -21.095  -4.952  -6.333  1.00  0.00     0.312 C 
BRANCH  46  47
ATOM     47  CB  ILE A   1     -20.779  -4.653  -7.792  1.00  0.00     0.023 C 
ATOM     48  CG2 ILE A   1     -19.337  -4.155  -8.043  1.00  0.00     0.012 C 
BRANCH  47  49
ATOM     49  CG1 ILE A   1     -21.824  -3.627  -8.189  1.00  0.00     0.002 C 
ATOM     50  CD1 ILE A   1     -23.148  -4.222  -8.572  1.00  0.00     0.005 C 
ENDBRANCH  47  49
ENDBRANCH  46  47
BRANCH  46  51
ATOM     51  N   ILE A   1     -20.007  -4.522  -5.503  1.00  0.00     0.092 N 
ATOM     52  H1  ILE A   1     -20.319  -4.710  -4.545  1.00  0.00     0.313 HD
ATOM     53  H2  ILE A   1     -20.073  -3.479  -5.445  1.00  0.00     0.313 HD
ENDBRANCH  46  51
ENDBRANCH  43  46
ENDBRANCH  41  42
BRANCH  41  54
ATOM     54  CB  GLN A   2     -19.863  -8.674  -4.083  1.00  0.00     0.044 C 
BRANCH  54  55
ATOM     55  CG  GLN A   2     -19.985 -10.035  -4.715  1.00  0.00     0.105 C 
BRANCH  55  56
ATOM     56  CD  GLN A   2     -20.114 -11.089  -3.662  1.00  0.00     0.215 C 
ATOM     57  OE1 GLN A   2     -20.926 -10.996  -2.748  1.00  0.00    -0.274 OA
ATOM     58  NE2 GLN A   2     -19.323 -12.173  -3.850  1.00  0.00    -0.370 N 
ATOM     59 1HE2 GLN A   2     -18.822 -12.339  -4.710  1.00  0.00     0.159 HD
ATOM     60 2HE2 GLN A   2     -19.428 -12.957  -3.206  1.00  0.00     0.159 HD
ENDBRANCH  55  56
ENDBRANCH  54  55
ENDBRANCH  41  54
ENDBRANCH  38  41
ENDBRANCH  35  37
ENDBRANCH   1  35
TORSDOF 24
ENDMDL
MODEL 3
REMARK VINA RESULT:      -5.9      2.346      5.630
REMARK  24 active torsions:
REMARK  status: ('A' for Active; 'I' for Inactive)
REMARK    1  A    between atoms: CG1_2  and  CB_3 
REMARK    2  A    between atoms: CB_3  and  CA_5 
REMARK    3  A    between atoms: CA_5  and  C_6 
REMARK    4  A    between atoms: CA_5  and  N_8 
REMARK       I    between atoms: C_6  and  N_11 
REMARK    5  A    between atoms: N_11  and  CA_12 
REMARK    6  A    between atoms: CA_12  and  CB_13 
REMARK    7  A    between atoms: CA_12  and  C_18 
REMARK    8  A    between atoms: CB_13  and  CG_14 
REMARK    9  A    between atoms: CG_14  and  CD_15 
REMARK       I    between atoms: CD_15  and  NE2_17 
REMARK       I    between atoms: C_18  and  N_23 
REMARK   10  A    between atoms: N_23  and  CA_24 
REMARK   11  A    between atoms: CA_24  and  C_26 
REMARK       I    between atoms: C_26  and  N_29 
REMARK   12  A    between atoms: N_29  and  CA_30 
REMARK   13  A    between atoms: CA_30  and  CB_31 
REMARK   14  A    between atoms: CA_30  and  C_33 
REMARK   15  A    between atoms: CB_31  and  SG_32 
REMARK       I    between atoms: C_33  and  N_37 
REMARK   16  A    between atoms: N_37  and  CA_38 
REMARK   17  A    between atoms: CA_38  and  CB_39 
REMARK   18  A    between atoms: CA_38  and  C_47 
REMARK   19  A    between atoms: CB_39  and  CG_40 
REMARK   20  A    between atoms: CG_40  and  CD_41 
REMARK   21  A    between atoms: CD_41  and  NE_42 
REMARK       I    between atoms: NE_42  and  CZ_44 
REMARK       I    between atoms: CZ_44  and  NH2_46 
REMARK       I    between atoms: C_47  and  N_54 
REMARK   22  A    between atoms: N_54  and  CA_55 
REMARK   23  A    between atoms: CA_55  and  C_56 
REMARK   24  A    between atoms: C_56  and  OXT_58 
ROOT
ATOM      1  C   ALA A   3     -22.943 -11.232  -0.995  1.00  0.00     0.240 C 
ATOM      2  O   ALA A   3     -23.668 -11.034  -1.967  1.00  0.00    -0.271 OA
ATOM      3  N   CYS A   4     -22.318 -10.215  -0.317  1.00  0.00    -0.345 N 
ATOM      4  H   CYS A   4     -21.689 -10.493   0.436  1.00  0.00     0.163 HD
ENDROOT
BRANCH   3   5
ATOM      5  CA  CYS A   4     -22.327  -8.802  -0.647  1.00  0.00     0.185 C 
BRANCH   5   6
ATOM      6  CB  CYS A   4     -21.905  -7.967   0.601  1.00  0.00     0.105 C 
BRANCH   6   7
ATOM      7  SG  CYS A   4     -20.741  -8.768   1.772  1.00  0.00    -0.180 SA
ATOM      8  HG  CYS A   4     -20.826 -10.010   1.276  1.00  0.00     0.101 HD
ENDBRANCH   6   7
ENDBRANCH   5   6
BRANCH   5   9
ATOM      9  C   CYS A   4     -21.393  -8.355  -1.867  1.00  0.00     0.241 C 
ATOM     10  O   CYS A   4     -20.362  -7.737  -1.582  1.00  0.00    -0.271 OA
ATOM     11  N   ARG A   5     -21.797  -8.525  -3.201  1.00  0.00    -0.346 N 
ATOM     12  H   ARG A   5     -22.602  -9.123  -3.349  1.00  0.00     0.163 HD
BRANCH  11  13
ATOM     13  CA  ARG A   5     -21.082  -8.015  -4.515  1.00  0.00     0.176 C 
BRANCH  13  14
ATOM     14  CB  ARG A   5     -21.056  -9.150  -5.544  1.00  0.00     0.036 C 
BRANCH  14  15
ATOM     15  CG  ARG A   5     -21.254 -10.514  -4.944  1.00  0.00     0.022 C 
BRANCH  15  16
ATOM     16  CD  ARG A   5     -21.342 -11.640  -5.959  1.00  0.00     0.122 C 
BRANCH  16  17
ATOM     17  NE  ARG A   5     -20.080 -11.556  -6.679  1.00  0.00    -0.367 N 
ATOM     18  CZ  ARG A   5     -19.756 -12.481  -7.479  1.00  0.00     0.143 C 
ATOM     19  NH1 ARG A   5     -20.413 -13.622  -7.780  1.00  0.00    -0.376 N 
ATOM     20  NH2 ARG A   5     -18.596 -12.332  -8.177  1.00  0.00    -0.274 NA
ATOM     21 HH11 ARG A   5     -21.176 -13.864  -7.158  1.00  0.00     0.158 HD
ATOM     22 HH12 ARG A   5     -19.882 -14.421  -8.093  1.00  0.00     0.158 HD
ATOM     23 HH21 ARG A   5     -18.119 -11.497  -7.870  1.00  0.00     0.127 HD
ATOM     24 HH22 ARG A   5     -17.981 -13.143  -8.235  1.00  0.00     0.127 HD
ATOM     25  HE  ARG A   5     -19.461 -10.758  -6.539  1.00  0.00     0.162 HD
ENDBRANCH  16  17
ENDBRANCH  15  16
ENDBRANCH  14  15
ENDBRANCH  13  14
BRANCH  13  26
ATOM     26  C   ARG A   5     -21.664  -6.540  -5.025  1.00  0.00     0.240 C 
ATOM     27  O   ARG A   5     -22.794  -6.259  -4.612  1.00  0.00    -0.271 OA
ATOM     28  N   GLY A   6     -21.011  -5.575  -5.821  1.00  0.00    -0.349 N 
ATOM     29  H   GLY A   6     -20.031  -5.748  -5.988  1.00  0.00     0.163 HD
BRANCH  28  30
ATOM     30  CA  GLY A   6     -21.509  -4.421  -6.859  1.00  0.00     0.232 C 
BRANCH  30  31
ATOM     31  C   GLY A   6     -22.533  -4.414  -8.122  1.00  0.00     0.158 C 
ATOM     32  O   GLY A   6     -22.228  -4.658  -9.283  1.00  0.00    -0.649 OA
BRANCH  31  33
ATOM     33  OXT GLY A   6     -23.831  -4.047  -7.838  1.00  0.00    -0.775 OA
ATOM     34  HXT GLY A   6     -24.526  -4.654  -8.177  1.00  0.00     0.167 HD
ENDBRANCH  31  33
ENDBRANCH  30  31
ENDBRANCH  28  30
ENDBRANCH  13  26
ENDBRANCH  11  13
ENDBRANCH   5   9
ENDBRANCH   3   5
BRANCH   1  35
ATOM     35  CA  ALA A   3     -22.661 -12.667  -0.446  1.00  0.00     0.172 C 
ATOM     36  CB  ALA A   3     -23.274 -12.931   0.931  1.00  0.00     0.042 C 
BRANCH  35  37
ATOM     37  N   ALA A   3     -21.228 -13.003  -0.467  1.00  0.00    -0.346 N 
ATOM     38  C   GLN A   2     -20.554 -13.320  -1.619  1.00  0.00     0.241 C 
ATOM     39  O   GLN A   2     -21.148 -13.568  -2.672  1.00  0.00    -0.271 OA
ATOM     40  H   ALA A   3     -20.705 -12.861   0.398  1.00  0.00     0.163 HD
BRANCH  38  41
ATOM     41  CA  GLN A   2     -19.030 -13.432  -1.563  1.00  0.00     0.177 C 
BRANCH  41  42
ATOM     42  N   GLN A   2     -18.560 -12.242  -2.276  1.00  0.00    -0.346 N 
ATOM     43  C   ILE A   1     -18.160 -12.105  -3.577  1.00  0.00     0.251 C 
ATOM     44  O   ILE A   1     -18.215 -12.944  -4.459  1.00  0.00    -0.271 OA
ATOM     45  H   GLN A   2     -18.059 -11.642  -1.620  1.00  0.00     0.163 HD
BRANCH  43  46
ATOM     46  CA  ILE A   1     -17.682 -10.650  -3.901  1.00  0.00     0.312 C 
BRANCH  46  47
ATOM     47  CB  ILE A   1     -16.187 -10.392  -3.775  1.00  0.00     0.023 C 
ATOM     48  CG2 ILE A   1     -15.797  -9.456  -2.608  1.00  0.00     0.012 C 
BRANCH  47  49
ATOM     49  CG1 ILE A   1     -15.800  -9.824  -5.128  1.00  0.00     0.002 C 
ATOM     50  CD1 ILE A   1     -16.924  -9.797  -6.122  1.00  0.00     0.005 C 
ENDBRANCH  47  49
ENDBRANCH  46  47
BRANCH  46  51
ATOM     51  N   ILE A   1     -18.391  -9.880  -2.920  1.00  0.00     0.092 N 
ATOM     52  H1  ILE A   1     -17.912  -8.974  -2.903  1.00  0.00     0.313 HD
ATOM     53  H2  ILE A   1     -18.053 -10.208  -1.985  1.00  0.00     0.313 HD
ENDBRANCH  46  51
ENDBRANCH  43  46
ENDBRANCH  41  42
BRANCH  41  54
ATOM     54  CB  GLN A   2     -18.378 -13.489  -0.200  1.00  0.00     0.044 C 
BRANCH  54  55
ATOM     55  CG  GLN A   2     -17.785 -12.206   0.322  1.00  0.00     0.105 C 
BRANCH  55  56
ATOM     56  CD  GLN A   2     -16.454 -12.465   0.951  1.00  0.00     0.215 C 
ATOM     57  OE1 GLN A   2     -15.527 -11.667   0.859  1.00  0.00    -0.274 OA
ATOM     58  NE2 GLN A   2     -16.390 -13.601   1.687  1.00  0.00    -0.370 N 
ATOM     59 1HE2 GLN A   2     -17.208 -14.136   1.935  1.00  0.00     0.159 HD
ATOM     60 2HE2 GLN A   2     -15.530 -13.786   2.203  1.00  0.00     0.159 HD
ENDBRANCH  55  56
ENDBRANCH  54  55
ENDBRANCH  41  54
ENDBRANCH  38  41
ENDBRANCH  35  37
ENDBRANCH   1  35
TORSDOF 24
ENDMDL
MODEL 4
REMARK VINA RESULT:      -5.9      2.145      9.238
REMARK  24 active torsions:
REMARK  status: ('A' for Active; 'I' for Inactive)
REMARK    1  A    between atoms: CG1_2  and  CB_3 
REMARK    2  A    between atoms: CB_3  and  CA_5 
REMARK    3  A    between atoms: CA_5  and  C_6 
REMARK    4  A    between atoms: CA_5  and  N_8 
REMARK       I    between atoms: C_6  and  N_11 
REMARK    5  A    between atoms: N_11  and  CA_12 
REMARK    6  A    between atoms: CA_12  and  CB_13 
REMARK    7  A    between atoms: CA_12  and  C_18 
REMARK    8  A    between atoms: CB_13  and  CG_14 
REMARK    9  A    between atoms: CG_14  and  CD_15 
REMARK       I    between atoms: CD_15  and  NE2_17 
REMARK       I    between atoms: C_18  and  N_23 
REMARK   10  A    between atoms: N_23  and  CA_24 
REMARK   11  A    between atoms: CA_24  and  C_26 
REMARK       I    between atoms: C_26  and  N_29 
REMARK   12  A    between atoms: N_29  and  CA_30 
REMARK   13  A    between atoms: CA_30  and  CB_31 
REMARK   14  A    between atoms: CA_30  and  C_33 
REMARK   15  A    between atoms: CB_31  and  SG_32 
REMARK       I    between atoms: C_33  and  N_37 
REMARK   16  A    between atoms: N_37  and  CA_38 
REMARK   17  A    between atoms: CA_38  and  CB_39 
REMARK   18  A    between atoms: CA_38  and  C_47 
REMARK   19  A    between atoms: CB_39  and  CG_40 
REMARK   20  A    between atoms: CG_40  and  CD_41 
REMARK   21  A    between atoms: CD_41  and  NE_42 
REMARK       I    between atoms: NE_42  and  CZ_44 
REMARK       I    between atoms: CZ_44  and  NH2_46 
REMARK       I    between atoms: C_47  and  N_54 
REMARK   22  A    between atoms: N_54  and  CA_55 
REMARK   23  A    between atoms: CA_55  and  C_56 
REMARK   24  A    between atoms: C_56  and  OXT_58 
ROOT
ATOM      1  C   ALA A   3     -20.990  -9.370   0.821  1.00  0.00     0.240 C 
ATOM      2  O   ALA A   3     -20.546  -9.245   1.959  1.00  0.00    -0.271 OA
ATOM      3  N   CYS A   4     -20.845 -10.524   0.092  1.00  0.00    -0.345 N 
ATOM      4  H   CYS A   4     -21.195 -10.502  -0.866  1.00  0.00     0.163 HD
ENDROOT
BRANCH   3   5
ATOM      5  CA  CYS A   4     -20.113 -11.718   0.470  1.00  0.00     0.185 C 
BRANCH   5   6
ATOM      6  CB  CYS A   4     -20.938 -12.986   0.090  1.00  0.00     0.105 C 
BRANCH   6   7
ATOM      7  SG  CYS A   4     -22.643 -13.088   0.762  1.00  0.00    -0.180 SA
ATOM      8  HG  CYS A   4     -22.708 -11.843   1.255  1.00  0.00     0.101 HD
ENDBRANCH   6   7
ENDBRANCH   5   6
BRANCH   5   9
ATOM      9  C   CYS A   4     -18.652 -11.883  -0.164  1.00  0.00     0.241 C 
ATOM     10  O   CYS A   4     -17.705 -11.944   0.628  1.00  0.00    -0.271 OA
ATOM     11  N   ARG A   5     -18.440 -11.812  -1.550  1.00  0.00    -0.346 N 
ATOM     12  H   ARG A   5     -19.271 -11.860  -2.129  1.00  0.00     0.163 HD
BRANCH  11  13
ATOM     13  CA  ARG A   5     -17.068 -11.804  -2.333  1.00  0.00     0.176 C 
BRANCH  13  14
ATOM     14  CB  ARG A   5     -16.473 -10.393  -2.285  1.00  0.00     0.036 C 
BRANCH  14  15
ATOM     15  CG  ARG A   5     -16.605  -9.637  -3.577  1.00  0.00     0.022 C 
BRANCH  15  16
ATOM     16  CD  ARG A   5     -15.988 -10.331  -4.778  1.00  0.00     0.122 C 
BRANCH  16  17
ATOM     17  NE  ARG A   5     -17.054 -10.319  -5.769  1.00  0.00    -0.367 N 
ATOM     18  CZ  ARG A   5     -17.404 -11.403  -6.321  1.00  0.00     0.143 C 
ATOM     19  NH1 ARG A   5     -16.907 -12.647  -6.156  1.00  0.00    -0.376 N 
ATOM     20  NH2 ARG A   5     -18.446 -11.355  -7.197  1.00  0.00    -0.274 NA
ATOM     21 HH11 ARG A   5     -16.023 -12.703  -5.664  1.00  0.00     0.158 HD
ATOM     22 HH12 ARG A   5     -16.985 -13.307  -6.916  1.00  0.00     0.158 HD
ATOM     23 HH21 ARG A   5     -18.737 -10.396  -7.327  1.00  0.00     0.127 HD
ATOM     24 HH22 ARG A   5     -18.338 -11.860  -8.075  1.00  0.00     0.127 HD
ATOM     25  HE  ARG A   5     -17.515  -9.444  -6.017  1.00  0.00     0.162 HD
ENDBRANCH  16  17
ENDBRANCH  15  16
ENDBRANCH  14  15
ENDBRANCH  13  14
BRANCH  13  26
ATOM     26  C   ARG A   5     -16.073 -13.064  -1.889  1.00  0.00     0.240 C 
ATOM     27  O   ARG A   5     -16.132 -14.054  -2.625  1.00  0.00    -0.271 OA
ATOM     28  N   GLY A   6     -15.158 -13.112  -0.816  1.00  0.00    -0.349 N 
ATOM     29  H   GLY A   6     -14.999 -12.234  -0.347  1.00  0.00     0.163 HD
BRANCH  28  30
ATOM     30  CA  GLY A   6     -14.549 -14.304   0.116  1.00  0.00     0.232 C 
BRANCH  30  31
ATOM     31  C   GLY A   6     -13.049 -14.685   0.613  1.00  0.00     0.158 C 
ATOM     32  O   GLY A   6     -12.758 -15.111   1.724  1.00  0.00    -0.649 OA
BRANCH  31  33
ATOM     33  OXT GLY A   6     -12.039 -14.446  -0.294  1.00  0.00    -0.775 OA
ATOM     34  HXT GLY A   6     -11.219 -14.971  -0.161  1.00  0.00     0.167 HD
ENDBRANCH  31  33
ENDBRANCH  30  31
ENDBRANCH  28  30
ENDBRANCH  13  26
ENDBRANCH  11  13
ENDBRANCH   5   9
ENDBRANCH   3   5
BRANCH   1  35
ATOM     35  CA  ALA A   3     -21.757  -8.219   0.095  1.00  0.00     0.172 C 
ATOM     36  CB  ALA A   3     -23.247  -8.162   0.436  1.00  0.00     0.042 C 
BRANCH  35  37
ATOM     37  N   ALA A   3     -21.542  -8.233  -1.361  1.00  0.00    -0.346 N 
ATOM     38  C   GLN A   2     -21.554  -7.094  -2.126  1.00  0.00     0.241 C 
ATOM     39  O   GLN A   2     -21.974  -6.020  -1.686  1.00  0.00    -0.271 OA
ATOM     40  H   ALA A   3     -21.241  -9.115  -1.778  1.00  0.00     0.163 HD
BRANCH  38  41
ATOM     41  CA  GLN A   2     -21.099  -7.191  -3.583  1.00  0.00     0.177 C 
BRANCH  41  42
ATOM     42  N   GLN A   2     -21.432  -8.565  -3.967  1.00  0.00    -0.346 N 
ATOM     43  C   ILE A   1     -20.867  -9.365  -4.921  1.00  0.00     0.251 C 
ATOM     44  O   ILE A   1     -19.875  -9.131  -5.590  1.00  0.00    -0.271 OA
ATOM     45  H   GLN A   2     -22.435  -8.706  -3.845  1.00  0.00     0.163 HD
BRANCH  43  46
ATOM     46  CA  ILE A   1     -21.581 -10.754  -5.030  1.00  0.00     0.312 C 
BRANCH  46  47
ATOM     47  CB  ILE A   1     -21.122 -11.822  -4.048  1.00  0.00     0.023 C 
ATOM     48  CG2 ILE A   1     -20.298 -12.964  -4.685  1.00  0.00     0.012 C 
BRANCH  47  49
ATOM     49  CG1 ILE A   1     -22.412 -12.320  -3.422  1.00  0.00     0.002 C 
ATOM     50  CD1 ILE A   1     -23.134 -11.285  -2.608  1.00  0.00     0.005 C 
ENDBRANCH  47  49
ENDBRANCH  46  47
BRANCH  46  51
ATOM     51  N   ILE A   1     -21.250 -11.152  -6.368  1.00  0.00     0.092 N 
ATOM     52  H1  ILE A   1     -22.050 -11.714  -6.678  1.00  0.00     0.313 HD
ATOM     53  H2  ILE A   1     -20.575 -11.946  -6.283  1.00  0.00     0.313 HD
ENDBRANCH  46  51
ENDBRANCH  43  46
ENDBRANCH  41  42
BRANCH  41  54
ATOM     54  CB  GLN A   2     -21.713  -6.230  -4.576  1.00  0.00     0.044 C 
BRANCH  54  55
ATOM     55  CG  GLN A   2     -20.778  -5.256  -5.244  1.00  0.00     0.105 C 
BRANCH  55  56
ATOM     56  CD  GLN A   2     -20.954  -5.297  -6.727  1.00  0.00     0.215 C 
ATOM     57  OE1 GLN A   2     -20.797  -6.330  -7.370  1.00  0.00    -0.274 OA
ATOM     58  NE2 GLN A   2     -21.373  -4.133  -7.279  1.00  0.00    -0.370 N 
ATOM     59 1HE2 GLN A   2     -21.705  -3.357  -6.725  1.00  0.00     0.159 HD
ATOM     60 2HE2 GLN A   2     -21.586  -4.126  -8.276  1.00  0.00     0.159 HD
ENDBRANCH  55  56
ENDBRANCH  54  55
ENDBRANCH  41  54
ENDBRANCH  38  41
ENDBRANCH  35  37
ENDBRANCH   1  35
TORSDOF 24
ENDMDL
MODEL 5
REMARK VINA RESULT:      -5.9      1.812      2.227
REMARK  24 active torsions:
REMARK  status: ('A' for Active; 'I' for Inactive)
REMARK    1  A    between atoms: CG1_2  and  CB_3 
REMARK    2  A    between atoms: CB_3  and  CA_5 
REMARK    3  A    between atoms: CA_5  and  C_6 
REMARK    4  A    between atoms: CA_5  and  N_8 
REMARK       I    between atoms: C_6  and  N_11 
REMARK    5  A    between atoms: N_11  and  CA_12 
REMARK    6  A    between atoms: CA_12  and  CB_13 
REMARK    7  A    between atoms: CA_12  and  C_18 
REMARK    8  A    between atoms: CB_13  and  CG_14 
REMARK    9  A    between atoms: CG_14  and  CD_15 
REMARK       I    between atoms: CD_15  and  NE2_17 
REMARK       I    between atoms: C_18  and  N_23 
REMARK   10  A    between atoms: N_23  and  CA_24 
REMARK   11  A    between atoms: CA_24  and  C_26 
REMARK       I    between atoms: C_26  and  N_29 
REMARK   12  A    between atoms: N_29  and  CA_30 
REMARK   13  A    between atoms: CA_30  and  CB_31 
REMARK   14  A    between atoms: CA_30  and  C_33 
REMARK   15  A    between atoms: CB_31  and  SG_32 
REMARK       I    between atoms: C_33  and  N_37 
REMARK   16  A    between atoms: N_37  and  CA_38 
REMARK   17  A    between atoms: CA_38  and  CB_39 
REMARK   18  A    between atoms: CA_38  and  C_47 
REMARK   19  A    between atoms: CB_39  and  CG_40 
REMARK   20  A    between atoms: CG_40  and  CD_41 
REMARK   21  A    between atoms: CD_41  and  NE_42 
REMARK       I    between atoms: NE_42  and  CZ_44 
REMARK       I    between atoms: CZ_44  and  NH2_46 
REMARK       I    between atoms: C_47  and  N_54 
REMARK   22  A    between atoms: N_54  and  CA_55 
REMARK   23  A    between atoms: CA_55  and  C_56 
REMARK   24  A    between atoms: C_56  and  OXT_58 
ROOT
ATOM      1  C   ALA A   3     -17.662 -11.733  -4.885  1.00  0.00     0.240 C 
ATOM      2  O   ALA A   3     -17.556 -10.509  -4.870  1.00  0.00    -0.271 OA
ATOM      3  N   CYS A   4     -18.544 -12.390  -5.705  1.00  0.00    -0.345 N 
ATOM      4  H   CYS A   4     -18.597 -13.403  -5.595  1.00  0.00     0.163 HD
ENDROOT
BRANCH   3   5
ATOM      5  CA  CYS A   4     -19.522 -11.799  -6.600  1.00  0.00     0.185 C 
BRANCH   5   6
ATOM      6  CB  CYS A   4     -20.184 -12.913  -7.469  1.00  0.00     0.105 C 
BRANCH   6   7
ATOM      7  SG  CYS A   4     -19.148 -14.377  -7.856  1.00  0.00    -0.180 SA
ATOM      8  HG  CYS A   4     -17.958 -13.759  -7.827  1.00  0.00     0.101 HD
ENDBRANCH   6   7
ENDBRANCH   5   6
BRANCH   5   9
ATOM      9  C   CYS A   4     -20.697 -10.961  -5.909  1.00  0.00     0.241 C 
ATOM     10  O   CYS A   4     -21.805 -11.504  -5.844  1.00  0.00    -0.271 OA
ATOM     11  N   ARG A   5     -20.518  -9.622  -5.527  1.00  0.00    -0.346 N 
ATOM     12  H   ARG A   5     -19.562  -9.285  -5.522  1.00  0.00     0.163 HD
BRANCH  11  13
ATOM     13  CA  ARG A   5     -21.596  -8.606  -4.975  1.00  0.00     0.176 C 
BRANCH  13  14
ATOM     14  CB  ARG A   5     -21.763  -8.824  -3.468  1.00  0.00     0.036 C 
BRANCH  14  15
ATOM     15  CG  ARG A   5     -20.463  -8.873  -2.716  1.00  0.00     0.022 C 
BRANCH  15  16
ATOM     16  CD  ARG A   5     -20.463  -8.099  -1.410  1.00  0.00     0.122 C 
BRANCH  16  17
ATOM     17  NE  ARG A   5     -21.877  -7.950  -1.097  1.00  0.00    -0.367 N 
ATOM     18  CZ  ARG A   5     -22.257  -8.001   0.109  1.00  0.00     0.143 C 
ATOM     19  NH1 ARG A   5     -21.531  -8.211   1.228  1.00  0.00    -0.376 N 
ATOM     20  NH2 ARG A   5     -23.580  -7.795   0.361  1.00  0.00    -0.274 NA
ATOM     21 HH11 ARG A   5     -20.588  -8.550   1.079  1.00  0.00     0.158 HD
ATOM     22 HH12 ARG A   5     -21.982  -8.622   2.031  1.00  0.00     0.158 HD
ATOM     23 HH21 ARG A   5     -24.082  -7.705  -0.511  1.00  0.00     0.127 HD
ATOM     24 HH22 ARG A   5     -24.032  -8.431   1.016  1.00  0.00     0.127 HD
ATOM     25  HE  ARG A   5     -22.556  -7.805  -1.844  1.00  0.00     0.162 HD
ENDBRANCH  16  17
ENDBRANCH  15  16
ENDBRANCH  14  15
ENDBRANCH  13  14
BRANCH  13  26
ATOM     26  C   ARG A   5     -21.323  -7.046  -5.492  1.00  0.00     0.240 C 
ATOM     27  O   ARG A   5     -21.411  -6.186  -4.610  1.00  0.00    -0.271 OA
ATOM     28  N   GLY A   6     -20.967  -6.609  -6.786  1.00  0.00    -0.349 N 
ATOM     29  H   GLY A   6     -20.724  -7.341  -7.435  1.00  0.00     0.163 HD
BRANCH  28  30
ATOM     30  CA  GLY A   6     -21.193  -5.232  -7.630  1.00  0.00     0.232 C 
BRANCH  30  31
ATOM     31  C   GLY A   6     -22.503  -4.342  -7.996  1.00  0.00     0.158 C 
ATOM     32  O   GLY A   6     -22.610  -3.604  -8.968  1.00  0.00    -0.649 OA
BRANCH  31  33
ATOM     33  OXT GLY A   6     -23.541  -4.403  -7.090  1.00  0.00    -0.775 OA
ATOM     34  HXT GLY A   6     -24.062  -5.236  -7.100  1.00  0.00     0.167 HD
ENDBRANCH  31  33
ENDBRANCH  30  31
ENDBRANCH  28  30
ENDBRANCH  13  26
ENDBRANCH  11  13
ENDBRANCH   5   9
ENDBRANCH   3   5
BRANCH   1  35
ATOM     35  CA  ALA A   3     -16.801 -12.654  -3.963  1.00  0.00     0.172 C 
ATOM     36  CB  ALA A   3     -16.678 -14.092  -4.471  1.00  0.00     0.042 C 
BRANCH  35  37
ATOM     37  N   ALA A   3     -17.248 -12.619  -2.561  1.00  0.00    -0.346 N 
ATOM     38  C   GLN A   2     -16.869 -11.636  -1.683  1.00  0.00     0.241 C 
ATOM     39  O   GLN A   2     -15.950 -10.852  -1.942  1.00  0.00    -0.271 OA
ATOM     40  H   ALA A   3     -17.973 -13.284  -2.287  1.00  0.00     0.163 HD
BRANCH  38  41
ATOM     41  CA  GLN A   2     -17.564 -11.566  -0.322  1.00  0.00     0.177 C 
BRANCH  41  42
ATOM     42  N   GLN A   2     -18.965 -11.868  -0.625  1.00  0.00    -0.346 N 
ATOM     43  C   ILE A   1     -20.099 -11.520   0.055  1.00  0.00     0.251 C 
ATOM     44  O   ILE A   1     -20.184 -10.777   1.018  1.00  0.00    -0.271 OA
ATOM     45  H   GLN A   2     -19.014 -12.781  -1.078  1.00  0.00     0.163 HD
BRANCH  43  46
ATOM     46  CA  ILE A   1     -21.391 -12.108  -0.603  1.00  0.00     0.312 C 
BRANCH  46  47
ATOM     47  CB  ILE A   1     -22.520 -12.477   0.348  1.00  0.00     0.023 C 
ATOM     48  CG2 ILE A   1     -23.007 -13.938   0.225  1.00  0.00     0.012 C 
BRANCH  47  49
ATOM     49  CG1 ILE A   1     -23.611 -11.473   0.025  1.00  0.00     0.002 C 
ATOM     50  CD1 ILE A   1     -23.801 -11.230  -1.444  1.00  0.00     0.005 C 
ENDBRANCH  47  49
ENDBRANCH  46  47
BRANCH  46  51
ATOM     51  N   ILE A   1     -20.886 -13.291  -1.239  1.00  0.00     0.092 N 
ATOM     52  H1  ILE A   1     -21.668 -13.953  -1.215  1.00  0.00     0.313 HD
ATOM     53  H2  ILE A   1     -20.296 -13.781  -0.526  1.00  0.00     0.313 HD
ENDBRANCH  46  51
ENDBRANCH  43  46
ENDBRANCH  41  42
BRANCH  41  54
ATOM     54  CB  GLN A   2     -17.074 -12.496   0.765  1.00  0.00     0.044 C 
BRANCH  54  55
ATOM     55  CG  GLN A   2     -15.618 -12.399   1.136  1.00  0.00     0.105 C 
BRANCH  55  56
ATOM     56  CD  GLN A   2     -14.881 -13.616   0.679  1.00  0.00     0.215 C 
ATOM     57  OE1 GLN A   2     -15.390 -14.436  -0.079  1.00  0.00    -0.274 OA
ATOM     58  NE2 GLN A   2     -13.596 -13.692   1.104  1.00  0.00    -0.370 N 
ATOM     59 1HE2 GLN A   2     -13.123 -12.917   1.543  1.00  0.00     0.159 HD
ATOM     60 2HE2 GLN A   2     -13.024 -14.460   0.757  1.00  0.00     0.159 HD
ENDBRANCH  55  56
ENDBRANCH  54  55
ENDBRANCH  41  54
ENDBRANCH  38  41
ENDBRANCH  35  37
ENDBRANCH   1  35
TORSDOF 24
ENDMDL
MODEL 6
REMARK VINA RESULT:      -5.8      2.176      9.692
REMARK  24 active torsions:
REMARK  status: ('A' for Active; 'I' for Inactive)
REMARK    1  A    between atoms: CG1_2  and  CB_3 
REMARK    2  A    between atoms: CB_3  and  CA_5 
REMARK    3  A    between atoms: CA_5  and  C_6 
REMARK    4  A    between atoms: CA_5  and  N_8 
REMARK       I    between atoms: C_6  and  N_11 
REMARK    5  A    between atoms: N_11  and  CA_12 
REMARK    6  A    between atoms: CA_12  and  CB_13 
REMARK    7  A    between atoms: CA_12  and  C_18 
REMARK    8  A    between atoms: CB_13  and  CG_14 
REMARK    9  A    between atoms: CG_14  and  CD_15 
REMARK       I    between atoms: CD_15  and  NE2_17 
REMARK       I    between atoms: C_18  and  N_23 
REMARK   10  A    between atoms: N_23  and  CA_24 
REMARK   11  A    between atoms: CA_24  and  C_26 
REMARK       I    between atoms: C_26  and  N_29 
REMARK   12  A    between atoms: N_29  and  CA_30 
REMARK   13  A    between atoms: CA_30  and  CB_31 
REMARK   14  A    between atoms: CA_30  and  C_33 
REMARK   15  A    between atoms: CB_31  and  SG_32 
REMARK       I    between atoms: C_33  and  N_37 
REMARK   16  A    between atoms: N_37  and  CA_38 
REMARK   17  A    between atoms: CA_38  and  CB_39 
REMARK   18  A    between atoms: CA_38  and  C_47 
REMARK   19  A    between atoms: CB_39  and  CG_40 
REMARK   20  A    between atoms: CG_40  and  CD_41 
REMARK   21  A    between atoms: CD_41  and  NE_42 
REMARK       I    between atoms: NE_42  and  CZ_44 
REMARK       I    between atoms: CZ_44  and  NH2_46 
REMARK       I    between atoms: C_47  and  N_54 
REMARK   22  A    between atoms: N_54  and  CA_55 
REMARK   23  A    between atoms: CA_55  and  C_56 
REMARK   24  A    between atoms: C_56  and  OXT_58 
ROOT
ATOM      1  C   ALA A   3     -21.166  -9.083   0.643  1.00  0.00     0.240 C 
ATOM      2  O   ALA A   3     -20.738  -8.911   1.781  1.00  0.00    -0.271 OA
ATOM      3  N   CYS A   4     -20.981 -10.254  -0.049  1.00  0.00    -0.345 N 
ATOM      4  H   CYS A   4     -21.321 -10.272  -1.010  1.00  0.00     0.163 HD
ENDROOT
BRANCH   3   5
ATOM      5  CA  CYS A   4     -20.218 -11.415   0.373  1.00  0.00     0.185 C 
BRANCH   5   6
ATOM      6  CB  CYS A   4     -21.180 -12.619   0.615  1.00  0.00     0.105 C 
BRANCH   6   7
ATOM      7  SG  CYS A   4     -22.941 -12.366   0.168  1.00  0.00    -0.180 SA
ATOM      8  HG  CYS A   4     -22.903 -12.968  -1.029  1.00  0.00     0.101 HD
ENDBRANCH   6   7
ENDBRANCH   5   6
BRANCH   5   9
ATOM      9  C   CYS A   4     -19.067 -11.906  -0.624  1.00  0.00     0.241 C 
ATOM     10  O   CYS A   4     -18.928 -13.127  -0.756  1.00  0.00    -0.271 OA
ATOM     11  N   ARG A   5     -18.165 -11.002  -1.207  1.00  0.00    -0.346 N 
ATOM     12  H   ARG A   5     -18.406 -10.020  -1.128  1.00  0.00     0.163 HD
BRANCH  11  13
ATOM     13  CA  ARG A   5     -16.890 -11.317  -2.086  1.00  0.00     0.176 C 
BRANCH  13  14
ATOM     14  CB  ARG A   5     -16.415 -10.025  -2.760  1.00  0.00     0.036 C 
BRANCH  14  15
ATOM     15  CG  ARG A   5     -17.049  -9.774  -4.099  1.00  0.00     0.022 C 
BRANCH  15  16
ATOM     16  CD  ARG A   5     -17.396 -11.031  -4.876  1.00  0.00     0.122 C 
BRANCH  16  17
ATOM     17  NE  ARG A   5     -16.363 -11.102  -5.899  1.00  0.00    -0.367 N 
ATOM     18  CZ  ARG A   5     -15.495 -12.021  -5.846  1.00  0.00     0.143 C 
ATOM     19  NH1 ARG A   5     -15.338 -12.998  -4.926  1.00  0.00    -0.376 N 
ATOM     20  NH2 ARG A   5     -14.584 -12.086  -6.856  1.00  0.00    -0.274 NA
ATOM     21 HH11 ARG A   5     -15.867 -12.881  -4.070  1.00  0.00     0.158 HD
ATOM     22 HH12 ARG A   5     -14.417 -13.384  -4.779  1.00  0.00     0.158 HD
ATOM     23 HH21 ARG A   5     -14.710 -11.300  -7.479  1.00  0.00     0.127 HD
ATOM     24 HH22 ARG A   5     -13.611 -12.234  -6.594  1.00  0.00     0.127 HD
ATOM     25  HE  ARG A   5     -16.338 -10.415  -6.652  1.00  0.00     0.162 HD
ENDBRANCH  16  17
ENDBRANCH  15  16
ENDBRANCH  14  15
ENDBRANCH  13  14
BRANCH  13  26
ATOM     26  C   ARG A   5     -15.750 -12.206  -1.258  1.00  0.00     0.240 C 
ATOM     27  O   ARG A   5     -14.996 -12.874  -1.972  1.00  0.00    -0.271 OA
ATOM     28  N   GLY A   6     -15.523 -12.246   0.134  1.00  0.00    -0.349 N 
ATOM     29  H   GLY A   6     -16.025 -11.557   0.672  1.00  0.00     0.163 HD
BRANCH  28  30
ATOM     30  CA  GLY A   6     -14.928 -13.362   1.164  1.00  0.00     0.232 C 
BRANCH  30  31
ATOM     31  C   GLY A   6     -13.707 -14.432   1.077  1.00  0.00     0.158 C 
ATOM     32  O   GLY A   6     -13.211 -15.019   2.031  1.00  0.00    -0.649 OA
BRANCH  31  33
ATOM     33  OXT GLY A   6     -13.174 -14.631  -0.178  1.00  0.00    -0.775 OA
ATOM     34  HXT GLY A   6     -12.235 -14.920  -0.198  1.00  0.00     0.167 HD
ENDBRANCH  31  33
ENDBRANCH  30  31
ENDBRANCH  28  30
ENDBRANCH  13  26
ENDBRANCH  11  13
ENDBRANCH   5   9
ENDBRANCH   3   5
BRANCH   1  35
ATOM     35  CA  ALA A   3     -21.958  -7.978  -0.125  1.00  0.00     0.172 C 
ATOM     36  CB  ALA A   3     -23.370  -7.743   0.416  1.00  0.00     0.042 C 
BRANCH  35  37
ATOM     37  N   ALA A   3     -21.975  -8.208  -1.579  1.00  0.00    -0.346 N 
ATOM     38  C   GLN A   2     -21.758  -7.209  -2.494  1.00  0.00     0.241 C 
ATOM     39  O   GLN A   2     -21.766  -6.018  -2.168  1.00  0.00    -0.271 OA
ATOM     40  H   ALA A   3     -22.018  -9.178  -1.896  1.00  0.00     0.163 HD
BRANCH  38  41
ATOM     41  CA  GLN A   2     -21.574  -7.593  -3.962  1.00  0.00     0.177 C 
BRANCH  41  42
ATOM     42  N   GLN A   2     -21.190  -6.337  -4.611  1.00  0.00    -0.346 N 
ATOM     43  C   ILE A   1     -20.801  -6.105  -5.901  1.00  0.00     0.251 C 
ATOM     44  O   ILE A   1     -20.797  -6.899  -6.826  1.00  0.00    -0.271 OA
ATOM     45  H   GLN A   2     -20.732  -5.738  -3.923  1.00  0.00     0.163 HD
BRANCH  43  46
ATOM     46  CA  ILE A   1     -20.427  -4.605  -6.148  1.00  0.00     0.312 C 
BRANCH  46  47
ATOM     47  CB  ILE A   1     -21.314  -3.845  -7.124  1.00  0.00     0.023 C 
ATOM     48  CG2 ILE A   1     -22.758  -4.386  -7.228  1.00  0.00     0.012 C 
BRANCH  47  49
ATOM     49  CG1 ILE A   1     -20.566  -3.933  -8.442  1.00  0.00     0.002 C 
ATOM     50  CD1 ILE A   1     -21.424  -4.344  -9.603  1.00  0.00     0.005 C 
ENDBRANCH  47  49
ENDBRANCH  46  47
BRANCH  46  51
ATOM     51  N   ILE A   1     -19.101  -4.716  -6.684  1.00  0.00     0.092 N 
ATOM     52  H1  ILE A   1     -18.517  -4.981  -5.885  1.00  0.00     0.313 HD
ATOM     53  H2  ILE A   1     -18.736  -3.739  -6.776  1.00  0.00     0.313 HD
ENDBRANCH  46  51
ENDBRANCH  43  46
ENDBRANCH  41  42
BRANCH  41  54
ATOM     54  CB  GLN A   2     -20.550  -8.658  -4.287  1.00  0.00     0.044 C 
BRANCH  54  55
ATOM     55  CG  GLN A   2     -21.057  -9.897  -4.979  1.00  0.00     0.105 C 
BRANCH  55  56
ATOM     56  CD  GLN A   2     -21.176 -11.025  -4.006  1.00  0.00     0.215 C 
ATOM     57  OE1 GLN A   2     -21.585 -10.854  -2.862  1.00  0.00    -0.274 OA
ATOM     58  NE2 GLN A   2     -20.876 -12.244  -4.515  1.00  0.00    -0.370 N 
ATOM     59 1HE2 GLN A   2     -20.751 -12.405  -5.503  1.00  0.00     0.159 HD
ATOM     60 2HE2 GLN A   2     -21.016 -13.058  -3.918  1.00  0.00     0.159 HD
ENDBRANCH  55  56
ENDBRANCH  54  55
ENDBRANCH  41  54
ENDBRANCH  38  41
ENDBRANCH  35  37
ENDBRANCH   1  35
TORSDOF 24
ENDMDL
MODEL 7
REMARK VINA RESULT:      -5.8     14.251     18.970
REMARK  24 active torsions:
REMARK  status: ('A' for Active; 'I' for Inactive)
REMARK    1  A    between atoms: CG1_2  and  CB_3 
REMARK    2  A    between atoms: CB_3  and  CA_5 
REMARK    3  A    between atoms: CA_5  and  C_6 
REMARK    4  A    between atoms: CA_5  and  N_8 
REMARK       I    between atoms: C_6  and  N_11 
REMARK    5  A    between atoms: N_11  and  CA_12 
REMARK    6  A    between atoms: CA_12  and  CB_13 
REMARK    7  A    between atoms: CA_12  and  C_18 
REMARK    8  A    between atoms: CB_13  and  CG_14 
REMARK    9  A    between atoms: CG_14  and  CD_15 
REMARK       I    between atoms: CD_15  and  NE2_17 
REMARK       I    between atoms: C_18  and  N_23 
REMARK   10  A    between atoms: N_23  and  CA_24 
REMARK   11  A    between atoms: CA_24  and  C_26 
REMARK       I    between atoms: C_26  and  N_29 
REMARK   12  A    between atoms: N_29  and  CA_30 
REMARK   13  A    between atoms: CA_30  and  CB_31 
REMARK   14  A    between atoms: CA_30  and  C_33 
REMARK   15  A    between atoms: CB_31  and  SG_32 
REMARK       I    between atoms: C_33  and  N_37 
REMARK   16  A    between atoms: N_37  and  CA_38 
REMARK   17  A    between atoms: CA_38  and  CB_39 
REMARK   18  A    between atoms: CA_38  and  C_47 
REMARK   19  A    between atoms: CB_39  and  CG_40 
REMARK   20  A    between atoms: CG_40  and  CD_41 
REMARK   21  A    between atoms: CD_41  and  NE_42 
REMARK       I    between atoms: NE_42  and  CZ_44 
REMARK       I    between atoms: CZ_44  and  NH2_46 
REMARK       I    between atoms: C_47  and  N_54 
REMARK   22  A    between atoms: N_54  and  CA_55 
REMARK   23  A    between atoms: CA_55  and  C_56 
REMARK   24  A    between atoms: C_56  and  OXT_58 
ROOT
ATOM      1  C   ALA A   3     -31.118  -5.514 -16.509  1.00  0.00     0.240 C 
ATOM      2  O   ALA A   3     -30.221  -5.260 -15.710  1.00  0.00    -0.271 OA
ATOM      3  N   CYS A   4     -30.993  -6.475 -17.482  1.00  0.00    -0.345 N 
ATOM      4  H   CYS A   4     -31.773  -6.564 -18.134  1.00  0.00     0.163 HD
ENDROOT
BRANCH   3   5
ATOM      5  CA  CYS A   4     -29.819  -7.270 -17.789  1.00  0.00     0.185 C 
BRANCH   5   6
ATOM      6  CB  CYS A   4     -30.029  -8.024 -19.137  1.00  0.00     0.105 C 
BRANCH   6   7
ATOM      7  SG  CYS A   4     -28.515  -8.559 -20.025  1.00  0.00    -0.180 SA
ATOM      8  HG  CYS A   4     -28.362  -9.740 -19.410  1.00  0.00     0.101 HD
ENDBRANCH   6   7
ENDBRANCH   5   6
BRANCH   5   9
ATOM      9  C   CYS A   4     -28.433  -6.475 -17.888  1.00  0.00     0.241 C 
ATOM     10  O   CYS A   4     -28.389  -5.531 -18.685  1.00  0.00    -0.271 OA
ATOM     11  N   ARG A   5     -27.283  -6.917 -17.216  1.00  0.00    -0.346 N 
ATOM     12  H   ARG A   5     -27.426  -7.632 -16.512  1.00  0.00     0.163 HD
BRANCH  11  13
ATOM     13  CA  ARG A   5     -25.810  -6.351 -17.316  1.00  0.00     0.176 C 
BRANCH  13  14
ATOM     14  CB  ARG A   5     -25.044  -6.722 -16.042  1.00  0.00     0.036 C 
BRANCH  14  15
ATOM     15  CG  ARG A   5     -25.328  -5.812 -14.880  1.00  0.00     0.022 C 
BRANCH  15  16
ATOM     16  CD  ARG A   5     -24.287  -4.728 -14.662  1.00  0.00     0.122 C 
BRANCH  16  17
ATOM     17  NE  ARG A   5     -24.351  -4.471 -13.230  1.00  0.00    -0.367 N 
ATOM     18  CZ  ARG A   5     -24.240  -3.285 -12.804  1.00  0.00     0.143 C 
ATOM     19  NH1 ARG A   5     -24.032  -2.143 -13.495  1.00  0.00    -0.376 N 
ATOM     20  NH2 ARG A   5     -24.366  -3.083 -11.463  1.00  0.00    -0.274 NA
ATOM     21 HH11 ARG A   5     -23.749  -2.262 -14.460  1.00  0.00     0.158 HD
ATOM     22 HH12 ARG A   5     -23.571  -1.373 -13.034  1.00  0.00     0.158 HD
ATOM     23 HH21 ARG A   5     -24.459  -3.973 -10.993  1.00  0.00     0.127 HD
ATOM     24 HH22 ARG A   5     -23.686  -2.468 -11.020  1.00  0.00     0.127 HD
ATOM     25  HE  ARG A   5     -24.484  -5.242 -12.575  1.00  0.00     0.162 HD
ENDBRANCH  16  17
ENDBRANCH  15  16
ENDBRANCH  14  15
ENDBRANCH  13  14
BRANCH  13  26
ATOM     26  C   ARG A   5     -25.086  -6.715 -18.772  1.00  0.00     0.240 C 
ATOM     27  O   ARG A   5     -25.767  -6.453 -19.768  1.00  0.00    -0.271 OA
ATOM     28  N   GLY A   6     -23.793  -7.235 -18.993  1.00  0.00    -0.349 N 
ATOM     29  H   GLY A   6     -23.197  -7.265 -18.180  1.00  0.00     0.163 HD
BRANCH  28  30
ATOM     30  CA  GLY A   6     -23.112  -8.150 -20.158  1.00  0.00     0.232 C 
BRANCH  30  31
ATOM     31  C   GLY A   6     -23.468  -8.424 -21.721  1.00  0.00     0.158 C 
ATOM     32  O   GLY A   6     -22.649  -8.529 -22.626  1.00  0.00    -0.649 OA
BRANCH  31  33
ATOM     33  OXT GLY A   6     -24.810  -8.486 -22.028  1.00  0.00    -0.775 OA
ATOM     34  HXT GLY A   6     -25.417  -8.126 -21.344  1.00  0.00     0.167 HD
ENDBRANCH  31  33
ENDBRANCH  30  31
ENDBRANCH  28  30
ENDBRANCH  13  26
ENDBRANCH  11  13
ENDBRANCH   5   9
ENDBRANCH   3   5
BRANCH   1  35
ATOM     35  CA  ALA A   3     -32.486  -4.760 -16.494  1.00  0.00     0.172 C 
ATOM     36  CB  ALA A   3     -32.616  -3.699 -17.589  1.00  0.00     0.042 C 
BRANCH  35  37
ATOM     37  N   ALA A   3     -32.804  -4.203 -15.170  1.00  0.00    -0.346 N 
ATOM     38  C   GLN A   2     -33.955  -4.508 -14.489  1.00  0.00     0.241 C 
ATOM     39  O   GLN A   2     -34.900  -5.082 -15.038  1.00  0.00    -0.271 OA
ATOM     40  H   ALA A   3     -32.066  -3.676 -14.698  1.00  0.00     0.163 HD
BRANCH  38  41
ATOM     41  CA  GLN A   2     -34.083  -4.057 -13.034  1.00  0.00     0.177 C 
BRANCH  41  42
ATOM     42  N   GLN A   2     -34.697  -2.730 -13.127  1.00  0.00    -0.346 N 
ATOM     43  C   ILE A   1     -34.741  -1.722 -12.205  1.00  0.00     0.251 C 
ATOM     44  O   ILE A   1     -34.170  -1.679 -11.129  1.00  0.00    -0.271 OA
ATOM     45  H   GLN A   2     -35.529  -2.794 -13.716  1.00  0.00     0.163 HD
BRANCH  43  46
ATOM     46  CA  ILE A   1     -35.557  -0.487 -12.713  1.00  0.00     0.312 C 
BRANCH  46  47
ATOM     47  CB  ILE A   1     -35.023   0.204 -13.959  1.00  0.00     0.023 C 
ATOM     48  CG2 ILE A   1     -34.608   1.677 -13.744  1.00  0.00     0.012 C 
BRANCH  47  49
ATOM     49  CG1 ILE A   1     -36.149   0.060 -14.967  1.00  0.00     0.002 C 
ATOM     50  CD1 ILE A   1     -35.805  -0.804 -16.146  1.00  0.00     0.005 C 
ENDBRANCH  47  49
ENDBRANCH  46  47
BRANCH  46  51
ATOM     51  N   ILE A   1     -35.474   0.404 -11.592  1.00  0.00     0.092 N 
ATOM     52  H1  ILE A   1     -36.449   0.614 -11.352  1.00  0.00     0.313 HD
ATOM     53  H2  ILE A   1     -35.243   1.348 -11.980  1.00  0.00     0.313 HD
ENDBRANCH  46  51
ENDBRANCH  43  46
ENDBRANCH  41  42
BRANCH  41  54
ATOM     54  CB  GLN A   2     -34.898  -4.921 -12.099  1.00  0.00     0.044 C 
BRANCH  54  55
ATOM     55  CG  GLN A   2     -34.235  -5.342 -10.813  1.00  0.00     0.105 C 
BRANCH  55  56
ATOM     56  CD  GLN A   2     -34.669  -6.720 -10.429  1.00  0.00     0.215 C 
ATOM     57  OE1 GLN A   2     -34.722  -7.080  -9.258  1.00  0.00    -0.274 OA
ATOM     58  NE2 GLN A   2     -35.067  -7.495 -11.466  1.00  0.00    -0.370 N 
ATOM     59 1HE2 GLN A   2     -35.225  -7.126 -12.392  1.00  0.00     0.159 HD
ATOM     60 2HE2 GLN A   2     -35.448  -8.417 -11.254  1.00  0.00     0.159 HD
ENDBRANCH  55  56
ENDBRANCH  54  55
ENDBRANCH  41  54
ENDBRANCH  38  41
ENDBRANCH  35  37
ENDBRANCH   1  35
TORSDOF 24
ENDMDL
MODEL 8
REMARK VINA RESULT:      -5.8      1.474      3.780
REMARK  24 active torsions:
REMARK  status: ('A' for Active; 'I' for Inactive)
REMARK    1  A    between atoms: CG1_2  and  CB_3 
REMARK    2  A    between atoms: CB_3  and  CA_5 
REMARK    3  A    between atoms: CA_5  and  C_6 
REMARK    4  A    between atoms: CA_5  and  N_8 
REMARK       I    between atoms: C_6  and  N_11 
REMARK    5  A    between atoms: N_11  and  CA_12 
REMARK    6  A    between atoms: CA_12  and  CB_13 
REMARK    7  A    between atoms: CA_12  and  C_18 
REMARK    8  A    between atoms: CB_13  and  CG_14 
REMARK    9  A    between atoms: CG_14  and  CD_15 
REMARK       I    between atoms: CD_15  and  NE2_17 
REMARK       I    between atoms: C_18  and  N_23 
REMARK   10  A    between atoms: N_23  and  CA_24 
REMARK   11  A    between atoms: CA_24  and  C_26 
REMARK       I    between atoms: C_26  and  N_29 
REMARK   12  A    between atoms: N_29  and  CA_30 
REMARK   13  A    between atoms: CA_30  and  CB_31 
REMARK   14  A    between atoms: CA_30  and  C_33 
REMARK   15  A    between atoms: CB_31  and  SG_32 
REMARK       I    between atoms: C_33  and  N_37 
REMARK   16  A    between atoms: N_37  and  CA_38 
REMARK   17  A    between atoms: CA_38  and  CB_39 
REMARK   18  A    between atoms: CA_38  and  C_47 
REMARK   19  A    between atoms: CB_39  and  CG_40 
REMARK   20  A    between atoms: CG_40  and  CD_41 
REMARK   21  A    between atoms: CD_41  and  NE_42 
REMARK       I    between atoms: NE_42  and  CZ_44 
REMARK       I    between atoms: CZ_44  and  NH2_46 
REMARK       I    between atoms: C_47  and  N_54 
REMARK   22  A    between atoms: N_54  and  CA_55 
REMARK   23  A    between atoms: CA_55  and  C_56 
REMARK   24  A    between atoms: C_56  and  OXT_58 
ROOT
ATOM      1  C   ALA A   3     -17.905 -10.246  -5.785  1.00  0.00     0.240 C 
ATOM      2  O   ALA A   3     -18.079  -9.210  -6.422  1.00  0.00    -0.271 OA
ATOM      3  N   CYS A   4     -18.931 -11.099  -5.464  1.00  0.00    -0.345 N 
ATOM      4  H   CYS A   4     -18.689 -11.899  -4.879  1.00  0.00     0.163 HD
ENDROOT
BRANCH   3   5
ATOM      5  CA  CYS A   4     -20.346 -10.913  -5.727  1.00  0.00     0.185 C 
BRANCH   5   6
ATOM      6  CB  CYS A   4     -21.110 -12.249  -5.474  1.00  0.00     0.105 C 
BRANCH   6   7
ATOM      7  SG  CYS A   4     -20.105 -13.676  -4.908  1.00  0.00    -0.180 SA
ATOM      8  HG  CYS A   4     -19.205 -13.657  -5.901  1.00  0.00     0.101 HD
ENDBRANCH   6   7
ENDBRANCH   5   6
BRANCH   5   9
ATOM      9  C   CYS A   4     -21.077  -9.768  -4.881  1.00  0.00     0.241 C 
ATOM     10  O   CYS A   4     -21.759 -10.136  -3.918  1.00  0.00    -0.271 OA
ATOM     11  N   ARG A   5     -21.067  -8.427  -5.297  1.00  0.00    -0.346 N 
ATOM     12  H   ARG A   5     -20.410  -8.195  -6.034  1.00  0.00     0.163 HD
BRANCH  11  13
ATOM     13  CA  ARG A   5     -21.849  -7.201  -4.678  1.00  0.00     0.176 C 
BRANCH  13  14
ATOM     14  CB  ARG A   5     -21.144  -6.755  -3.393  1.00  0.00     0.036 C 
BRANCH  14  15
ATOM     15  CG  ARG A   5     -22.070  -6.162  -2.370  1.00  0.00     0.022 C 
BRANCH  15  16
ATOM     16  CD  ARG A   5     -22.090  -6.896  -1.041  1.00  0.00     0.122 C 
BRANCH  16  17
ATOM     17  NE  ARG A   5     -22.252  -8.293  -1.419  1.00  0.00    -0.367 N 
ATOM     18  CZ  ARG A   5     -22.130  -9.195  -0.541  1.00  0.00     0.143 C 
ATOM     19  NH1 ARG A   5     -21.830  -9.078   0.771  1.00  0.00    -0.376 N 
ATOM     20  NH2 ARG A   5     -22.350 -10.483  -0.926  1.00  0.00    -0.274 NA
ATOM     21 HH11 ARG A   5     -21.480  -8.172   1.060  1.00  0.00     0.158 HD
ATOM     22 HH12 ARG A   5     -21.378  -9.850   1.237  1.00  0.00     0.158 HD
ATOM     23 HH21 ARG A   5     -22.509 -10.517  -1.924  1.00  0.00     0.127 HD
ATOM     24 HH22 ARG A   5     -21.683 -11.183  -0.606  1.00  0.00     0.127 HD
ATOM     25  HE  ARG A   5     -22.461  -8.542  -2.386  1.00  0.00     0.162 HD
ENDBRANCH  16  17
ENDBRANCH  15  16
ENDBRANCH  14  15
ENDBRANCH  13  14
BRANCH  13  26
ATOM     26  C   ARG A   5     -22.186  -6.025  -5.809  1.00  0.00     0.240 C 
ATOM     27  O   ARG A   5     -23.304  -5.510  -5.701  1.00  0.00    -0.271 OA
ATOM     28  N   GLY A   6     -21.342  -5.529  -6.825  1.00  0.00    -0.349 N 
ATOM     29  H   GLY A   6     -20.382  -5.833  -6.773  1.00  0.00     0.163 HD
BRANCH  28  30
ATOM     30  CA  GLY A   6     -21.589  -4.868  -8.295  1.00  0.00     0.232 C 
BRANCH  30  31
ATOM     31  C   GLY A   6     -22.910  -4.338  -9.080  1.00  0.00     0.158 C 
ATOM     32  O   GLY A   6     -23.040  -4.291 -10.298  1.00  0.00    -0.649 OA
BRANCH  31  33
ATOM     33  OXT GLY A   6     -23.928  -3.860  -8.284  1.00  0.00    -0.775 OA
ATOM     34  HXT GLY A   6     -24.753  -4.393  -8.286  1.00  0.00     0.167 HD
ENDBRANCH  31  33
ENDBRANCH  30  31
ENDBRANCH  28  30
ENDBRANCH  13  26
ENDBRANCH  11  13
ENDBRANCH   5   9
ENDBRANCH   3   5
BRANCH   1  35
ATOM     35  CA  ALA A   3     -16.495 -10.684  -5.277  1.00  0.00     0.172 C 
ATOM     36  CB  ALA A   3     -15.552 -11.139  -6.392  1.00  0.00     0.042 C 
BRANCH  35  37
ATOM     37  N   ALA A   3     -16.572 -11.685  -4.201  1.00  0.00    -0.346 N 
ATOM     38  C   GLN A   2     -16.196 -11.420  -2.908  1.00  0.00     0.241 C 
ATOM     39  O   GLN A   2     -15.555 -10.407  -2.614  1.00  0.00    -0.271 OA
ATOM     40  H   ALA A   3     -17.052 -12.561  -4.415  1.00  0.00     0.163 HD
BRANCH  38  41
ATOM     41  CA  GLN A   2     -16.526 -12.450  -1.828  1.00  0.00     0.177 C 
BRANCH  41  42
ATOM     42  N   GLN A   2     -15.288 -13.219  -1.681  1.00  0.00    -0.346 N 
ATOM     43  C   ILE A   1     -15.108 -14.525  -1.320  1.00  0.00     0.251 C 
ATOM     44  O   ILE A   1     -15.971 -15.368  -1.145  1.00  0.00    -0.271 OA
ATOM     45  H   GLN A   2     -14.548 -12.592  -1.361  1.00  0.00     0.163 HD
BRANCH  43  46
ATOM     46  CA  ILE A   1     -13.595 -14.917  -1.237  1.00  0.00     0.312 C 
BRANCH  46  47
ATOM     47  CB  ILE A   1     -12.952 -14.818   0.138  1.00  0.00     0.023 C 
ATOM     48  CG2 ILE A   1     -13.662 -13.846   1.108  1.00  0.00     0.012 C 
BRANCH  47  49
ATOM     49  CG1 ILE A   1     -11.523 -14.399  -0.157  1.00  0.00     0.002 C 
ATOM     50  CD1 ILE A   1     -10.838 -13.714   0.990  1.00  0.00     0.005 C 
ENDBRANCH  47  49
ENDBRANCH  46  47
BRANCH  46  51
ATOM     51  N   ILE A   1     -12.994 -13.962  -2.123  1.00  0.00     0.092 N 
ATOM     52  H1  ILE A   1     -12.720 -13.181  -1.518  1.00  0.00     0.313 HD
ATOM     53  H2  ILE A   1     -13.781 -13.467  -2.604  1.00  0.00     0.313 HD
ENDBRANCH  46  51
ENDBRANCH  43  46
ENDBRANCH  41  42
BRANCH  41  54
ATOM     54  CB  GLN A   2     -16.959 -11.935  -0.474  1.00  0.00     0.044 C 
BRANCH  54  55
ATOM     55  CG  GLN A   2     -18.020 -12.727   0.245  1.00  0.00     0.105 C 
BRANCH  55  56
ATOM     56  CD  GLN A   2     -19.365 -12.111   0.032  1.00  0.00     0.215 C 
ATOM     57  OE1 GLN A   2     -19.786 -11.208   0.748  1.00  0.00    -0.274 OA
ATOM     58  NE2 GLN A   2     -20.032 -12.574  -1.053  1.00  0.00    -0.370 N 
ATOM     59 1HE2 GLN A   2     -19.595 -13.153  -1.754  1.00  0.00     0.159 HD
ATOM     60 2HE2 GLN A   2     -20.919 -12.132  -1.292  1.00  0.00     0.159 HD
ENDBRANCH  55  56
ENDBRANCH  54  55
ENDBRANCH  41  54
ENDBRANCH  38  41
ENDBRANCH  35  37
ENDBRANCH   1  35
TORSDOF 24
ENDMDL
MODEL 9
REMARK VINA RESULT:      -5.7      2.498      5.195
REMARK  24 active torsions:
REMARK  status: ('A' for Active; 'I' for Inactive)
REMARK    1  A    between atoms: CG1_2  and  CB_3 
REMARK    2  A    between atoms: CB_3  and  CA_5 
REMARK    3  A    between atoms: CA_5  and  C_6 
REMARK    4  A    between atoms: CA_5  and  N_8 
REMARK       I    between atoms: C_6  and  N_11 
REMARK    5  A    between atoms: N_11  and  CA_12 
REMARK    6  A    between atoms: CA_12  and  CB_13 
REMARK    7  A    between atoms: CA_12  and  C_18 
REMARK    8  A    between atoms: CB_13  and  CG_14 
REMARK    9  A    between atoms: CG_14  and  CD_15 
REMARK       I    between atoms: CD_15  and  NE2_17 
REMARK       I    between atoms: C_18  and  N_23 
REMARK   10  A    between atoms: N_23  and  CA_24 
REMARK   11  A    between atoms: CA_24  and  C_26 
REMARK       I    between atoms: C_26  and  N_29 
REMARK   12  A    between atoms: N_29  and  CA_30 
REMARK   13  A    between atoms: CA_30  and  CB_31 
REMARK   14  A    between atoms: CA_30  and  C_33 
REMARK   15  A    between atoms: CB_31  and  SG_32 
REMARK       I    between atoms: C_33  and  N_37 
REMARK   16  A    between atoms: N_37  and  CA_38 
REMARK   17  A    between atoms: CA_38  and  CB_39 
REMARK   18  A    between atoms: CA_38  and  C_47 
REMARK   19  A    between atoms: CB_39  and  CG_40 
REMARK   20  A    between atoms: CG_40  and  CD_41 
REMARK   21  A    between atoms: CD_41  and  NE_42 
REMARK       I    between atoms: NE_42  and  CZ_44 
REMARK       I    between atoms: CZ_44  and  NH2_46 
REMARK       I    between atoms: C_47  and  N_54 
REMARK   22  A    between atoms: N_54  and  CA_55 
REMARK   23  A    between atoms: CA_55  and  C_56 
REMARK   24  A    between atoms: C_56  and  OXT_58 
ROOT
ATOM      1  C   ALA A   3     -15.785 -10.950  -4.805  1.00  0.00     0.240 C 
ATOM      2  O   ALA A   3     -15.215  -9.965  -5.267  1.00  0.00    -0.271 OA
ATOM      3  N   CYS A   4     -17.106 -11.225  -5.051  1.00  0.00    -0.345 N 
ATOM      4  H   CYS A   4     -17.499 -12.034  -4.568  1.00  0.00     0.163 HD
ENDROOT
BRANCH   3   5
ATOM      5  CA  CYS A   4     -18.052 -10.412  -5.793  1.00  0.00     0.185 C 
BRANCH   5   6
ATOM      6  CB  CYS A   4     -19.234 -11.299  -6.292  1.00  0.00     0.105 C 
BRANCH   6   7
ATOM      7  SG  CYS A   4     -18.902 -12.367  -7.746  1.00  0.00    -0.180 SA
ATOM      8  HG  CYS A   4     -19.573 -11.641  -8.651  1.00  0.00     0.101 HD
ENDBRANCH   6   7
ENDBRANCH   5   6
BRANCH   5   9
ATOM      9  C   CYS A   4     -18.678  -9.165  -5.010  1.00  0.00     0.241 C 
ATOM     10  O   CYS A   4     -18.403  -9.066  -3.809  1.00  0.00    -0.271 OA
ATOM     11  N   ARG A   5     -19.611  -8.309  -5.617  1.00  0.00    -0.346 N 
ATOM     12  H   ARG A   5     -19.707  -8.398  -6.622  1.00  0.00     0.163 HD
BRANCH  11  13
ATOM     13  CA  ARG A   5     -20.436  -7.132  -4.960  1.00  0.00     0.176 C 
BRANCH  13  14
ATOM     14  CB  ARG A   5     -21.241  -6.416  -6.049  1.00  0.00     0.036 C 
BRANCH  14  15
ATOM     15  CG  ARG A   5     -20.501  -5.283  -6.702  1.00  0.00     0.022 C 
BRANCH  15  16
ATOM     16  CD  ARG A   5     -21.388  -4.152  -7.191  1.00  0.00     0.122 C 
BRANCH  16  17
ATOM     17  NE  ARG A   5     -21.744  -4.552  -8.544  1.00  0.00    -0.367 N 
ATOM     18  CZ  ARG A   5     -22.936  -4.408  -8.944  1.00  0.00     0.143 C 
ATOM     19  NH1 ARG A   5     -24.012  -3.939  -8.277  1.00  0.00    -0.376 N 
ATOM     20  NH2 ARG A   5     -23.211  -4.738 -10.237  1.00  0.00    -0.274 NA
ATOM     21 HH11 ARG A   5     -23.902  -3.857  -7.273  1.00  0.00     0.158 HD
ATOM     22 HH12 ARG A   5     -24.931  -4.249  -8.556  1.00  0.00     0.158 HD
ATOM     23 HH21 ARG A   5     -22.389  -5.138 -10.668  1.00  0.00     0.127 HD
ATOM     24 HH22 ARG A   5     -24.054  -5.283 -10.407  1.00  0.00     0.127 HD
ATOM     25  HE  ARG A   5     -21.038  -4.947  -9.166  1.00  0.00     0.162 HD
ENDBRANCH  16  17
ENDBRANCH  15  16
ENDBRANCH  14  15
ENDBRANCH  13  14
BRANCH  13  26
ATOM     26  C   ARG A   5     -21.264  -7.618  -3.597  1.00  0.00     0.240 C 
ATOM     27  O   ARG A   5     -21.957  -8.629  -3.747  1.00  0.00    -0.271 OA
ATOM     28  N   GLY A   6     -21.228  -7.045  -2.309  1.00  0.00    -0.349 N 
ATOM     29  H   GLY A   6     -20.519  -6.341  -2.170  1.00  0.00     0.163 HD
BRANCH  28  30
ATOM     30  CA  GLY A   6     -22.279  -6.961  -1.065  1.00  0.00     0.232 C 
BRANCH  30  31
ATOM     31  C   GLY A   6     -22.508  -7.854   0.274  1.00  0.00     0.158 C 
ATOM     32  O   GLY A   6     -21.635  -8.168   1.074  1.00  0.00    -0.649 OA
BRANCH  31  33
ATOM     33  OXT GLY A   6     -23.789  -8.326   0.468  1.00  0.00    -0.775 OA
ATOM     34  HXT GLY A   6     -24.488  -7.638   0.529  1.00  0.00     0.167 HD
ENDBRANCH  31  33
ENDBRANCH  30  31
ENDBRANCH  28  30
ENDBRANCH  13  26
ENDBRANCH  11  13
ENDBRANCH   5   9
ENDBRANCH   3   5
BRANCH   1  35
ATOM     35  CA  ALA A   3     -15.053 -11.979  -3.886  1.00  0.00     0.172 C 
ATOM     36  CB  ALA A   3     -13.939 -12.754  -4.593  1.00  0.00     0.042 C 
BRANCH  35  37
ATOM     37  N   ALA A   3     -15.989 -12.889  -3.206  1.00  0.00    -0.346 N 
ATOM     38  C   GLN A   2     -16.464 -12.660  -1.940  1.00  0.00     0.241 C 
ATOM     39  O   GLN A   2     -15.962 -11.807  -1.203  1.00  0.00    -0.271 OA
ATOM     40  H   ALA A   3     -16.392 -13.643  -3.765  1.00  0.00     0.163 HD
BRANCH  38  41
ATOM     41  CA  GLN A   2     -17.599 -13.542  -1.417  1.00  0.00     0.177 C 
BRANCH  41  42
ATOM     42  N   GLN A   2     -18.757 -12.646  -1.384  1.00  0.00    -0.346 N 
ATOM     43  C   ILE A   1     -19.231 -11.869  -0.364  1.00  0.00     0.251 C 
ATOM     44  O   ILE A   1     -18.709 -11.676   0.721  1.00  0.00    -0.271 OA
ATOM     45  H   GLN A   2     -19.484 -13.028  -1.991  1.00  0.00     0.163 HD
BRANCH  43  46
ATOM     46  CA  ILE A   1     -20.540 -11.107  -0.756  1.00  0.00     0.312 C 
BRANCH  46  47
ATOM     47  CB  ILE A   1     -21.811 -11.942  -0.808  1.00  0.00     0.023 C 
ATOM     48  CG2 ILE A   1     -22.867 -11.435  -1.817  1.00  0.00     0.012 C 
BRANCH  47  49
ATOM     49  CG1 ILE A   1     -22.320 -11.922   0.622  1.00  0.00     0.002 C 
ATOM     50  CD1 ILE A   1     -22.778 -13.259   1.125  1.00  0.00     0.005 C 
ENDBRANCH  47  49
ENDBRANCH  46  47
BRANCH  46  51
ATOM     51  N   ILE A   1     -20.221 -10.627  -2.069  1.00  0.00     0.092 N 
ATOM     52  H1  ILE A   1     -19.625 -11.355  -2.475  1.00  0.00     0.313 HD
ATOM     53  H2  ILE A   1     -19.466  -9.912  -1.948  1.00  0.00     0.313 HD
ENDBRANCH  46  51
ENDBRANCH  43  46
ENDBRANCH  41  42
BRANCH  41  54
ATOM     54  CB  GLN A   2     -17.947 -14.783  -2.209  1.00  0.00     0.044 C 
BRANCH  54  55
ATOM     55  CG  GLN A   2     -19.246 -14.758  -2.971  1.00  0.00     0.105 C 
BRANCH  55  56
ATOM     56  CD  GLN A   2     -18.988 -14.586  -4.433  1.00  0.00     0.215 C 
ATOM     57  OE1 GLN A   2     -17.881 -14.282  -4.865  1.00  0.00    -0.274 OA
ATOM     58  NE2 GLN A   2     -20.047 -14.869  -5.230  1.00  0.00    -0.370 N 
ATOM     59 1HE2 GLN A   2     -20.880 -15.322  -4.887  1.00  0.00     0.159 HD
ATOM     60 2HE2 GLN A   2     -19.904 -14.845  -6.240  1.00  0.00     0.159 HD
ENDBRANCH  55  56
ENDBRANCH  54  55
ENDBRANCH  41  54
ENDBRANCH  38  41
ENDBRANCH  35  37
ENDBRANCH   1  35
TORSDOF 24
ENDMDL
