MODEL 1
REMARK VINA RESULT:      -7.0      0.000      0.000
REMARK  5 active torsions:
REMARK  status: ('A' for Active; 'I' for Inactive)
REMARK    1  A    between atoms: C_2  and  C_3 
REMARK    2  A    between atoms: C_3  and  C_4 
REMARK    3  A    between atoms: C_4  and  C_5 
REMARK    4  A    between atoms: C_5  and  C_6 
REMARK    5  A    between atoms: C_6  and  N_7 
REMARK       I    between atoms: N_7  and  C_9 
REMARK       I    between atoms: C_9  and  N_10 
REMARK       I    between atoms: C_9  and  N_11 
REMARK       I    between atoms: N_11  and  C_13 
REMARK       I    between atoms: C_13  and  N_14 
ROOT
HETATM    1  N   UNL     1     -23.871  -2.315 -13.438  1.00  0.00    -0.226 N 
ATOM      2  HN  UNL     1     -24.470  -1.498 -13.315  1.00  0.00     0.177 HD
HETATM    3  C   UNL     1     -23.087  -2.436 -14.458  1.00  0.00     0.674 C 
HETATM    4  N   UNL     1     -22.255  -3.488 -14.705  1.00  0.00    -0.235 N 
HETATM    5  N   UNL     1     -23.015  -1.430 -15.385  1.00  0.00    -0.167 N 
ATOM      6  HN  UNL     1     -22.245  -1.444 -16.055  1.00  0.00     0.186 HD
HETATM    7  C   UNL     1     -23.873  -0.464 -15.454  1.00  0.00     0.163 C 
HETATM    8  N   UNL     1     -24.992  -0.263 -14.718  1.00  0.00    -0.274 NA
HETATM    9  N   UNL     1     -23.698   0.522 -16.364  1.00  0.00    -0.376 N 
HETATM   10  H   UNL     1     -21.983  -4.059 -13.919  1.00  0.00     0.174 HD
HETATM   11  H   UNL     1     -21.508  -3.254 -15.342  1.00  0.00     0.174 HD
HETATM   12  H   UNL     1     -24.955  -0.811 -13.850  1.00  0.00     0.127 HD
HETATM   13  H   UNL     1     -25.300   0.687 -14.580  1.00  0.00     0.127 HD
HETATM   14  H   UNL     1     -23.100   0.262 -17.131  1.00  0.00     0.158 HD
HETATM   15  H   UNL     1     -24.506   1.077 -16.625  1.00  0.00     0.158 HD
ENDROOT
BRANCH   1  16
HETATM   16  C   UNL     1     -23.855  -3.413 -12.466  1.00  0.00     0.138 C 
BRANCH  16  17
HETATM   17  C   UNL     1     -22.934  -3.057 -11.308  1.00  0.00     0.020 C 
BRANCH  17  18
HETATM   18  C   UNL     1     -21.792  -4.079 -11.212  1.00  0.00     0.002 C 
BRANCH  18  19
HETATM   19  C   UNL     1     -21.112  -4.054  -9.851  1.00  0.00    -0.000 C 
BRANCH  19  20
HETATM   20  C   UNL     1     -22.141  -4.012  -8.718  1.00  0.00    -0.005 C 
HETATM   21  C   UNL     1     -21.478  -3.682  -7.382  1.00  0.00     0.005 C 
ENDBRANCH  19  20
ENDBRANCH  18  19
ENDBRANCH  17  18
ENDBRANCH  16  17
ENDBRANCH   1  16
TORSDOF 5
ENDMDL
MODEL 2
REMARK VINA RESULT:      -6.4      3.836      5.167
REMARK  5 active torsions:
REMARK  status: ('A' for Active; 'I' for Inactive)
REMARK    1  A    between atoms: C_2  and  C_3 
REMARK    2  A    between atoms: C_3  and  C_4 
REMARK    3  A    between atoms: C_4  and  C_5 
REMARK    4  A    between atoms: C_5  and  C_6 
REMARK    5  A    between atoms: C_6  and  N_7 
REMARK       I    between atoms: N_7  and  C_9 
REMARK       I    between atoms: C_9  and  N_10 
REMARK       I    between atoms: C_9  and  N_11 
REMARK       I    between atoms: N_11  and  C_13 
REMARK       I    between atoms: C_13  and  N_14 
ROOT
HETATM    1  N   UNL     1     -21.770  -4.122  -9.577  1.00  0.00    -0.226 N 
ATOM      2  HN  UNL     1     -22.226  -3.879  -8.697  1.00  0.00     0.177 HD
HETATM    3  C   UNL     1     -22.429  -4.193 -10.686  1.00  0.00     0.674 C 
HETATM    4  N   UNL     1     -21.906  -4.509 -11.906  1.00  0.00    -0.235 N 
HETATM    5  N   UNL     1     -23.766  -3.896 -10.706  1.00  0.00    -0.167 N 
ATOM      6  HN  UNL     1     -24.216  -3.748 -11.609  1.00  0.00     0.186 HD
HETATM    7  C   UNL     1     -24.487  -3.794  -9.636  1.00  0.00     0.163 C 
HETATM    8  N   UNL     1     -24.131  -3.997  -8.345  1.00  0.00    -0.274 NA
HETATM    9  N   UNL     1     -25.789  -3.442  -9.738  1.00  0.00    -0.376 N 
HETATM   10  H   UNL     1     -20.915  -4.375 -12.035  1.00  0.00     0.174 HD
HETATM   11  H   UNL     1     -22.483  -4.195 -12.672  1.00  0.00     0.174 HD
HETATM   12  H   UNL     1     -23.110  -3.950  -8.242  1.00  0.00     0.127 HD
HETATM   13  H   UNL     1     -24.630  -3.485  -7.634  1.00  0.00     0.127 HD
HETATM   14  H   UNL     1     -26.180  -3.603 -10.652  1.00  0.00     0.158 HD
HETATM   15  H   UNL     1     -26.405  -3.671  -8.966  1.00  0.00     0.158 HD
ENDROOT
BRANCH   1  16
HETATM   16  C   UNL     1     -20.334  -4.408  -9.649  1.00  0.00     0.138 C 
BRANCH  16  17
HETATM   17  C   UNL     1     -19.685  -4.104  -8.305  1.00  0.00     0.020 C 
BRANCH  17  18
HETATM   18  C   UNL     1     -20.767  -3.892  -7.236  1.00  0.00     0.002 C 
BRANCH  18  19
HETATM   19  C   UNL     1     -20.576  -4.807  -6.036  1.00  0.00    -0.000 C 
BRANCH  19  20
HETATM   20  C   UNL     1     -20.777  -6.275  -6.421  1.00  0.00    -0.005 C 
HETATM   21  C   UNL     1     -20.363  -7.206  -5.283  1.00  0.00     0.005 C 
ENDBRANCH  19  20
ENDBRANCH  18  19
ENDBRANCH  17  18
ENDBRANCH  16  17
ENDBRANCH   1  16
TORSDOF 5
ENDMDL
MODEL 3
REMARK VINA RESULT:      -6.3      1.844      3.012
REMARK  5 active torsions:
REMARK  status: ('A' for Active; 'I' for Inactive)
REMARK    1  A    between atoms: C_2  and  C_3 
REMARK    2  A    between atoms: C_3  and  C_4 
REMARK    3  A    between atoms: C_4  and  C_5 
REMARK    4  A    between atoms: C_5  and  C_6 
REMARK    5  A    between atoms: C_6  and  N_7 
REMARK       I    between atoms: N_7  and  C_9 
REMARK       I    between atoms: C_9  and  N_10 
REMARK       I    between atoms: C_9  and  N_11 
REMARK       I    between atoms: N_11  and  C_13 
REMARK       I    between atoms: C_13  and  N_14 
ROOT
HETATM    1  N   UNL     1     -22.834  -3.838 -11.003  1.00  0.00    -0.226 N 
ATOM      2  HN  UNL     1     -23.824  -3.616 -11.109  1.00  0.00     0.177 HD
HETATM    3  C   UNL     1     -21.950  -3.421 -11.848  1.00  0.00     0.674 C 
HETATM    4  N   UNL     1     -20.610  -3.668 -11.788  1.00  0.00    -0.235 N 
HETATM    5  N   UNL     1     -22.330  -2.624 -12.895  1.00  0.00    -0.167 N 
ATOM      6  HN  UNL     1     -21.605  -2.133 -13.418  1.00  0.00     0.186 HD
HETATM    7  C   UNL     1     -23.563  -2.461 -13.254  1.00  0.00     0.163 C 
HETATM    8  N   UNL     1     -24.681  -3.041 -12.753  1.00  0.00    -0.274 NA
HETATM    9  N   UNL     1     -23.860  -1.612 -14.264  1.00  0.00    -0.376 N 
HETATM   10  H   UNL     1     -20.223  -3.912 -10.889  1.00  0.00     0.174 HD
HETATM   11  H   UNL     1     -20.067  -3.005 -12.321  1.00  0.00     0.174 HD
HETATM   12  H   UNL     1     -24.499  -3.422 -11.817  1.00  0.00     0.127 HD
HETATM   13  H   UNL     1     -25.546  -2.528 -12.817  1.00  0.00     0.127 HD
HETATM   14  H   UNL     1     -23.080  -1.420 -14.871  1.00  0.00     0.158 HD
HETATM   15  H   UNL     1     -24.749  -1.728 -14.737  1.00  0.00     0.158 HD
ENDROOT
BRANCH   1  16
HETATM   16  C   UNL     1     -22.340  -4.647  -9.883  1.00  0.00     0.138 C 
BRANCH  16  17
HETATM   17  C   UNL     1     -22.860  -4.074  -8.572  1.00  0.00     0.020 C 
BRANCH  17  18
HETATM   18  C   UNL     1     -21.684  -3.718  -7.652  1.00  0.00     0.002 C 
BRANCH  18  19
HETATM   19  C   UNL     1     -20.344  -4.122  -8.250  1.00  0.00    -0.000 C 
BRANCH  19  20
HETATM   20  C   UNL     1     -19.457  -4.809  -7.209  1.00  0.00    -0.005 C 
HETATM   21  C   UNL     1     -20.075  -4.725  -5.814  1.00  0.00     0.005 C 
ENDBRANCH  19  20
ENDBRANCH  18  19
ENDBRANCH  17  18
ENDBRANCH  16  17
ENDBRANCH   1  16
TORSDOF 5
ENDMDL
MODEL 4
REMARK VINA RESULT:      -6.3      2.418      4.238
REMARK  5 active torsions:
REMARK  status: ('A' for Active; 'I' for Inactive)
REMARK    1  A    between atoms: C_2  and  C_3 
REMARK    2  A    between atoms: C_3  and  C_4 
REMARK    3  A    between atoms: C_4  and  C_5 
REMARK    4  A    between atoms: C_5  and  C_6 
REMARK    5  A    between atoms: C_6  and  N_7 
REMARK       I    between atoms: N_7  and  C_9 
REMARK       I    between atoms: C_9  and  N_10 
REMARK       I    between atoms: C_9  and  N_11 
REMARK       I    between atoms: N_11  and  C_13 
REMARK       I    between atoms: C_13  and  N_14 
ROOT
HETATM    1  N   UNL     1     -22.834  -3.864  -9.771  1.00  0.00    -0.226 N 
ATOM      2  HN  UNL     1     -21.941  -3.885 -10.263  1.00  0.00     0.177 HD
HETATM    3  C   UNL     1     -23.945  -3.637 -10.389  1.00  0.00     0.674 C 
HETATM    4  N   UNL     1     -25.182  -3.590  -9.817  1.00  0.00    -0.235 N 
HETATM    5  N   UNL     1     -23.946  -3.459 -11.748  1.00  0.00    -0.167 N 
ATOM      6  HN  UNL     1     -24.838  -3.497 -12.241  1.00  0.00     0.186 HD
HETATM    7  C   UNL     1     -22.872  -3.246 -12.437  1.00  0.00     0.163 C 
HETATM    8  N   UNL     1     -21.595  -3.102 -12.006  1.00  0.00    -0.274 NA
HETATM    9  N   UNL     1     -22.951  -3.137 -13.783  1.00  0.00    -0.376 N 
HETATM   10  H   UNL     1     -25.303  -4.062  -8.934  1.00  0.00     0.174 HD
HETATM   11  H   UNL     1     -25.927  -3.732 -10.482  1.00  0.00     0.174 HD
HETATM   12  H   UNL     1     -21.490  -3.489 -11.060  1.00  0.00     0.127 HD
HETATM   13  H   UNL     1     -20.854  -3.370 -12.634  1.00  0.00     0.127 HD
HETATM   14  H   UNL     1     -23.873  -2.905 -14.115  1.00  0.00     0.158 HD
HETATM   15  H   UNL     1     -22.194  -2.666 -14.268  1.00  0.00     0.158 HD
ENDROOT
BRANCH   1  16
HETATM   16  C   UNL     1     -22.924  -4.092  -8.325  1.00  0.00     0.138 C 
BRANCH  16  17
HETATM   17  C   UNL     1     -21.620  -3.673  -7.661  1.00  0.00     0.020 C 
BRANCH  17  18
HETATM   18  C   UNL     1     -20.471  -4.569  -8.148  1.00  0.00     0.002 C 
BRANCH  18  19
HETATM   19  C   UNL     1     -19.775  -5.285  -6.999  1.00  0.00    -0.000 C 
BRANCH  19  20
HETATM   20  C   UNL     1     -20.245  -4.749  -5.645  1.00  0.00    -0.005 C 
HETATM   21  C   UNL     1     -20.945  -5.837  -4.833  1.00  0.00     0.005 C 
ENDBRANCH  19  20
ENDBRANCH  18  19
ENDBRANCH  17  18
ENDBRANCH  16  17
ENDBRANCH   1  16
TORSDOF 5
ENDMDL
MODEL 5
REMARK VINA RESULT:      -6.2      6.817      9.208
REMARK  5 active torsions:
REMARK  status: ('A' for Active; 'I' for Inactive)
REMARK    1  A    between atoms: C_2  and  C_3 
REMARK    2  A    between atoms: C_3  and  C_4 
REMARK    3  A    between atoms: C_4  and  C_5 
REMARK    4  A    between atoms: C_5  and  C_6 
REMARK    5  A    between atoms: C_6  and  N_7 
REMARK       I    between atoms: N_7  and  C_9 
REMARK       I    between atoms: C_9  and  N_10 
REMARK       I    between atoms: C_9  and  N_11 
REMARK       I    between atoms: N_11  and  C_13 
REMARK       I    between atoms: C_13  and  N_14 
ROOT
HETATM    1  N   UNL     1     -22.185  -5.909  -5.282  1.00  0.00    -0.226 N 
ATOM      2  HN  UNL     1     -23.004  -5.302  -5.247  1.00  0.00     0.177 HD
HETATM    3  C   UNL     1     -21.375  -5.900  -6.287  1.00  0.00     0.674 C 
HETATM    4  N   UNL     1     -20.259  -6.674  -6.421  1.00  0.00    -0.235 N 
HETATM    5  N   UNL     1     -21.583  -5.028  -7.323  1.00  0.00    -0.167 N 
ATOM      6  HN  UNL     1     -20.827  -4.884  -7.994  1.00  0.00     0.186 HD
HETATM    7  C   UNL     1     -22.689  -4.379  -7.494  1.00  0.00     0.163 C 
HETATM    8  N   UNL     1     -23.836  -4.444  -6.777  1.00  0.00    -0.274 NA
HETATM    9  N   UNL     1     -22.794  -3.493  -8.512  1.00  0.00    -0.376 N 
HETATM   10  H   UNL     1     -19.849  -7.046  -5.577  1.00  0.00     0.174 HD
HETATM   11  H   UNL     1     -19.600  -6.298  -7.086  1.00  0.00     0.174 HD
HETATM   12  H   UNL     1     -23.659  -4.856  -5.852  1.00  0.00     0.127 HD
HETATM   13  H   UNL     1     -24.418  -3.621  -6.745  1.00  0.00     0.127 HD
HETATM   14  H   UNL     1     -22.125  -3.645  -9.249  1.00  0.00     0.158 HD
HETATM   15  H   UNL     1     -23.724  -3.240  -8.827  1.00  0.00     0.158 HD
ENDROOT
BRANCH   1  16
HETATM   16  C   UNL     1     -21.866  -6.836  -4.191  1.00  0.00     0.138 C 
BRANCH  16  17
HETATM   17  C   UNL     1     -21.343  -6.056  -2.994  1.00  0.00     0.020 C 
BRANCH  17  18
HETATM   18  C   UNL     1     -22.235  -6.311  -1.770  1.00  0.00     0.002 C 
BRANCH  18  19
HETATM   19  C   UNL     1     -21.824  -7.564  -1.011  1.00  0.00    -0.000 C 
BRANCH  19  20
HETATM   20  C   UNL     1     -22.804  -7.871   0.124  1.00  0.00    -0.005 C 
HETATM   21  C   UNL     1     -23.221  -9.340   0.112  1.00  0.00     0.005 C 
ENDBRANCH  19  20
ENDBRANCH  18  19
ENDBRANCH  17  18
ENDBRANCH  16  17
ENDBRANCH   1  16
TORSDOF 5
ENDMDL
MODEL 6
REMARK VINA RESULT:      -5.6      6.958      9.348
REMARK  5 active torsions:
REMARK  status: ('A' for Active; 'I' for Inactive)
REMARK    1  A    between atoms: C_2  and  C_3 
REMARK    2  A    between atoms: C_3  and  C_4 
REMARK    3  A    between atoms: C_4  and  C_5 
REMARK    4  A    between atoms: C_5  and  C_6 
REMARK    5  A    between atoms: C_6  and  N_7 
REMARK       I    between atoms: N_7  and  C_9 
REMARK       I    between atoms: C_9  and  N_10 
REMARK       I    between atoms: C_9  and  N_11 
REMARK       I    between atoms: N_11  and  C_13 
REMARK       I    between atoms: C_13  and  N_14 
ROOT
HETATM    1  N   UNL     1     -21.948  -5.927  -5.379  1.00  0.00    -0.226 N 
ATOM      2  HN  UNL     1     -22.286  -4.982  -5.559  1.00  0.00     0.177 HD
HETATM    3  C   UNL     1     -21.224  -6.564  -6.238  1.00  0.00     0.674 C 
HETATM    4  N   UNL     1     -20.730  -7.826  -6.086  1.00  0.00    -0.235 N 
HETATM    5  N   UNL     1     -20.855  -5.952  -7.407  1.00  0.00    -0.167 N 
ATOM      6  HN  UNL     1     -20.117  -6.380  -7.966  1.00  0.00     0.186 HD
HETATM    7  C   UNL     1     -21.397  -4.859  -7.838  1.00  0.00     0.163 C 
HETATM    8  N   UNL     1     -22.417  -4.144  -7.305  1.00  0.00    -0.274 NA
HETATM    9  N   UNL     1     -20.937  -4.287  -8.974  1.00  0.00    -0.376 N 
HETATM   10  H   UNL     1     -20.641  -8.180  -5.145  1.00  0.00     0.174 HD
HETATM   11  H   UNL     1     -19.941  -8.013  -6.687  1.00  0.00     0.174 HD
HETATM   12  H   UNL     1     -22.547  -4.387  -6.315  1.00  0.00     0.127 HD
HETATM   13  H   UNL     1     -22.438  -3.152  -7.481  1.00  0.00     0.127 HD
HETATM   14  H   UNL     1     -20.433  -4.924  -9.570  1.00  0.00     0.158 HD
HETATM   15  H   UNL     1     -21.548  -3.641  -9.463  1.00  0.00     0.158 HD
ENDROOT
BRANCH   1  16
HETATM   16  C   UNL     1     -22.259  -6.634  -4.132  1.00  0.00     0.138 C 
BRANCH  16  17
HETATM   17  C   UNL     1     -21.442  -6.041  -2.992  1.00  0.00     0.020 C 
BRANCH  17  18
HETATM   18  C   UNL     1     -22.084  -6.400  -1.644  1.00  0.00     0.002 C 
BRANCH  18  19
HETATM   19  C   UNL     1     -21.558  -7.715  -1.090  1.00  0.00    -0.000 C 
BRANCH  19  20
HETATM   20  C   UNL     1     -21.891  -7.863   0.397  1.00  0.00    -0.005 C 
HETATM   21  C   UNL     1     -23.341  -8.300   0.597  1.00  0.00     0.005 C 
ENDBRANCH  19  20
ENDBRANCH  18  19
ENDBRANCH  17  18
ENDBRANCH  16  17
ENDBRANCH   1  16
TORSDOF 5
ENDMDL
MODEL 7
REMARK VINA RESULT:      -5.5      7.845     10.486
REMARK  5 active torsions:
REMARK  status: ('A' for Active; 'I' for Inactive)
REMARK    1  A    between atoms: C_2  and  C_3 
REMARK    2  A    between atoms: C_3  and  C_4 
REMARK    3  A    between atoms: C_4  and  C_5 
REMARK    4  A    between atoms: C_5  and  C_6 
REMARK    5  A    between atoms: C_6  and  N_7 
REMARK       I    between atoms: N_7  and  C_9 
REMARK       I    between atoms: C_9  and  N_10 
REMARK       I    between atoms: C_9  and  N_11 
REMARK       I    between atoms: N_11  and  C_13 
REMARK       I    between atoms: C_13  and  N_14 
ROOT
HETATM    1  N   UNL     1     -21.899  -6.181  -4.463  1.00  0.00    -0.226 N 
ATOM      2  HN  UNL     1     -22.473  -5.628  -3.826  1.00  0.00     0.177 HD
HETATM    3  C   UNL     1     -21.276  -7.242  -4.069  1.00  0.00     0.674 C 
HETATM    4  N   UNL     1     -20.490  -8.040  -4.846  1.00  0.00    -0.235 N 
HETATM    5  N   UNL     1     -21.414  -7.673  -2.777  1.00  0.00    -0.167 N 
ATOM      6  HN  UNL     1     -21.097  -8.615  -2.544  1.00  0.00     0.186 HD
HETATM    7  C   UNL     1     -21.925  -6.947  -1.835  1.00  0.00     0.163 C 
HETATM    8  N   UNL     1     -22.361  -5.665  -1.888  1.00  0.00    -0.274 NA
HETATM    9  N   UNL     1     -22.077  -7.468  -0.596  1.00  0.00    -0.376 N 
HETATM   10  H   UNL     1     -20.637  -8.008  -5.844  1.00  0.00     0.174 HD
HETATM   11  H   UNL     1     -20.372  -8.966  -4.463  1.00  0.00     0.174 HD
HETATM   12  H   UNL     1     -22.538  -5.386  -2.861  1.00  0.00     0.127 HD
HETATM   13  H   UNL     1     -23.093  -5.391  -1.251  1.00  0.00     0.127 HD
HETATM   14  H   UNL     1     -21.486  -8.263  -0.418  1.00  0.00     0.158 HD
HETATM   15  H   UNL     1     -22.170  -6.824   0.182  1.00  0.00     0.158 HD
ENDROOT
BRANCH   1  16
HETATM   16  C   UNL     1     -21.739  -5.812  -5.873  1.00  0.00     0.138 C 
BRANCH  16  17
HETATM   17  C   UNL     1     -20.700  -4.707  -5.998  1.00  0.00     0.020 C 
BRANCH  17  18
HETATM   18  C   UNL     1     -21.156  -3.673  -7.038  1.00  0.00     0.002 C 
BRANCH  18  19
HETATM   19  C   UNL     1     -21.434  -4.307  -8.393  1.00  0.00    -0.000 C 
BRANCH  19  20
HETATM   20  C   UNL     1     -20.140  -4.521  -9.182  1.00  0.00    -0.005 C 
HETATM   21  C   UNL     1     -20.390  -4.435 -10.686  1.00  0.00     0.005 C 
ENDBRANCH  19  20
ENDBRANCH  18  19
ENDBRANCH  17  18
ENDBRANCH  16  17
ENDBRANCH   1  16
TORSDOF 5
ENDMDL
MODEL 8
REMARK VINA RESULT:      -5.4      5.317      7.842
REMARK  5 active torsions:
REMARK  status: ('A' for Active; 'I' for Inactive)
REMARK    1  A    between atoms: C_2  and  C_3 
REMARK    2  A    between atoms: C_3  and  C_4 
REMARK    3  A    between atoms: C_4  and  C_5 
REMARK    4  A    between atoms: C_5  and  C_6 
REMARK    5  A    between atoms: C_6  and  N_7 
REMARK       I    between atoms: N_7  and  C_9 
REMARK       I    between atoms: C_9  and  N_10 
REMARK       I    between atoms: C_9  and  N_11 
REMARK       I    between atoms: N_11  and  C_13 
REMARK       I    between atoms: C_13  and  N_14 
ROOT
HETATM    1  N   UNL     1     -22.133  -4.804  -7.658  1.00  0.00    -0.226 N 
ATOM      2  HN  UNL     1     -22.760  -5.101  -6.910  1.00  0.00     0.177 HD
HETATM    3  C   UNL     1     -20.958  -5.321  -7.803  1.00  0.00     0.674 C 
HETATM    4  N   UNL     1     -20.054  -4.988  -8.769  1.00  0.00    -0.235 N 
HETATM    5  N   UNL     1     -20.545  -6.325  -6.967  1.00  0.00    -0.167 N 
ATOM      6  HN  UNL     1     -19.718  -6.862  -7.227  1.00  0.00     0.186 HD
HETATM    7  C   UNL     1     -21.153  -6.626  -5.865  1.00  0.00     0.163 C 
HETATM    8  N   UNL     1     -22.225  -6.029  -5.291  1.00  0.00    -0.274 NA
HETATM    9  N   UNL     1     -20.714  -7.668  -5.123  1.00  0.00    -0.376 N 
HETATM   10  H   UNL     1     -20.409  -4.554  -9.608  1.00  0.00     0.174 HD
HETATM   11  H   UNL     1     -19.362  -5.706  -8.921  1.00  0.00     0.174 HD
HETATM   12  H   UNL     1     -22.736  -5.466  -5.983  1.00  0.00     0.127 HD
HETATM   13  H   UNL     1     -22.825  -6.597  -4.713  1.00  0.00     0.127 HD
HETATM   14  H   UNL     1     -19.759  -7.925  -5.313  1.00  0.00     0.158 HD
HETATM   15  H   UNL     1     -20.975  -7.698  -4.143  1.00  0.00     0.158 HD
ENDROOT
BRANCH   1  16
HETATM   16  C   UNL     1     -22.518  -3.769  -8.622  1.00  0.00     0.138 C 
BRANCH  16  17
HETATM   17  C   UNL     1     -23.803  -4.181  -9.327  1.00  0.00     0.020 C 
BRANCH  17  18
HETATM   18  C   UNL     1     -23.492  -4.651 -10.755  1.00  0.00     0.002 C 
BRANCH  18  19
HETATM   19  C   UNL     1     -22.393  -3.824 -11.405  1.00  0.00    -0.000 C 
BRANCH  19  20
HETATM   20  C   UNL     1     -22.972  -2.620 -12.151  1.00  0.00    -0.005 C 
HETATM   21  C   UNL     1     -23.046  -2.885 -13.654  1.00  0.00     0.005 C 
ENDBRANCH  19  20
ENDBRANCH  18  19
ENDBRANCH  17  18
ENDBRANCH  16  17
ENDBRANCH   1  16
TORSDOF 5
ENDMDL
MODEL 9
REMARK VINA RESULT:      -5.3      4.485      6.104
REMARK  5 active torsions:
REMARK  status: ('A' for Active; 'I' for Inactive)
REMARK    1  A    between atoms: C_2  and  C_3 
REMARK    2  A    between atoms: C_3  and  C_4 
REMARK    3  A    between atoms: C_4  and  C_5 
REMARK    4  A    between atoms: C_5  and  C_6 
REMARK    5  A    between atoms: C_6  and  N_7 
REMARK       I    between atoms: N_7  and  C_9 
REMARK       I    between atoms: C_9  and  N_10 
REMARK       I    between atoms: C_9  and  N_11 
REMARK       I    between atoms: N_11  and  C_13 
REMARK       I    between atoms: C_13  and  N_14 
ROOT
HETATM    1  N   UNL     1     -21.456  -3.952  -8.339  1.00  0.00    -0.226 N 
ATOM      2  HN  UNL     1     -22.247  -3.697  -7.747  1.00  0.00     0.177 HD
HETATM    3  C   UNL     1     -21.604  -4.215  -9.594  1.00  0.00     0.674 C 
HETATM    4  N   UNL     1     -20.609  -4.564 -10.460  1.00  0.00    -0.235 N 
HETATM    5  N   UNL     1     -22.842  -4.112 -10.171  1.00  0.00    -0.167 N 
ATOM      6  HN  UNL     1     -22.904  -4.111 -11.190  1.00  0.00     0.186 HD
HETATM    7  C   UNL     1     -23.939  -4.017  -9.490  1.00  0.00     0.163 C 
HETATM    8  N   UNL     1     -24.113  -4.050  -8.147  1.00  0.00    -0.274 NA
HETATM    9  N   UNL     1     -25.117  -3.862 -10.136  1.00  0.00    -0.376 N 
HETATM   10  H   UNL     1     -19.667  -4.303 -10.212  1.00  0.00     0.174 HD
HETATM   11  H   UNL     1     -20.857  -4.404 -11.425  1.00  0.00     0.174 HD
HETATM   12  H   UNL     1     -23.229  -3.851  -7.664  1.00  0.00     0.127 HD
HETATM   13  H   UNL     1     -24.901  -3.552  -7.763  1.00  0.00     0.127 HD
HETATM   14  H   UNL     1     -25.091  -4.159 -11.098  1.00  0.00     0.158 HD
HETATM   15  H   UNL     1     -25.967  -4.105  -9.639  1.00  0.00     0.158 HD
ENDROOT
BRANCH   1  16
HETATM   16  C   UNL     1     -20.092  -4.038  -7.807  1.00  0.00     0.138 C 
BRANCH  16  17
HETATM   17  C   UNL     1     -19.937  -5.320  -7.002  1.00  0.00     0.020 C 
BRANCH  17  18
HETATM   18  C   UNL     1     -20.456  -5.109  -5.573  1.00  0.00     0.002 C 
BRANCH  18  19
HETATM   19  C   UNL     1     -20.535  -6.412  -4.792  1.00  0.00    -0.000 C 
BRANCH  19  20
HETATM   20  C   UNL     1     -20.045  -7.593  -5.634  1.00  0.00    -0.005 C 
HETATM   21  C   UNL     1     -19.557  -8.738  -4.748  1.00  0.00     0.005 C 
ENDBRANCH  19  20
ENDBRANCH  18  19
ENDBRANCH  17  18
ENDBRANCH  16  17
ENDBRANCH   1  16
TORSDOF 5
ENDMDL
