MODEL 1
REMARK VINA RESULT:      -8.2      0.000      0.000
REMARK  17 active torsions:
REMARK  status: ('A' for Active; 'I' for Inactive)
REMARK    1  A    between atoms: CA_3  and  C_6 
REMARK       I    between atoms: N_4  and  C_8 
REMARK       I    between atoms: C_6  and  N_14 
REMARK    2  A    between atoms: C_8  and  CA_10 
REMARK    3  A    between atoms: CA_10  and  N_11 
REMARK    4  A    between atoms: N_14  and  CA_15 
REMARK    5  A    between atoms: CA_15  and  CB_16 
REMARK    6  A    between atoms: CA_15  and  C_21 
REMARK    7  A    between atoms: CB_16  and  CG_17 
REMARK    8  A    between atoms: CG_17  and  CD_18 
REMARK       I    between atoms: CD_18  and  NE2_20 
REMARK       I    between atoms: C_21  and  N_26 
REMARK    9  A    between atoms: N_26  and  CA_27 
REMARK   10  A    between atoms: CA_27  and  C_28 
REMARK       I    between atoms: C_28  and  N_31 
REMARK   11  A    between atoms: CA_35  and  C_36 
REMARK       I    between atoms: C_36  and  N_38 
REMARK   12  A    between atoms: N_38  and  CA_39 
REMARK   13  A    between atoms: CA_39  and  CB_40 
REMARK   14  A    between atoms: CA_39  and  C_45 
REMARK   15  A    between atoms: CB_40  and  CG_41 
REMARK   16  A    between atoms: CG_41  and  CD_42 
REMARK       I    between atoms: CD_42  and  NE2_44 
REMARK   17  A    between atoms: C_45  and  OXT_47 
ROOT
ATOM      1  C   GLN A   3     -21.019  -9.630  -3.595  1.00  0.00     0.240 C 
ATOM      2  O   GLN A   3     -21.148 -10.621  -4.311  1.00  0.00    -0.271 OA
ATOM      3  N   GLY A   4     -21.186  -8.348  -4.089  1.00  0.00    -0.351 N 
ATOM      4  H   GLY A   4     -21.339  -7.588  -3.441  1.00  0.00     0.163 HD
ENDROOT
BRANCH   3   5
ATOM      5  CA  GLY A   4     -21.514  -8.093  -5.480  1.00  0.00     0.225 C 
BRANCH   5   6
ATOM      6  C   GLY A   4     -21.923  -6.617  -5.719  1.00  0.00     0.238 C 
ATOM      7  O   GLY A   4     -22.939  -6.147  -5.194  1.00  0.00    -0.272 OA
ATOM      8  N   PRO A   5     -21.145  -5.834  -6.547  1.00  0.00    -0.337 N 
ATOM      9  CD  PRO A   5     -19.990  -6.242  -7.322  1.00  0.00     0.127 C 
ATOM     10  CA  PRO A   5     -21.366  -4.383  -6.700  1.00  0.00     0.179 C 
ATOM     11  CG  PRO A   5     -19.074  -5.038  -7.267  1.00  0.00     0.022 C 
ATOM     12  CB  PRO A   5     -20.018  -3.843  -7.224  1.00  0.00     0.037 C 
BRANCH  10  13
ATOM     13  C   PRO A   5     -22.512  -4.035  -7.692  1.00  0.00     0.241 C 
ATOM     14  O   PRO A   5     -23.706  -4.118  -7.406  1.00  0.00    -0.271 OA
ATOM     15  N   GLN A   6     -22.120  -3.627  -8.950  1.00  0.00    -0.345 N 
ATOM     16  H   GLN A   6     -21.127  -3.730  -9.172  1.00  0.00     0.163 HD
BRANCH  15  17
ATOM     17  CA  GLN A   6     -23.108  -3.495 -10.036  1.00  0.00     0.182 C 
BRANCH  17  18
ATOM     18  CB  GLN A   6     -22.376  -3.292 -11.357  1.00  0.00     0.045 C 
BRANCH  18  19
ATOM     19  CG  GLN A   6     -23.015  -2.374 -12.395  1.00  0.00     0.105 C 
BRANCH  19  20
ATOM     20  CD  GLN A   6     -23.428  -3.142 -13.637  1.00  0.00     0.215 C 
ATOM     21  OE1 GLN A   6     -24.411  -3.868 -13.705  1.00  0.00    -0.274 OA
ATOM     22  NE2 GLN A   6     -22.594  -2.948 -14.699  1.00  0.00    -0.370 N 
ATOM     23 1HE2 GLN A   6     -21.733  -2.425 -14.639  1.00  0.00     0.159 HD
ATOM     24 2HE2 GLN A   6     -22.800  -3.431 -15.567  1.00  0.00     0.159 HD
ENDBRANCH  19  20
ENDBRANCH  18  19
ENDBRANCH  17  18
BRANCH  17  25
ATOM     25  C   GLN A   6     -24.048  -4.703 -10.064  1.00  0.00     0.163 C 
ATOM     26  O   GLN A   6     -23.752  -5.813 -10.495  1.00  0.00    -0.648 OA
BRANCH  25  27
ATOM     27  OXT GLN A   6     -25.286  -4.438  -9.573  1.00  0.00    -0.775 OA
ATOM     28  HXT GLN A   6     -25.374  -4.550  -8.612  1.00  0.00     0.167 HD
ENDBRANCH  25  27
ENDBRANCH  17  25
ENDBRANCH  15  17
ENDBRANCH  10  13
ENDBRANCH   5   6
ENDBRANCH   3   5
BRANCH   1  29
ATOM     29  CA  GLN A   3     -20.669  -9.719  -2.082  1.00  0.00     0.177 C 
BRANCH  29  30
ATOM     30  N   GLN A   3     -19.451 -10.501  -1.877  1.00  0.00    -0.346 N 
ATOM     31  C   PRO A   2     -19.472 -11.720  -1.245  1.00  0.00     0.241 C 
ATOM     32  O   PRO A   2     -20.536 -12.306  -1.041  1.00  0.00    -0.271 OA
ATOM     33  H   GLN A   3     -18.551 -10.055  -2.077  1.00  0.00     0.163 HD
BRANCH  31  34
ATOM     34  CA  PRO A   2     -18.108 -12.411  -0.980  1.00  0.00     0.179 C 
ATOM     35  CB  PRO A   2     -17.686 -12.028   0.454  1.00  0.00     0.037 C 
ATOM     36  CG  PRO A   2     -16.203 -12.320   0.517  1.00  0.00     0.022 C 
ATOM     37  CD  PRO A   2     -15.718 -12.093  -0.903  1.00  0.00     0.127 C 
ATOM     38  N   PRO A   2     -16.900 -12.070  -1.752  1.00  0.00    -0.337 N 
ATOM     39  C   GLY A   1     -16.803 -12.157  -3.128  1.00  0.00     0.248 C 
ATOM     40  O   GLY A   1     -17.767 -12.442  -3.841  1.00  0.00    -0.271 OA
BRANCH  39  41
ATOM     41  CA  GLY A   1     -15.450 -11.792  -3.768  1.00  0.00     0.369 C 
BRANCH  41  42
ATOM     42  N   GLY A   1     -15.549 -10.503  -4.465  1.00  0.00     0.087 N 
ATOM     43  H1  GLY A   1     -16.534 -10.338  -4.690  1.00  0.00     0.313 HD
ATOM     44  H2  GLY A   1     -15.067 -10.568  -5.361  1.00  0.00     0.313 HD
ENDBRANCH  41  42
ENDBRANCH  39  41
ENDBRANCH  31  34
ENDBRANCH  29  30
BRANCH  29  45
ATOM     45  CB  GLN A   3     -20.469  -8.332  -1.422  1.00  0.00     0.043 C 
BRANCH  45  46
ATOM     46  CG  GLN A   3     -21.246  -8.088  -0.151  1.00  0.00     0.099 C 
BRANCH  46  47
ATOM     47  CD  GLN A   3     -22.529  -7.336  -0.404  1.00  0.00     0.195 C 
ATOM     48  OE1 GLN A   3     -23.558  -7.414   0.232  1.00  0.00    -0.280 OA
ATOM     49  NE2 GLN A   3     -22.443  -6.545  -1.506  1.00  0.00    -0.273 NA
ATOM     50 1HE2 GLN A   3     -21.507  -6.194  -1.631  1.00  0.00     0.127 HD
ATOM     51 2HE2 GLN A   3     -23.200  -5.884  -1.607  1.00  0.00     0.127 HD
ENDBRANCH  46  47
ENDBRANCH  45  46
ENDBRANCH  29  45
ENDBRANCH   1  29
TORSDOF 17
ENDMDL
MODEL 2
REMARK VINA RESULT:      -7.8      2.353      4.336
REMARK  17 active torsions:
REMARK  status: ('A' for Active; 'I' for Inactive)
REMARK    1  A    between atoms: CA_3  and  C_6 
REMARK       I    between atoms: N_4  and  C_8 
REMARK       I    between atoms: C_6  and  N_14 
REMARK    2  A    between atoms: C_8  and  CA_10 
REMARK    3  A    between atoms: CA_10  and  N_11 
REMARK    4  A    between atoms: N_14  and  CA_15 
REMARK    5  A    between atoms: CA_15  and  CB_16 
REMARK    6  A    between atoms: CA_15  and  C_21 
REMARK    7  A    between atoms: CB_16  and  CG_17 
REMARK    8  A    between atoms: CG_17  and  CD_18 
REMARK       I    between atoms: CD_18  and  NE2_20 
REMARK       I    between atoms: C_21  and  N_26 
REMARK    9  A    between atoms: N_26  and  CA_27 
REMARK   10  A    between atoms: CA_27  and  C_28 
REMARK       I    between atoms: C_28  and  N_31 
REMARK   11  A    between atoms: CA_35  and  C_36 
REMARK       I    between atoms: C_36  and  N_38 
REMARK   12  A    between atoms: N_38  and  CA_39 
REMARK   13  A    between atoms: CA_39  and  CB_40 
REMARK   14  A    between atoms: CA_39  and  C_45 
REMARK   15  A    between atoms: CB_40  and  CG_41 
REMARK   16  A    between atoms: CG_41  and  CD_42 
REMARK       I    between atoms: CD_42  and  NE2_44 
REMARK   17  A    between atoms: C_45  and  OXT_47 
ROOT
ATOM      1  C   GLN A   3     -20.786  -9.760  -4.980  1.00  0.00     0.240 C 
ATOM      2  O   GLN A   3     -21.135 -10.138  -3.863  1.00  0.00    -0.271 OA
ATOM      3  N   GLY A   4     -21.088  -8.492  -5.446  1.00  0.00    -0.351 N 
ATOM      4  H   GLY A   4     -20.573  -8.123  -6.233  1.00  0.00     0.163 HD
ENDROOT
BRANCH   3   5
ATOM      5  CA  GLY A   4     -21.841  -7.536  -4.654  1.00  0.00     0.225 C 
BRANCH   5   6
ATOM      6  C   GLY A   4     -22.160  -6.246  -5.451  1.00  0.00     0.238 C 
ATOM      7  O   GLY A   4     -23.274  -5.715  -5.379  1.00  0.00    -0.272 OA
ATOM      8  N   PRO A   5     -21.185  -5.705  -6.265  1.00  0.00    -0.337 N 
ATOM      9  CD  PRO A   5     -19.871  -6.246  -6.550  1.00  0.00     0.127 C 
ATOM     10  CA  PRO A   5     -21.346  -4.397  -6.928  1.00  0.00     0.179 C 
ATOM     11  CG  PRO A   5     -18.991  -5.019  -6.660  1.00  0.00     0.022 C 
ATOM     12  CB  PRO A   5     -19.902  -3.947  -7.243  1.00  0.00     0.037 C 
BRANCH  10  13
ATOM     13  C   PRO A   5     -22.188  -4.468  -8.233  1.00  0.00     0.241 C 
ATOM     14  O   PRO A   5     -22.228  -5.457  -8.964  1.00  0.00    -0.271 OA
ATOM     15  N   GLN A   6     -22.904  -3.333  -8.553  1.00  0.00    -0.345 N 
ATOM     16  H   GLN A   6     -22.707  -2.499  -7.995  1.00  0.00     0.163 HD
BRANCH  15  17
ATOM     17  CA  GLN A   6     -23.549  -3.201  -9.872  1.00  0.00     0.182 C 
BRANCH  17  18
ATOM     18  CB  GLN A   6     -22.681  -3.884 -10.923  1.00  0.00     0.045 C 
BRANCH  18  19
ATOM     19  CG  GLN A   6     -22.166  -3.040 -12.085  1.00  0.00     0.105 C 
BRANCH  19  20
ATOM     20  CD  GLN A   6     -23.128  -3.061 -13.258  1.00  0.00     0.215 C 
ATOM     21  OE1 GLN A   6     -24.348  -3.050 -13.152  1.00  0.00    -0.274 OA
ATOM     22  NE2 GLN A   6     -22.506  -3.090 -14.472  1.00  0.00    -0.370 N 
ATOM     23 1HE2 GLN A   6     -21.506  -3.187 -14.579  1.00  0.00     0.159 HD
ATOM     24 2HE2 GLN A   6     -23.080  -3.110 -15.307  1.00  0.00     0.159 HD
ENDBRANCH  19  20
ENDBRANCH  18  19
ENDBRANCH  17  18
BRANCH  17  25
ATOM     25  C   GLN A   6     -24.976  -3.754  -9.837  1.00  0.00     0.163 C 
ATOM     26  O   GLN A   6     -25.994  -3.071  -9.882  1.00  0.00    -0.648 OA
BRANCH  25  27
ATOM     27  OXT GLN A   6     -25.030  -5.106  -9.731  1.00  0.00    -0.775 OA
ATOM     28  HXT GLN A   6     -24.229  -5.569 -10.027  1.00  0.00     0.167 HD
ENDBRANCH  25  27
ENDBRANCH  17  25
ENDBRANCH  15  17
ENDBRANCH  10  13
ENDBRANCH   5   6
ENDBRANCH   3   5
BRANCH   1  29
ATOM     29  CA  GLN A   3     -19.975 -10.654  -5.960  1.00  0.00     0.177 C 
BRANCH  29  30
ATOM     30  N   GLN A   3     -18.599 -10.817  -5.494  1.00  0.00    -0.346 N 
ATOM     31  C   PRO A   2     -17.571 -10.054  -5.990  1.00  0.00     0.241 C 
ATOM     32  O   PRO A   2     -17.800  -9.050  -6.667  1.00  0.00    -0.271 OA
ATOM     33  H   GLN A   3     -18.384 -11.620  -4.896  1.00  0.00     0.163 HD
BRANCH  31  34
ATOM     34  CA  PRO A   2     -16.135 -10.389  -5.508  1.00  0.00     0.179 C 
ATOM     35  CB  PRO A   2     -15.602 -11.501  -6.433  1.00  0.00     0.037 C 
ATOM     36  CG  PRO A   2     -14.433 -12.107  -5.687  1.00  0.00     0.022 C 
ATOM     37  CD  PRO A   2     -14.794 -11.929  -4.224  1.00  0.00     0.127 C 
ATOM     38  N   PRO A   2     -15.875 -10.955  -4.173  1.00  0.00    -0.337 N 
ATOM     39  C   GLY A   1     -16.255 -10.361  -2.985  1.00  0.00     0.248 C 
ATOM     40  O   GLY A   1     -16.938  -9.336  -2.949  1.00  0.00    -0.271 OA
BRANCH  39  41
ATOM     41  CA  GLY A   1     -15.871 -11.078  -1.676  1.00  0.00     0.369 C 
BRANCH  41  42
ATOM     42  N   GLY A   1     -17.056 -11.701  -1.072  1.00  0.00     0.087 N 
ATOM     43  H1  GLY A   1     -16.973 -11.620  -0.055  1.00  0.00     0.313 HD
ATOM     44  H2  GLY A   1     -17.049 -12.699  -1.273  1.00  0.00     0.313 HD
ENDBRANCH  41  42
ENDBRANCH  39  41
ENDBRANCH  31  34
ENDBRANCH  29  30
BRANCH  29  45
ATOM     45  CB  GLN A   3     -20.590 -12.062  -6.151  1.00  0.00     0.043 C 
BRANCH  45  46
ATOM     46  CG  GLN A   3     -20.493 -12.642  -7.540  1.00  0.00     0.099 C 
BRANCH  46  47
ATOM     47  CD  GLN A   3     -19.179 -13.347  -7.773  1.00  0.00     0.195 C 
ATOM     48  OE1 GLN A   3     -18.318 -13.576  -6.951  1.00  0.00    -0.280 OA
ATOM     49  NE2 GLN A   3     -19.012 -13.688  -9.078  1.00  0.00    -0.273 NA
ATOM     50 1HE2 GLN A   3     -19.894 -13.902  -9.516  1.00  0.00     0.127 HD
ATOM     51 2HE2 GLN A   3     -18.247 -14.323  -9.251  1.00  0.00     0.127 HD
ENDBRANCH  46  47
ENDBRANCH  45  46
ENDBRANCH  29  45
ENDBRANCH   1  29
TORSDOF 17
ENDMDL
MODEL 3
REMARK VINA RESULT:      -7.7     14.349     17.641
REMARK  17 active torsions:
REMARK  status: ('A' for Active; 'I' for Inactive)
REMARK    1  A    between atoms: CA_3  and  C_6 
REMARK       I    between atoms: N_4  and  C_8 
REMARK       I    between atoms: C_6  and  N_14 
REMARK    2  A    between atoms: C_8  and  CA_10 
REMARK    3  A    between atoms: CA_10  and  N_11 
REMARK    4  A    between atoms: N_14  and  CA_15 
REMARK    5  A    between atoms: CA_15  and  CB_16 
REMARK    6  A    between atoms: CA_15  and  C_21 
REMARK    7  A    between atoms: CB_16  and  CG_17 
REMARK    8  A    between atoms: CG_17  and  CD_18 
REMARK       I    between atoms: CD_18  and  NE2_20 
REMARK       I    between atoms: C_21  and  N_26 
REMARK    9  A    between atoms: N_26  and  CA_27 
REMARK   10  A    between atoms: CA_27  and  C_28 
REMARK       I    between atoms: C_28  and  N_31 
REMARK   11  A    between atoms: CA_35  and  C_36 
REMARK       I    between atoms: C_36  and  N_38 
REMARK   12  A    between atoms: N_38  and  CA_39 
REMARK   13  A    between atoms: CA_39  and  CB_40 
REMARK   14  A    between atoms: CA_39  and  C_45 
REMARK   15  A    between atoms: CB_40  and  CG_41 
REMARK   16  A    between atoms: CG_41  and  CD_42 
REMARK       I    between atoms: CD_42  and  NE2_44 
REMARK   17  A    between atoms: C_45  and  OXT_47 
ROOT
ATOM      1  C   GLN A   3     -33.934  -4.463 -14.801  1.00  0.00     0.240 C 
ATOM      2  O   GLN A   3     -34.946  -4.762 -15.432  1.00  0.00    -0.271 OA
ATOM      3  N   GLY A   4     -32.683  -4.458 -15.391  1.00  0.00    -0.351 N 
ATOM      4  H   GLY A   4     -31.929  -3.961 -14.937  1.00  0.00     0.163 HD
ENDROOT
BRANCH   3   5
ATOM      5  CA  GLY A   4     -32.483  -4.813 -16.785  1.00  0.00     0.225 C 
BRANCH   5   6
ATOM      6  C   GLY A   4     -31.005  -4.652 -17.218  1.00  0.00     0.238 C 
ATOM      7  O   GLY A   4     -30.600  -3.595 -17.716  1.00  0.00    -0.272 OA
ATOM      8  N   PRO A   5     -30.142  -5.719 -17.061  1.00  0.00    -0.337 N 
ATOM      9  CD  PRO A   5     -30.463  -7.054 -16.597  1.00  0.00     0.127 C 
ATOM     10  CA  PRO A   5     -28.690  -5.602 -17.293  1.00  0.00     0.179 C 
ATOM     11  CG  PRO A   5     -29.245  -7.461 -15.796  1.00  0.00     0.022 C 
ATOM     12  CB  PRO A   5     -28.079  -6.779 -16.502  1.00  0.00     0.037 C 
BRANCH  10  13
ATOM     13  C   PRO A   5     -28.297  -5.695 -18.794  1.00  0.00     0.241 C 
ATOM     14  O   PRO A   5     -28.704  -4.914 -19.653  1.00  0.00    -0.271 OA
ATOM     15  N   GLN A   6     -27.452  -6.731 -19.135  1.00  0.00    -0.345 N 
ATOM     16  H   GLN A   6     -27.277  -7.432 -18.411  1.00  0.00     0.163 HD
BRANCH  15  17
ATOM     17  CA  GLN A   6     -27.199  -7.056 -20.550  1.00  0.00     0.182 C 
BRANCH  17  18
ATOM     18  CB  GLN A   6     -25.726  -6.819 -20.862  1.00  0.00     0.045 C 
BRANCH  18  19
ATOM     19  CG  GLN A   6     -24.707  -7.804 -20.296  1.00  0.00     0.105 C 
BRANCH  19  20
ATOM     20  CD  GLN A   6     -24.027  -7.251 -19.056  1.00  0.00     0.215 C 
ATOM     21  OE1 GLN A   6     -24.614  -6.698 -18.136  1.00  0.00    -0.274 OA
ATOM     22  NE2 GLN A   6     -22.674  -7.428 -19.053  1.00  0.00    -0.370 N 
ATOM     23 1HE2 GLN A   6     -22.163  -7.802 -19.839  1.00  0.00     0.159 HD
ATOM     24 2HE2 GLN A   6     -22.146  -7.082 -18.260  1.00  0.00     0.159 HD
ENDBRANCH  19  20
ENDBRANCH  18  19
ENDBRANCH  17  18
BRANCH  17  25
ATOM     25  C   GLN A   6     -27.645  -8.486 -20.868  1.00  0.00     0.163 C 
ATOM     26  O   GLN A   6     -27.171  -9.188 -21.755  1.00  0.00    -0.648 OA
BRANCH  25  27
ATOM     27  OXT GLN A   6     -28.655  -8.926 -20.075  1.00  0.00    -0.775 OA
ATOM     28  HXT GLN A   6     -29.077  -9.749 -20.374  1.00  0.00     0.167 HD
ENDBRANCH  25  27
ENDBRANCH  17  25
ENDBRANCH  15  17
ENDBRANCH  10  13
ENDBRANCH   5   6
ENDBRANCH   3   5
BRANCH   1  29
ATOM     29  CA  GLN A   3     -33.964  -4.057 -13.300  1.00  0.00     0.177 C 
BRANCH  29  30
ATOM     30  N   GLN A   3     -34.761  -2.847 -13.106  1.00  0.00    -0.346 N 
ATOM     31  C   PRO A   2     -34.605  -2.047 -12.001  1.00  0.00     0.241 C 
ATOM     32  O   PRO A   2     -33.634  -2.184 -11.255  1.00  0.00    -0.271 OA
ATOM     33  H   GLN A   3     -35.551  -2.683 -13.736  1.00  0.00     0.163 HD
BRANCH  31  34
ATOM     34  CA  PRO A   2     -35.581  -0.851 -11.841  1.00  0.00     0.179 C 
ATOM     35  CB  PRO A   2     -36.525  -1.200 -10.672  1.00  0.00     0.037 C 
ATOM     36  CG  PRO A   2     -37.707  -0.269 -10.831  1.00  0.00     0.022 C 
ATOM     37  CD  PRO A   2     -37.799  -0.036 -12.327  1.00  0.00     0.127 C 
ATOM     38  N   PRO A   2     -36.536  -0.479 -12.900  1.00  0.00    -0.337 N 
ATOM     39  C   GLY A   1     -36.179  -0.158 -14.195  1.00  0.00     0.248 C 
ATOM     40  O   GLY A   1     -35.020  -0.250 -14.602  1.00  0.00    -0.271 OA
BRANCH  39  41
ATOM     41  CA  GLY A   1     -37.308   0.240 -15.166  1.00  0.00     0.369 C 
BRANCH  41  42
ATOM     42  N   GLY A   1     -36.867   1.341 -16.033  1.00  0.00     0.087 N 
ATOM     43  H1  GLY A   1     -35.858   1.250 -16.174  1.00  0.00     0.313 HD
ATOM     44  H2  GLY A   1     -37.001   2.226 -15.544  1.00  0.00     0.313 HD
ENDBRANCH  41  42
ENDBRANCH  39  41
ENDBRANCH  31  34
ENDBRANCH  29  30
BRANCH  29  45
ATOM     45  CB  GLN A   3     -34.538  -5.164 -12.382  1.00  0.00     0.043 C 
BRANCH  45  46
ATOM     46  CG  GLN A   3     -33.630  -5.639 -11.274  1.00  0.00     0.099 C 
BRANCH  46  47
ATOM     47  CD  GLN A   3     -34.250  -6.753 -10.467  1.00  0.00     0.195 C 
ATOM     48  OE1 GLN A   3     -35.250  -6.691  -9.785  1.00  0.00    -0.280 OA
ATOM     49  NE2 GLN A   3     -33.520  -7.897 -10.539  1.00  0.00    -0.273 NA
ATOM     50 1HE2 GLN A   3     -33.066  -7.985 -11.434  1.00  0.00     0.127 HD
ATOM     51 2HE2 GLN A   3     -33.987  -8.716 -10.177  1.00  0.00     0.127 HD
ENDBRANCH  46  47
ENDBRANCH  45  46
ENDBRANCH  29  45
ENDBRANCH   1  29
TORSDOF 17
ENDMDL
MODEL 4
REMARK VINA RESULT:      -7.7      4.429      8.008
REMARK  17 active torsions:
REMARK  status: ('A' for Active; 'I' for Inactive)
REMARK    1  A    between atoms: CA_3  and  C_6 
REMARK       I    between atoms: N_4  and  C_8 
REMARK       I    between atoms: C_6  and  N_14 
REMARK    2  A    between atoms: C_8  and  CA_10 
REMARK    3  A    between atoms: CA_10  and  N_11 
REMARK    4  A    between atoms: N_14  and  CA_15 
REMARK    5  A    between atoms: CA_15  and  CB_16 
REMARK    6  A    between atoms: CA_15  and  C_21 
REMARK    7  A    between atoms: CB_16  and  CG_17 
REMARK    8  A    between atoms: CG_17  and  CD_18 
REMARK       I    between atoms: CD_18  and  NE2_20 
REMARK       I    between atoms: C_21  and  N_26 
REMARK    9  A    between atoms: N_26  and  CA_27 
REMARK   10  A    between atoms: CA_27  and  C_28 
REMARK       I    between atoms: C_28  and  N_31 
REMARK   11  A    between atoms: CA_35  and  C_36 
REMARK       I    between atoms: C_36  and  N_38 
REMARK   12  A    between atoms: N_38  and  CA_39 
REMARK   13  A    between atoms: CA_39  and  CB_40 
REMARK   14  A    between atoms: CA_39  and  C_45 
REMARK   15  A    between atoms: CB_40  and  CG_41 
REMARK   16  A    between atoms: CG_41  and  CD_42 
REMARK       I    between atoms: CD_42  and  NE2_44 
REMARK   17  A    between atoms: C_45  and  OXT_47 
ROOT
ATOM      1  C   GLN A   3     -20.838 -12.356  -6.550  1.00  0.00     0.240 C 
ATOM      2  O   GLN A   3     -21.932 -12.057  -7.026  1.00  0.00    -0.271 OA
ATOM      3  N   GLY A   4     -20.726 -12.993  -5.327  1.00  0.00    -0.351 N 
ATOM      4  H   GLY A   4     -19.859 -13.457  -5.093  1.00  0.00     0.163 HD
ENDROOT
BRANCH   3   5
ATOM      5  CA  GLY A   4     -21.886 -13.341  -4.526  1.00  0.00     0.225 C 
BRANCH   5   6
ATOM      6  C   GLY A   4     -22.227 -12.241  -3.490  1.00  0.00     0.238 C 
ATOM      7  O   GLY A   4     -22.875 -11.239  -3.816  1.00  0.00    -0.272 OA
ATOM      8  N   PRO A   5     -21.776 -12.383  -2.193  1.00  0.00    -0.337 N 
ATOM      9  CD  PRO A   5     -20.922 -13.428  -1.662  1.00  0.00     0.127 C 
ATOM     10  CA  PRO A   5     -22.189 -11.472  -1.108  1.00  0.00     0.179 C 
ATOM     11  CG  PRO A   5     -21.451 -13.649  -0.261  1.00  0.00     0.022 C 
ATOM     12  CB  PRO A   5     -21.935 -12.275   0.186  1.00  0.00     0.037 C 
BRANCH  10  13
ATOM     13  C   PRO A   5     -21.388 -10.139  -1.084  1.00  0.00     0.241 C 
ATOM     14  O   PRO A   5     -20.396  -9.954  -0.381  1.00  0.00    -0.271 OA
ATOM     15  N   GLN A   6     -21.860  -9.135  -1.906  1.00  0.00    -0.345 N 
ATOM     16  H   GLN A   6     -22.770  -9.295  -2.342  1.00  0.00     0.163 HD
BRANCH  15  17
ATOM     17  CA  GLN A   6     -21.327  -7.765  -1.795  1.00  0.00     0.182 C 
BRANCH  17  18
ATOM     18  CB  GLN A   6     -20.932  -7.268  -3.181  1.00  0.00     0.045 C 
BRANCH  18  19
ATOM     19  CG  GLN A   6     -21.934  -7.447  -4.317  1.00  0.00     0.105 C 
BRANCH  19  20
ATOM     20  CD  GLN A   6     -21.255  -7.918  -5.590  1.00  0.00     0.215 C 
ATOM     21  OE1 GLN A   6     -20.850  -7.174  -6.473  1.00  0.00    -0.274 OA
ATOM     22  NE2 GLN A   6     -21.126  -9.274  -5.668  1.00  0.00    -0.370 N 
ATOM     23 1HE2 GLN A   6     -21.529  -9.908  -4.993  1.00  0.00     0.159 HD
ATOM     24 2HE2 GLN A   6     -20.686  -9.669  -6.491  1.00  0.00     0.159 HD
ENDBRANCH  19  20
ENDBRANCH  18  19
ENDBRANCH  17  18
BRANCH  17  25
ATOM     25  C   GLN A   6     -22.336  -6.844  -1.105  1.00  0.00     0.163 C 
ATOM     26  O   GLN A   6     -23.063  -7.173  -0.173  1.00  0.00    -0.648 OA
BRANCH  25  27
ATOM     27  OXT GLN A   6     -22.379  -5.595  -1.634  1.00  0.00    -0.775 OA
ATOM     28  HXT GLN A   6     -23.110  -5.442  -2.255  1.00  0.00     0.167 HD
ENDBRANCH  25  27
ENDBRANCH  17  25
ENDBRANCH  15  17
ENDBRANCH  10  13
ENDBRANCH   5   6
ENDBRANCH   3   5
BRANCH   1  29
ATOM     29  CA  GLN A   3     -19.492 -12.058  -7.271  1.00  0.00     0.177 C 
BRANCH  29  30
ATOM     30  N   GLN A   3     -18.394 -11.986  -6.309  1.00  0.00    -0.346 N 
ATOM     31  C   PRO A   2     -17.736 -10.808  -6.051  1.00  0.00     0.241 C 
ATOM     32  O   PRO A   2     -18.193  -9.732  -6.436  1.00  0.00    -0.271 OA
ATOM     33  H   GLN A   3     -18.018 -12.862  -5.938  1.00  0.00     0.163 HD
BRANCH  31  34
ATOM     34  CA  PRO A   2     -16.513 -10.868  -5.098  1.00  0.00     0.179 C 
ATOM     35  CB  PRO A   2     -15.359 -11.514  -5.893  1.00  0.00     0.037 C 
ATOM     36  CG  PRO A   2     -14.365 -11.965  -4.845  1.00  0.00     0.022 C 
ATOM     37  CD  PRO A   2     -15.220 -12.284  -3.633  1.00  0.00     0.127 C 
ATOM     38  N   PRO A   2     -16.523 -11.679  -3.868  1.00  0.00    -0.337 N 
ATOM     39  C   GLY A   1     -17.450 -11.543  -2.851  1.00  0.00     0.248 C 
ATOM     40  O   GLY A   1     -18.415 -10.782  -2.936  1.00  0.00    -0.271 OA
BRANCH  39  41
ATOM     41  CA  GLY A   1     -17.291 -12.454  -1.619  1.00  0.00     0.369 C 
BRANCH  41  42
ATOM     42  N   GLY A   1     -17.944 -11.848  -0.451  1.00  0.00     0.087 N 
ATOM     43  H1  GLY A   1     -17.366 -12.039   0.371  1.00  0.00     0.313 HD
ATOM     44  H2  GLY A   1     -18.832 -12.318  -0.282  1.00  0.00     0.313 HD
ENDBRANCH  41  42
ENDBRANCH  39  41
ENDBRANCH  31  34
ENDBRANCH  29  30
BRANCH  29  45
ATOM     45  CB  GLN A   3     -19.128 -13.119  -8.339  1.00  0.00     0.043 C 
BRANCH  45  46
ATOM     46  CG  GLN A   3     -19.035 -14.543  -7.850  1.00  0.00     0.099 C 
BRANCH  46  47
ATOM     47  CD  GLN A   3     -17.636 -15.096  -7.968  1.00  0.00     0.195 C 
ATOM     48  OE1 GLN A   3     -17.222 -15.862  -8.812  1.00  0.00    -0.280 OA
ATOM     49  NE2 GLN A   3     -16.837 -14.670  -6.954  1.00  0.00    -0.273 NA
ATOM     50 1HE2 GLN A   3     -17.093 -13.744  -6.652  1.00  0.00     0.127 HD
ATOM     51 2HE2 GLN A   3     -15.854 -14.854  -7.090  1.00  0.00     0.127 HD
ENDBRANCH  46  47
ENDBRANCH  45  46
ENDBRANCH  29  45
ENDBRANCH   1  29
TORSDOF 17
ENDMDL
MODEL 5
REMARK VINA RESULT:      -7.5      4.263      7.149
REMARK  17 active torsions:
REMARK  status: ('A' for Active; 'I' for Inactive)
REMARK    1  A    between atoms: CA_3  and  C_6 
REMARK       I    between atoms: N_4  and  C_8 
REMARK       I    between atoms: C_6  and  N_14 
REMARK    2  A    between atoms: C_8  and  CA_10 
REMARK    3  A    between atoms: CA_10  and  N_11 
REMARK    4  A    between atoms: N_14  and  CA_15 
REMARK    5  A    between atoms: CA_15  and  CB_16 
REMARK    6  A    between atoms: CA_15  and  C_21 
REMARK    7  A    between atoms: CB_16  and  CG_17 
REMARK    8  A    between atoms: CG_17  and  CD_18 
REMARK       I    between atoms: CD_18  and  NE2_20 
REMARK       I    between atoms: C_21  and  N_26 
REMARK    9  A    between atoms: N_26  and  CA_27 
REMARK   10  A    between atoms: CA_27  and  C_28 
REMARK       I    between atoms: C_28  and  N_31 
REMARK   11  A    between atoms: CA_35  and  C_36 
REMARK       I    between atoms: C_36  and  N_38 
REMARK   12  A    between atoms: N_38  and  CA_39 
REMARK   13  A    between atoms: CA_39  and  CB_40 
REMARK   14  A    between atoms: CA_39  and  C_45 
REMARK   15  A    between atoms: CB_40  and  CG_41 
REMARK   16  A    between atoms: CG_41  and  CD_42 
REMARK       I    between atoms: CD_42  and  NE2_44 
REMARK   17  A    between atoms: C_45  and  OXT_47 
ROOT
ATOM      1  C   GLN A   3     -19.169 -12.797  -0.070  1.00  0.00     0.240 C 
ATOM      2  O   GLN A   3     -18.825 -11.848   0.632  1.00  0.00    -0.271 OA
ATOM      3  N   GLY A   4     -20.498 -13.032  -0.375  1.00  0.00    -0.351 N 
ATOM      4  H   GLY A   4     -20.723 -13.639  -1.152  1.00  0.00     0.163 HD
ENDROOT
BRANCH   3   5
ATOM      5  CA  GLY A   4     -21.567 -12.183   0.118  1.00  0.00     0.225 C 
BRANCH   5   6
ATOM      6  C   GLY A   4     -21.854 -10.997  -0.837  1.00  0.00     0.238 C 
ATOM      7  O   GLY A   4     -22.177 -11.194  -2.015  1.00  0.00    -0.272 OA
ATOM      8  N   PRO A   5     -21.724  -9.708  -0.360  1.00  0.00    -0.337 N 
ATOM      9  CD  PRO A   5     -21.258  -9.292   0.948  1.00  0.00     0.127 C 
ATOM     10  CA  PRO A   5     -22.133  -8.529  -1.147  1.00  0.00     0.179 C 
ATOM     11  CG  PRO A   5     -22.100  -8.073   1.260  1.00  0.00     0.022 C 
ATOM     12  CB  PRO A   5     -22.340  -7.418  -0.094  1.00  0.00     0.037 C 
BRANCH  10  13
ATOM     13  C   PRO A   5     -21.073  -8.091  -2.196  1.00  0.00     0.241 C 
ATOM     14  O   PRO A   5     -19.962  -7.655  -1.898  1.00  0.00    -0.271 OA
ATOM     15  N   GLN A   6     -21.447  -8.205  -3.519  1.00  0.00    -0.345 N 
ATOM     16  H   GLN A   6     -22.431  -8.422  -3.696  1.00  0.00     0.163 HD
BRANCH  15  17
ATOM     17  CA  GLN A   6     -20.622  -7.608  -4.585  1.00  0.00     0.182 C 
BRANCH  17  18
ATOM     18  CB  GLN A   6     -19.906  -8.719  -5.344  1.00  0.00     0.045 C 
BRANCH  18  19
ATOM     19  CG  GLN A   6     -19.883 -10.112  -4.722  1.00  0.00     0.105 C 
BRANCH  19  20
ATOM     20  CD  GLN A   6     -20.772 -11.077  -5.485  1.00  0.00     0.215 C 
ATOM     21  OE1 GLN A   6     -20.960 -11.034  -6.694  1.00  0.00    -0.274 OA
ATOM     22  NE2 GLN A   6     -21.355 -12.022  -4.692  1.00  0.00    -0.370 N 
ATOM     23 1HE2 GLN A   6     -21.283 -12.022  -3.685  1.00  0.00     0.159 HD
ATOM     24 2HE2 GLN A   6     -21.968 -12.703  -5.127  1.00  0.00     0.159 HD
ENDBRANCH  19  20
ENDBRANCH  18  19
ENDBRANCH  17  18
BRANCH  17  25
ATOM     25  C   GLN A   6     -21.474  -6.725  -5.500  1.00  0.00     0.163 C 
ATOM     26  O   GLN A   6     -22.442  -6.066  -5.137  1.00  0.00    -0.648 OA
BRANCH  25  27
ATOM     27  OXT GLN A   6     -21.070  -6.741  -6.797  1.00  0.00    -0.775 OA
ATOM     28  HXT GLN A   6     -20.108  -6.793  -6.921  1.00  0.00     0.167 HD
ENDBRANCH  25  27
ENDBRANCH  17  25
ENDBRANCH  15  17
ENDBRANCH  10  13
ENDBRANCH   5   6
ENDBRANCH   3   5
BRANCH   1  29
ATOM     29  CA  GLN A   3     -18.157 -13.807  -0.682  1.00  0.00     0.177 C 
BRANCH  29  30
ATOM     30  N   GLN A   3     -17.268 -13.138  -1.630  1.00  0.00    -0.346 N 
ATOM     31  C   PRO A   2     -17.680 -12.805  -2.896  1.00  0.00     0.241 C 
ATOM     32  O   PRO A   2     -18.873 -12.840  -3.201  1.00  0.00    -0.271 OA
ATOM     33  H   GLN A   3     -16.276 -13.056  -1.388  1.00  0.00     0.163 HD
BRANCH  31  34
ATOM     34  CA  PRO A   2     -16.621 -12.202  -3.857  1.00  0.00     0.179 C 
ATOM     35  CB  PRO A   2     -16.412 -10.735  -3.426  1.00  0.00     0.037 C 
ATOM     36  CG  PRO A   2     -15.752 -10.068  -4.613  1.00  0.00     0.022 C 
ATOM     37  CD  PRO A   2     -16.285 -10.829  -5.812  1.00  0.00     0.127 C 
ATOM     38  N   PRO A   2     -16.872 -12.060  -5.302  1.00  0.00    -0.337 N 
ATOM     39  C   GLY A   1     -17.202 -13.105  -6.143  1.00  0.00     0.248 C 
ATOM     40  O   GLY A   1     -17.409 -14.247  -5.727  1.00  0.00    -0.271 OA
BRANCH  39  41
ATOM     41  CA  GLY A   1     -17.398 -12.781  -7.636  1.00  0.00     0.369 C 
BRANCH  41  42
ATOM     42  N   GLY A   1     -18.825 -12.818  -7.982  1.00  0.00     0.087 N 
ATOM     43  H1  GLY A   1     -19.287 -12.041  -7.503  1.00  0.00     0.313 HD
ATOM     44  H2  GLY A   1     -19.240 -13.667  -7.599  1.00  0.00     0.313 HD
ENDBRANCH  41  42
ENDBRANCH  39  41
ENDBRANCH  31  34
ENDBRANCH  29  30
BRANCH  29  45
ATOM     45  CB  GLN A   3     -17.282 -14.513   0.384  1.00  0.00     0.043 C 
BRANCH  45  46
ATOM     46  CG  GLN A   3     -15.865 -14.012   0.511  1.00  0.00     0.099 C 
BRANCH  46  47
ATOM     47  CD  GLN A   3     -15.712 -13.012   1.632  1.00  0.00     0.195 C 
ATOM     48  OE1 GLN A   3     -15.501 -13.253   2.801  1.00  0.00    -0.280 OA
ATOM     49  NE2 GLN A   3     -15.885 -11.736   1.198  1.00  0.00    -0.273 NA
ATOM     50 1HE2 GLN A   3     -15.568 -11.627   0.248  1.00  0.00     0.127 HD
ATOM     51 2HE2 GLN A   3     -15.608 -11.027   1.860  1.00  0.00     0.127 HD
ENDBRANCH  46  47
ENDBRANCH  45  46
ENDBRANCH  29  45
ENDBRANCH   1  29
TORSDOF 17
ENDMDL
MODEL 6
REMARK VINA RESULT:      -7.3      4.619      9.240
REMARK  17 active torsions:
REMARK  status: ('A' for Active; 'I' for Inactive)
REMARK    1  A    between atoms: CA_3  and  C_6 
REMARK       I    between atoms: N_4  and  C_8 
REMARK       I    between atoms: C_6  and  N_14 
REMARK    2  A    between atoms: C_8  and  CA_10 
REMARK    3  A    between atoms: CA_10  and  N_11 
REMARK    4  A    between atoms: N_14  and  CA_15 
REMARK    5  A    between atoms: CA_15  and  CB_16 
REMARK    6  A    between atoms: CA_15  and  C_21 
REMARK    7  A    between atoms: CB_16  and  CG_17 
REMARK    8  A    between atoms: CG_17  and  CD_18 
REMARK       I    between atoms: CD_18  and  NE2_20 
REMARK       I    between atoms: C_21  and  N_26 
REMARK    9  A    between atoms: N_26  and  CA_27 
REMARK   10  A    between atoms: CA_27  and  C_28 
REMARK       I    between atoms: C_28  and  N_31 
REMARK   11  A    between atoms: CA_35  and  C_36 
REMARK       I    between atoms: C_36  and  N_38 
REMARK   12  A    between atoms: N_38  and  CA_39 
REMARK   13  A    between atoms: CA_39  and  CB_40 
REMARK   14  A    between atoms: CA_39  and  C_45 
REMARK   15  A    between atoms: CB_40  and  CG_41 
REMARK   16  A    between atoms: CG_41  and  CD_42 
REMARK       I    between atoms: CD_42  and  NE2_44 
REMARK   17  A    between atoms: C_45  and  OXT_47 
ROOT
ATOM      1  C   GLN A   3     -22.044 -12.593  -3.433  1.00  0.00     0.240 C 
ATOM      2  O   GLN A   3     -22.627 -12.334  -4.485  1.00  0.00    -0.271 OA
ATOM      3  N   GLY A   4     -21.176 -13.666  -3.328  1.00  0.00    -0.351 N 
ATOM      4  H   GLY A   4     -20.523 -13.695  -2.557  1.00  0.00     0.163 HD
ENDROOT
BRANCH   3   5
ATOM      5  CA  GLY A   4     -20.907 -14.555  -4.444  1.00  0.00     0.225 C 
BRANCH   5   6
ATOM      6  C   GLY A   4     -19.459 -14.398  -4.974  1.00  0.00     0.238 C 
ATOM      7  O   GLY A   4     -18.502 -14.884  -4.360  1.00  0.00    -0.272 OA
ATOM      8  N   PRO A   5     -19.247 -13.686  -6.138  1.00  0.00    -0.337 N 
ATOM      9  CD  PRO A   5     -20.229 -12.966  -6.925  1.00  0.00     0.127 C 
ATOM     10  CA  PRO A   5     -17.930 -13.627  -6.799  1.00  0.00     0.179 C 
ATOM     11  CG  PRO A   5     -19.769 -13.174  -8.352  1.00  0.00     0.022 C 
ATOM     12  CB  PRO A   5     -18.250 -13.240  -8.259  1.00  0.00     0.037 C 
BRANCH  10  13
ATOM     13  C   PRO A   5     -16.967 -12.586  -6.161  1.00  0.00     0.241 C 
ATOM     14  O   PRO A   5     -16.962 -11.392  -6.460  1.00  0.00    -0.271 OA
ATOM     15  N   GLN A   6     -16.083 -13.075  -5.222  1.00  0.00    -0.345 N 
ATOM     16  H   GLN A   6     -16.031 -14.092  -5.133  1.00  0.00     0.163 HD
BRANCH  15  17
ATOM     17  CA  GLN A   6     -14.978 -12.235  -4.725  1.00  0.00     0.182 C 
BRANCH  17  18
ATOM     18  CB  GLN A   6     -15.118 -12.066  -3.216  1.00  0.00     0.045 C 
BRANCH  18  19
ATOM     19  CG  GLN A   6     -15.646 -10.734  -2.692  1.00  0.00     0.105 C 
BRANCH  19  20
ATOM     20  CD  GLN A   6     -17.154 -10.636  -2.838  1.00  0.00     0.215 C 
ATOM     21  OE1 GLN A   6     -17.899 -11.599  -2.967  1.00  0.00    -0.274 OA
ATOM     22  NE2 GLN A   6     -17.621  -9.355  -2.809  1.00  0.00    -0.370 N 
ATOM     23 1HE2 GLN A   6     -17.018  -8.545  -2.791  1.00  0.00     0.159 HD
ATOM     24 2HE2 GLN A   6     -18.619  -9.205  -2.905  1.00  0.00     0.159 HD
ENDBRANCH  19  20
ENDBRANCH  18  19
ENDBRANCH  17  18
BRANCH  17  25
ATOM     25  C   GLN A   6     -13.624 -12.825  -5.127  1.00  0.00     0.163 C 
ATOM     26  O   GLN A   6     -13.146 -12.779  -6.256  1.00  0.00    -0.648 OA
BRANCH  25  27
ATOM     27  OXT GLN A   6     -12.977 -13.442  -4.105  1.00  0.00    -0.775 OA
ATOM     28  HXT GLN A   6     -13.504 -13.548  -3.296  1.00  0.00     0.167 HD
ENDBRANCH  25  27
ENDBRANCH  17  25
ENDBRANCH  15  17
ENDBRANCH  10  13
ENDBRANCH   5   6
ENDBRANCH   3   5
BRANCH   1  29
ATOM     29  CA  GLN A   3     -22.216 -11.747  -2.140  1.00  0.00     0.177 C 
BRANCH  29  30
ATOM     30  N   GLN A   3     -21.967 -10.332  -2.411  1.00  0.00    -0.346 N 
ATOM     31  C   PRO A   2     -21.018  -9.620  -1.720  1.00  0.00     0.241 C 
ATOM     32  O   PRO A   2     -20.183 -10.195  -1.019  1.00  0.00    -0.271 OA
ATOM     33  H   GLN A   3     -22.620  -9.834  -3.022  1.00  0.00     0.163 HD
BRANCH  31  34
ATOM     34  CA  PRO A   2     -20.916  -8.099  -2.008  1.00  0.00     0.179 C 
ATOM     35  CB  PRO A   2     -21.935  -7.400  -1.084  1.00  0.00     0.037 C 
ATOM     36  CG  PRO A   2     -22.137  -6.028  -1.689  1.00  0.00     0.022 C 
ATOM     37  CD  PRO A   2     -21.918  -6.240  -3.175  1.00  0.00     0.127 C 
ATOM     38  N   PRO A   2     -21.261  -7.531  -3.323  1.00  0.00    -0.337 N 
ATOM     39  C   GLY A   1     -20.674  -7.909  -4.515  1.00  0.00     0.248 C 
ATOM     40  O   GLY A   1     -19.865  -8.836  -4.587  1.00  0.00    -0.271 OA
BRANCH  39  41
ATOM     41  CA  GLY A   1     -21.135  -7.185  -5.795  1.00  0.00     0.369 C 
BRANCH  41  42
ATOM     42  N   GLY A   1     -19.971  -6.743  -6.575  1.00  0.00     0.087 N 
ATOM     43  H1  GLY A   1     -19.898  -7.340  -7.402  1.00  0.00     0.313 HD
ATOM     44  H2  GLY A   1     -19.123  -6.910  -6.035  1.00  0.00     0.313 HD
ENDBRANCH  41  42
ENDBRANCH  39  41
ENDBRANCH  31  34
ENDBRANCH  29  30
BRANCH  29  45
ATOM     45  CB  GLN A   3     -23.625 -11.877  -1.512  1.00  0.00     0.043 C 
BRANCH  45  46
ATOM     46  CG  GLN A   3     -23.734 -12.793  -0.318  1.00  0.00     0.099 C 
BRANCH  46  47
ATOM     47  CD  GLN A   3     -23.630 -14.248  -0.705  1.00  0.00     0.195 C 
ATOM     48  OE1 GLN A   3     -22.625 -14.924  -0.744  1.00  0.00    -0.280 OA
ATOM     49  NE2 GLN A   3     -24.834 -14.760  -1.075  1.00  0.00    -0.273 NA
ATOM     50 1HE2 GLN A   3     -25.587 -14.326  -0.566  1.00  0.00     0.127 HD
ATOM     51 2HE2 GLN A   3     -24.854 -15.765  -1.158  1.00  0.00     0.127 HD
ENDBRANCH  46  47
ENDBRANCH  45  46
ENDBRANCH  29  45
ENDBRANCH   1  29
TORSDOF 17
ENDMDL
MODEL 7
REMARK VINA RESULT:      -7.3      2.992      4.343
REMARK  17 active torsions:
REMARK  status: ('A' for Active; 'I' for Inactive)
REMARK    1  A    between atoms: CA_3  and  C_6 
REMARK       I    between atoms: N_4  and  C_8 
REMARK       I    between atoms: C_6  and  N_14 
REMARK    2  A    between atoms: C_8  and  CA_10 
REMARK    3  A    between atoms: CA_10  and  N_11 
REMARK    4  A    between atoms: N_14  and  CA_15 
REMARK    5  A    between atoms: CA_15  and  CB_16 
REMARK    6  A    between atoms: CA_15  and  C_21 
REMARK    7  A    between atoms: CB_16  and  CG_17 
REMARK    8  A    between atoms: CG_17  and  CD_18 
REMARK       I    between atoms: CD_18  and  NE2_20 
REMARK       I    between atoms: C_21  and  N_26 
REMARK    9  A    between atoms: N_26  and  CA_27 
REMARK   10  A    between atoms: CA_27  and  C_28 
REMARK       I    between atoms: C_28  and  N_31 
REMARK   11  A    between atoms: CA_35  and  C_36 
REMARK       I    between atoms: C_36  and  N_38 
REMARK   12  A    between atoms: N_38  and  CA_39 
REMARK   13  A    between atoms: CA_39  and  CB_40 
REMARK   14  A    between atoms: CA_39  and  C_45 
REMARK   15  A    between atoms: CB_40  and  CG_41 
REMARK   16  A    between atoms: CG_41  and  CD_42 
REMARK       I    between atoms: CD_42  and  NE2_44 
REMARK   17  A    between atoms: C_45  and  OXT_47 
ROOT
ATOM      1  C   GLN A   3     -21.207  -9.724  -5.043  1.00  0.00     0.240 C 
ATOM      2  O   GLN A   3     -21.468  -9.976  -3.868  1.00  0.00    -0.271 OA
ATOM      3  N   GLY A   4     -21.225  -8.429  -5.530  1.00  0.00    -0.351 N 
ATOM      4  H   GLY A   4     -20.756  -8.226  -6.403  1.00  0.00     0.163 HD
ENDROOT
BRANCH   3   5
ATOM      5  CA  GLY A   4     -21.561  -7.291  -4.693  1.00  0.00     0.225 C 
BRANCH   5   6
ATOM      6  C   GLY A   4     -21.944  -6.046  -5.531  1.00  0.00     0.238 C 
ATOM      7  O   GLY A   4     -23.061  -5.526  -5.422  1.00  0.00    -0.272 OA
ATOM      8  N   PRO A   5     -21.025  -5.533  -6.424  1.00  0.00    -0.337 N 
ATOM      9  CD  PRO A   5     -19.720  -6.071  -6.758  1.00  0.00     0.127 C 
ATOM     10  CA  PRO A   5     -21.243  -4.261  -7.140  1.00  0.00     0.179 C 
ATOM     11  CG  PRO A   5     -18.868  -4.839  -6.976  1.00  0.00     0.022 C 
ATOM     12  CB  PRO A   5     -19.827  -3.808  -7.557  1.00  0.00     0.037 C 
BRANCH  10  13
ATOM     13  C   PRO A   5     -22.156  -4.406  -8.390  1.00  0.00     0.241 C 
ATOM     14  O   PRO A   5     -22.243  -5.439  -9.052  1.00  0.00    -0.271 OA
ATOM     15  N   GLN A   6     -22.881  -3.287  -8.742  1.00  0.00    -0.345 N 
ATOM     16  H   GLN A   6     -22.648  -2.421  -8.251  1.00  0.00     0.163 HD
BRANCH  15  17
ATOM     17  CA  GLN A   6     -23.596  -3.233 -10.031  1.00  0.00     0.182 C 
BRANCH  17  18
ATOM     18  CB  GLN A   6     -22.782  -3.973 -11.086  1.00  0.00     0.045 C 
BRANCH  18  19
ATOM     19  CG  GLN A   6     -22.147  -3.154 -12.205  1.00  0.00     0.105 C 
BRANCH  19  20
ATOM     20  CD  GLN A   6     -23.111  -2.945 -13.358  1.00  0.00     0.215 C 
ATOM     21  OE1 GLN A   6     -24.301  -2.692 -13.226  1.00  0.00    -0.274 OA
ATOM     22  NE2 GLN A   6     -22.525  -3.062 -14.585  1.00  0.00    -0.370 N 
ATOM     23 1HE2 GLN A   6     -21.567  -3.354 -14.716  1.00  0.00     0.159 HD
ATOM     24 2HE2 GLN A   6     -23.104  -2.940 -15.408  1.00  0.00     0.159 HD
ENDBRANCH  19  20
ENDBRANCH  18  19
ENDBRANCH  17  18
BRANCH  17  25
ATOM     25  C   GLN A   6     -25.016  -3.786  -9.887  1.00  0.00     0.163 C 
ATOM     26  O   GLN A   6     -26.038  -3.108  -9.897  1.00  0.00    -0.648 OA
BRANCH  25  27
ATOM     27  OXT GLN A   6     -25.058  -5.133  -9.725  1.00  0.00    -0.775 OA
ATOM     28  HXT GLN A   6     -25.928  -5.534  -9.885  1.00  0.00     0.167 HD
ENDBRANCH  25  27
ENDBRANCH  17  25
ENDBRANCH  15  17
ENDBRANCH  10  13
ENDBRANCH   5   6
ENDBRANCH   3   5
BRANCH   1  29
ATOM     29  CA  GLN A   3     -20.826 -10.819  -6.079  1.00  0.00     0.177 C 
BRANCH  29  30
ATOM     30  N   GLN A   3     -19.585 -11.488  -5.693  1.00  0.00    -0.346 N 
ATOM     31  C   PRO A   2     -18.354 -10.953  -5.985  1.00  0.00     0.241 C 
ATOM     32  O   PRO A   2     -18.248  -9.786  -6.368  1.00  0.00    -0.271 OA
ATOM     33  H   GLN A   3     -19.643 -12.444  -5.332  1.00  0.00     0.163 HD
BRANCH  31  34
ATOM     34  CA  PRO A   2     -17.104 -11.800  -5.630  1.00  0.00     0.179 C 
ATOM     35  CB  PRO A   2     -15.878 -10.881  -5.806  1.00  0.00     0.037 C 
ATOM     36  CG  PRO A   2     -14.694 -11.820  -5.901  1.00  0.00     0.022 C 
ATOM     37  CD  PRO A   2     -15.265 -13.076  -6.531  1.00  0.00     0.127 C 
ATOM     38  N   PRO A   2     -16.714 -12.980  -6.422  1.00  0.00    -0.337 N 
ATOM     39  C   GLY A   1     -17.529 -14.073  -6.647  1.00  0.00     0.248 C 
ATOM     40  O   GLY A   1     -18.703 -14.108  -6.276  1.00  0.00    -0.271 OA
BRANCH  39  41
ATOM     41  CA  GLY A   1     -16.945 -15.236  -7.473  1.00  0.00     0.369 C 
BRANCH  41  42
ATOM     42  N   GLY A   1     -18.028 -16.030  -8.068  1.00  0.00     0.087 N 
ATOM     43  H1  GLY A   1     -17.646 -16.942  -8.329  1.00  0.00     0.313 HD
ATOM     44  H2  GLY A   1     -18.323 -15.592  -8.940  1.00  0.00     0.313 HD
ENDBRANCH  41  42
ENDBRANCH  39  41
ENDBRANCH  31  34
ENDBRANCH  29  30
BRANCH  29  45
ATOM     45  CB  GLN A   3     -21.922 -11.900  -6.251  1.00  0.00     0.043 C 
BRANCH  45  46
ATOM     46  CG  GLN A   3     -21.858 -13.063  -5.292  1.00  0.00     0.099 C 
BRANCH  46  47
ATOM     47  CD  GLN A   3     -21.961 -14.392  -6.001  1.00  0.00     0.195 C 
ATOM     48  OE1 GLN A   3     -22.481 -14.608  -7.074  1.00  0.00    -0.280 OA
ATOM     49  NE2 GLN A   3     -21.425 -15.400  -5.265  1.00  0.00    -0.273 NA
ATOM     50 1HE2 GLN A   3     -20.650 -15.075  -4.708  1.00  0.00     0.127 HD
ATOM     51 2HE2 GLN A   3     -21.298 -16.266  -5.769  1.00  0.00     0.127 HD
ENDBRANCH  46  47
ENDBRANCH  45  46
ENDBRANCH  29  45
ENDBRANCH   1  29
TORSDOF 17
ENDMDL
MODEL 8
REMARK VINA RESULT:      -7.3      5.962      9.601
REMARK  17 active torsions:
REMARK  status: ('A' for Active; 'I' for Inactive)
REMARK    1  A    between atoms: CA_3  and  C_6 
REMARK       I    between atoms: N_4  and  C_8 
REMARK       I    between atoms: C_6  and  N_14 
REMARK    2  A    between atoms: C_8  and  CA_10 
REMARK    3  A    between atoms: CA_10  and  N_11 
REMARK    4  A    between atoms: N_14  and  CA_15 
REMARK    5  A    between atoms: CA_15  and  CB_16 
REMARK    6  A    between atoms: CA_15  and  C_21 
REMARK    7  A    between atoms: CB_16  and  CG_17 
REMARK    8  A    between atoms: CG_17  and  CD_18 
REMARK       I    between atoms: CD_18  and  NE2_20 
REMARK       I    between atoms: C_21  and  N_26 
REMARK    9  A    between atoms: N_26  and  CA_27 
REMARK   10  A    between atoms: CA_27  and  C_28 
REMARK       I    between atoms: C_28  and  N_31 
REMARK   11  A    between atoms: CA_35  and  C_36 
REMARK       I    between atoms: C_36  and  N_38 
REMARK   12  A    between atoms: N_38  and  CA_39 
REMARK   13  A    between atoms: CA_39  and  CB_40 
REMARK   14  A    between atoms: CA_39  and  C_45 
REMARK   15  A    between atoms: CB_40  and  CG_41 
REMARK   16  A    between atoms: CG_41  and  CD_42 
REMARK       I    between atoms: CD_42  and  NE2_44 
REMARK   17  A    between atoms: C_45  and  OXT_47 
ROOT
ATOM      1  C   GLN A   3     -19.896  -9.470  -3.793  1.00  0.00     0.240 C 
ATOM      2  O   GLN A   3     -18.831  -8.855  -3.767  1.00  0.00    -0.271 OA
ATOM      3  N   GLY A   4     -20.098 -10.538  -4.649  1.00  0.00    -0.351 N 
ATOM      4  H   GLY A   4     -20.859 -11.177  -4.465  1.00  0.00     0.163 HD
ENDROOT
BRANCH   3   5
ATOM      5  CA  GLY A   4     -19.075 -10.994  -5.573  1.00  0.00     0.225 C 
BRANCH   5   6
ATOM      6  C   GLY A   4     -18.099 -11.998  -4.909  1.00  0.00     0.238 C 
ATOM      7  O   GLY A   4     -18.494 -12.794  -4.050  1.00  0.00    -0.272 OA
ATOM      8  N   PRO A   5     -16.768 -11.977  -5.276  1.00  0.00    -0.337 N 
ATOM      9  CD  PRO A   5     -16.113 -11.052  -6.179  1.00  0.00     0.127 C 
ATOM     10  CA  PRO A   5     -15.807 -12.999  -4.818  1.00  0.00     0.179 C 
ATOM     11  CG  PRO A   5     -15.086 -11.907  -6.890  1.00  0.00     0.022 C 
ATOM     12  CB  PRO A   5     -14.659 -12.935  -5.849  1.00  0.00     0.037 C 
BRANCH  10  13
ATOM     13  C   PRO A   5     -15.264 -12.737  -3.385  1.00  0.00     0.241 C 
ATOM     14  O   PRO A   5     -14.139 -12.295  -3.155  1.00  0.00    -0.271 OA
ATOM     15  N   GLN A   6     -16.122 -13.040  -2.348  1.00  0.00    -0.345 N 
ATOM     16  H   GLN A   6     -16.974 -13.546  -2.597  1.00  0.00     0.163 HD
BRANCH  15  17
ATOM     17  CA  GLN A   6     -15.638 -13.052  -0.956  1.00  0.00     0.182 C 
BRANCH  17  18
ATOM     18  CB  GLN A   6     -16.335 -11.944  -0.174  1.00  0.00     0.045 C 
BRANCH  18  19
ATOM     19  CG  GLN A   6     -17.619 -12.293   0.572  1.00  0.00     0.105 C 
BRANCH  19  20
ATOM     20  CD  GLN A   6     -18.846 -11.789  -0.166  1.00  0.00     0.215 C 
ATOM     21  OE1 GLN A   6     -18.999 -11.857  -1.378  1.00  0.00    -0.274 OA
ATOM     22  NE2 GLN A   6     -19.789 -11.244   0.657  1.00  0.00    -0.370 N 
ATOM     23 1HE2 GLN A   6     -19.645 -11.100   1.646  1.00  0.00     0.159 HD
ATOM     24 2HE2 GLN A   6     -20.638 -10.879   0.239  1.00  0.00     0.159 HD
ENDBRANCH  19  20
ENDBRANCH  18  19
ENDBRANCH  17  18
BRANCH  17  25
ATOM     25  C   GLN A   6     -15.837 -14.432  -0.324  1.00  0.00     0.163 C 
ATOM     26  O   GLN A   6     -16.586 -15.301  -0.758  1.00  0.00    -0.648 OA
BRANCH  25  27
ATOM     27  OXT GLN A   6     -15.106 -14.621   0.805  1.00  0.00    -0.775 OA
ATOM     28  HXT GLN A   6     -15.042 -13.841   1.381  1.00  0.00     0.167 HD
ENDBRANCH  25  27
ENDBRANCH  17  25
ENDBRANCH  15  17
ENDBRANCH  10  13
ENDBRANCH   5   6
ENDBRANCH   3   5
BRANCH   1  29
ATOM     29  CA  GLN A   3     -21.099  -9.117  -2.873  1.00  0.00     0.177 C 
BRANCH  29  30
ATOM     30  N   GLN A   3     -21.532 -10.289  -2.115  1.00  0.00    -0.346 N 
ATOM     31  C   PRO A   2     -22.614 -11.041  -2.502  1.00  0.00     0.241 C 
ATOM     32  O   PRO A   2     -23.112 -10.902  -3.620  1.00  0.00    -0.271 OA
ATOM     33  H   GLN A   3     -21.107 -10.456  -1.199  1.00  0.00     0.163 HD
BRANCH  31  34
ATOM     34  CA  PRO A   2     -23.055 -12.195  -1.563  1.00  0.00     0.179 C 
ATOM     35  CB  PRO A   2     -23.368 -11.559  -0.192  1.00  0.00     0.037 C 
ATOM     36  CG  PRO A   2     -23.347 -12.711   0.789  1.00  0.00     0.022 C 
ATOM     37  CD  PRO A   2     -22.347 -13.686   0.197  1.00  0.00     0.127 C 
ATOM     38  N   PRO A   2     -22.139 -13.286  -1.188  1.00  0.00    -0.337 N 
ATOM     39  C   GLY A   1     -21.501 -14.115  -2.091  1.00  0.00     0.248 C 
ATOM     40  O   GLY A   1     -21.576 -13.946  -3.309  1.00  0.00    -0.271 OA
BRANCH  39  41
ATOM     41  CA  GLY A   1     -20.601 -15.228  -1.521  1.00  0.00     0.369 C 
BRANCH  41  42
ATOM     42  N   GLY A   1     -19.194 -14.960  -1.845  1.00  0.00     0.087 N 
ATOM     43  H1  GLY A   1     -19.168 -14.375  -2.684  1.00  0.00     0.313 HD
ATOM     44  H2  GLY A   1     -18.737 -15.834  -2.101  1.00  0.00     0.313 HD
ENDBRANCH  41  42
ENDBRANCH  39  41
ENDBRANCH  31  34
ENDBRANCH  29  30
BRANCH  29  45
ATOM     45  CB  GLN A   3     -20.783  -7.982  -1.868  1.00  0.00     0.043 C 
BRANCH  45  46
ATOM     46  CG  GLN A   3     -21.976  -7.322  -1.222  1.00  0.00     0.099 C 
BRANCH  46  47
ATOM     47  CD  GLN A   3     -22.327  -7.950   0.105  1.00  0.00     0.195 C 
ATOM     48  OE1 GLN A   3     -23.409  -7.948   0.650  1.00  0.00    -0.280 OA
ATOM     49  NE2 GLN A   3     -21.244  -8.519   0.696  1.00  0.00    -0.273 NA
ATOM     50 1HE2 GLN A   3     -20.601  -8.883   0.011  1.00  0.00     0.127 HD
ATOM     51 2HE2 GLN A   3     -21.460  -9.112   1.484  1.00  0.00     0.127 HD
ENDBRANCH  46  47
ENDBRANCH  45  46
ENDBRANCH  29  45
ENDBRANCH   1  29
TORSDOF 17
ENDMDL
MODEL 9
REMARK VINA RESULT:      -7.2      5.033      8.407
REMARK  17 active torsions:
REMARK  status: ('A' for Active; 'I' for Inactive)
REMARK    1  A    between atoms: CA_3  and  C_6 
REMARK       I    between atoms: N_4  and  C_8 
REMARK       I    between atoms: C_6  and  N_14 
REMARK    2  A    between atoms: C_8  and  CA_10 
REMARK    3  A    between atoms: CA_10  and  N_11 
REMARK    4  A    between atoms: N_14  and  CA_15 
REMARK    5  A    between atoms: CA_15  and  CB_16 
REMARK    6  A    between atoms: CA_15  and  C_21 
REMARK    7  A    between atoms: CB_16  and  CG_17 
REMARK    8  A    between atoms: CG_17  and  CD_18 
REMARK       I    between atoms: CD_18  and  NE2_20 
REMARK       I    between atoms: C_21  and  N_26 
REMARK    9  A    between atoms: N_26  and  CA_27 
REMARK   10  A    between atoms: CA_27  and  C_28 
REMARK       I    between atoms: C_28  and  N_31 
REMARK   11  A    between atoms: CA_35  and  C_36 
REMARK       I    between atoms: C_36  and  N_38 
REMARK   12  A    between atoms: N_38  and  CA_39 
REMARK   13  A    between atoms: CA_39  and  CB_40 
REMARK   14  A    between atoms: CA_39  and  C_45 
REMARK   15  A    between atoms: CB_40  and  CG_41 
REMARK   16  A    between atoms: CG_41  and  CD_42 
REMARK       I    between atoms: CD_42  and  NE2_44 
REMARK   17  A    between atoms: C_45  and  OXT_47 
ROOT
ATOM      1  C   GLN A   3     -15.540 -11.838  -5.290  1.00  0.00     0.240 C 
ATOM      2  O   GLN A   3     -15.085 -11.732  -6.427  1.00  0.00    -0.271 OA
ATOM      3  N   GLY A   4     -16.886 -12.063  -5.062  1.00  0.00    -0.351 N 
ATOM      4  H   GLY A   4     -17.180 -12.407  -4.158  1.00  0.00     0.163 HD
ENDROOT
BRANCH   3   5
ATOM      5  CA  GLY A   4     -17.845 -12.179  -6.146  1.00  0.00     0.225 C 
BRANCH   5   6
ATOM      6  C   GLY A   4     -19.118 -11.333  -5.887  1.00  0.00     0.238 C 
ATOM      7  O   GLY A   4     -19.103 -10.105  -6.027  1.00  0.00    -0.272 OA
ATOM      8  N   PRO A   5     -20.271 -11.971  -5.475  1.00  0.00    -0.337 N 
ATOM      9  CD  PRO A   5     -20.441 -13.376  -5.161  1.00  0.00     0.127 C 
ATOM     10  CA  PRO A   5     -21.565 -11.270  -5.365  1.00  0.00     0.179 C 
ATOM     11  CG  PRO A   5     -21.839 -13.688  -5.649  1.00  0.00     0.022 C 
ATOM     12  CB  PRO A   5     -22.619 -12.397  -5.429  1.00  0.00     0.037 C 
BRANCH  10  13
ATOM     13  C   PRO A   5     -21.716 -10.460  -4.046  1.00  0.00     0.241 C 
ATOM     14  O   PRO A   5     -22.226 -10.917  -3.023  1.00  0.00    -0.271 OA
ATOM     15  N   GLN A   6     -21.249  -9.163  -4.075  1.00  0.00    -0.345 N 
ATOM     16  H   GLN A   6     -20.983  -8.796  -4.992  1.00  0.00     0.163 HD
BRANCH  15  17
ATOM     17  CA  GLN A   6     -21.546  -8.235  -2.969  1.00  0.00     0.182 C 
BRANCH  17  18
ATOM     18  CB  GLN A   6     -20.504  -8.414  -1.871  1.00  0.00     0.045 C 
BRANCH  18  19
ATOM     19  CG  GLN A   6     -20.971  -8.337  -0.421  1.00  0.00     0.105 C 
BRANCH  19  20
ATOM     20  CD  GLN A   6     -21.463  -9.683   0.078  1.00  0.00     0.215 C 
ATOM     21  OE1 GLN A   6     -20.759 -10.510   0.643  1.00  0.00    -0.274 OA
ATOM     22  NE2 GLN A   6     -22.789  -9.900  -0.159  1.00  0.00    -0.370 N 
ATOM     23 1HE2 GLN A   6     -23.366  -9.270  -0.698  1.00  0.00     0.159 HD
ATOM     24 2HE2 GLN A   6     -23.194 -10.780   0.141  1.00  0.00     0.159 HD
ENDBRANCH  19  20
ENDBRANCH  18  19
ENDBRANCH  17  18
BRANCH  17  25
ATOM     25  C   GLN A   6     -21.625  -6.793  -3.476  1.00  0.00     0.163 C 
ATOM     26  O   GLN A   6     -21.090  -6.379  -4.500  1.00  0.00    -0.648 OA
BRANCH  25  27
ATOM     27  OXT GLN A   6     -22.343  -5.972  -2.667  1.00  0.00    -0.775 OA
ATOM     28  HXT GLN A   6     -23.262  -5.830  -2.947  1.00  0.00     0.167 HD
ENDBRANCH  25  27
ENDBRANCH  17  25
ENDBRANCH  15  17
ENDBRANCH  10  13
ENDBRANCH   5   6
ENDBRANCH   3   5
BRANCH   1  29
ATOM     29  CA  GLN A   3     -14.656 -11.740  -4.014  1.00  0.00     0.177 C 
BRANCH  29  30
ATOM     30  N   GLN A   3     -15.434 -12.064  -2.819  1.00  0.00    -0.346 N 
ATOM     31  C   PRO A   2     -15.867 -11.091  -1.952  1.00  0.00     0.241 C 
ATOM     32  O   PRO A   2     -15.824  -9.901  -2.267  1.00  0.00    -0.271 OA
ATOM     33  H   GLN A   3     -15.524 -13.048  -2.553  1.00  0.00     0.163 HD
BRANCH  31  34
ATOM     34  CA  PRO A   2     -16.586 -11.556  -0.658  1.00  0.00     0.179 C 
ATOM     35  CB  PRO A   2     -15.518 -12.234   0.226  1.00  0.00     0.037 C 
ATOM     36  CG  PRO A   2     -16.302 -13.053   1.229  1.00  0.00     0.022 C 
ATOM     37  CD  PRO A   2     -17.566 -13.440   0.486  1.00  0.00     0.127 C 
ATOM     38  N   PRO A   2     -17.650 -12.575  -0.682  1.00  0.00    -0.337 N 
ATOM     39  C   GLY A   1     -18.811 -12.473  -1.423  1.00  0.00     0.248 C 
ATOM     40  O   GLY A   1     -19.012 -11.548  -2.212  1.00  0.00    -0.271 OA
BRANCH  39  41
ATOM     41  CA  GLY A   1     -19.834 -13.620  -1.303  1.00  0.00     0.369 C 
BRANCH  41  42
ATOM     42  N   GLY A   1     -21.194 -13.077  -1.183  1.00  0.00     0.087 N 
ATOM     43  H1  GLY A   1     -21.318 -12.368  -1.909  1.00  0.00     0.313 HD
ATOM     44  H2  GLY A   1     -21.280 -12.585  -0.295  1.00  0.00     0.313 HD
ENDBRANCH  41  42
ENDBRANCH  39  41
ENDBRANCH  31  34
ENDBRANCH  29  30
BRANCH  29  45
ATOM     45  CB  GLN A   3     -13.423 -12.676  -4.055  1.00  0.00     0.043 C 
BRANCH  45  46
ATOM     46  CG  GLN A   3     -13.683 -14.125  -3.723  1.00  0.00     0.099 C 
BRANCH  46  47
ATOM     47  CD  GLN A   3     -13.767 -14.986  -4.959  1.00  0.00     0.195 C 
ATOM     48  OE1 GLN A   3     -14.230 -16.104  -5.041  1.00  0.00    -0.280 OA
ATOM     49  NE2 GLN A   3     -13.201 -14.381  -6.037  1.00  0.00    -0.273 NA
ATOM     50 1HE2 GLN A   3     -13.312 -13.380  -5.994  1.00  0.00     0.127 HD
ATOM     51 2HE2 GLN A   3     -13.399 -14.828  -6.920  1.00  0.00     0.127 HD
ENDBRANCH  46  47
ENDBRANCH  45  46
ENDBRANCH  29  45
ENDBRANCH   1  29
TORSDOF 17
ENDMDL
