MODEL 1
REMARK VINA RESULT:      -6.5      0.000      0.000
REMARK  2 active torsions:
REMARK  status: ('A' for Active; 'I' for Inactive)
REMARK    1  A    between atoms: C_4  and  C_7 
REMARK    2  A    between atoms: C_7  and  O_8 
ROOT
HETATM    1  C   UNL     1     -20.519  -4.375  -9.829  1.00  0.00     0.000 A 
HETATM    2  C   UNL     1     -21.547  -4.337  -8.884  1.00  0.00     0.001 A 
HETATM    3  C   UNL     1     -22.819  -3.901  -9.262  1.00  0.00     0.017 A 
HETATM    4  C   UNL     1     -23.074  -3.516 -10.581  1.00  0.00     0.042 A 
HETATM    5  C   UNL     1     -22.018  -3.521 -11.513  1.00  0.00     0.017 A 
HETATM    6  C   UNL     1     -20.747  -3.945 -11.133  1.00  0.00     0.001 A 
ENDROOT
BRANCH   4   7
HETATM    7  C   UNL     1     -24.484  -3.275 -11.035  1.00  0.00     0.323 C 
HETATM    8  O   UNL     1     -24.692  -2.899 -12.217  1.00  0.00    -0.257 OA
BRANCH   7   9
HETATM    9  O   UNL     1     -25.332  -3.218 -10.078  1.00  0.00    -0.144 OA
HETATM   10 NA   UNL     2     -25.962  -5.005  -9.525  1.00  0.00     0.000 Na
ENDBRANCH   7   9
ENDBRANCH   4   7
TORSDOF 2
ENDMDL
MODEL 2
REMARK VINA RESULT:      -6.5      0.347      1.565
REMARK  2 active torsions:
REMARK  status: ('A' for Active; 'I' for Inactive)
REMARK    1  A    between atoms: C_4  and  C_7 
REMARK    2  A    between atoms: C_7  and  O_8 
ROOT
HETATM    1  C   UNL     1     -20.482  -4.222  -9.949  1.00  0.00     0.000 A 
HETATM    2  C   UNL     1     -20.848  -3.883 -11.253  1.00  0.00     0.001 A 
HETATM    3  C   UNL     1     -22.194  -3.687 -11.566  1.00  0.00     0.017 A 
HETATM    4  C   UNL     1     -23.177  -3.813 -10.581  1.00  0.00     0.042 A 
HETATM    5  C   UNL     1     -22.799  -4.196  -9.279  1.00  0.00     0.017 A 
HETATM    6  C   UNL     1     -21.456  -4.402  -8.971  1.00  0.00     0.001 A 
ENDROOT
BRANCH   4   7
HETATM    7  C   UNL     1     -24.585  -3.376 -10.862  1.00  0.00     0.323 C 
HETATM    8  O   UNL     1     -24.900  -3.035 -12.031  1.00  0.00    -0.257 OA
BRANCH   7   9
HETATM    9  O   UNL     1     -25.270  -3.133  -9.808  1.00  0.00    -0.144 OA
HETATM   10 NA   UNL     2     -26.606  -4.540  -9.441  1.00  0.00     0.000 Na
ENDBRANCH   7   9
ENDBRANCH   4   7
TORSDOF 2
ENDMDL
MODEL 3
REMARK VINA RESULT:      -6.3      1.763      2.539
REMARK  2 active torsions:
REMARK  status: ('A' for Active; 'I' for Inactive)
REMARK    1  A    between atoms: C_4  and  C_7 
REMARK    2  A    between atoms: C_7  and  O_8 
ROOT
HETATM    1  C   UNL     1     -20.370  -4.304  -9.593  1.00  0.00     0.000 A 
HETATM    2  C   UNL     1     -20.548  -4.063 -10.957  1.00  0.00     0.001 A 
HETATM    3  C   UNL     1     -21.827  -3.806 -11.453  1.00  0.00     0.017 A 
HETATM    4  C   UNL     1     -22.928  -3.772 -10.593  1.00  0.00     0.042 A 
HETATM    5  C   UNL     1     -22.740  -4.056  -9.227  1.00  0.00     0.017 A 
HETATM    6  C   UNL     1     -21.465  -4.325  -8.735  1.00  0.00     0.001 A 
ENDROOT
BRANCH   4   7
HETATM    7  C   UNL     1     -24.253  -3.267 -11.086  1.00  0.00     0.323 C 
HETATM    8  O   UNL     1     -25.233  -3.245 -10.298  1.00  0.00    -0.257 OA
BRANCH   7   9
HETATM    9  O   UNL     1     -24.322  -3.159 -12.360  1.00  0.00    -0.144 OA
HETATM   10 NA   UNL     2     -23.651  -1.416 -13.002  1.00  0.00     0.000 Na
ENDBRANCH   7   9
ENDBRANCH   4   7
TORSDOF 2
ENDMDL
MODEL 4
REMARK VINA RESULT:      -6.0     10.660     11.765
REMARK  2 active torsions:
REMARK  status: ('A' for Active; 'I' for Inactive)
REMARK    1  A    between atoms: C_4  and  C_7 
REMARK    2  A    between atoms: C_7  and  O_8 
ROOT
HETATM    1  C   UNL     1     -33.393  -5.237 -11.261  1.00  0.00     0.000 A 
HETATM    2  C   UNL     1     -34.723  -5.239 -10.835  1.00  0.00     0.001 A 
HETATM    3  C   UNL     1     -35.449  -4.046 -10.827  1.00  0.00     0.017 A 
HETATM    4  C   UNL     1     -34.860  -2.854 -11.255  1.00  0.00     0.042 A 
HETATM    5  C   UNL     1     -33.507  -2.859 -11.645  1.00  0.00     0.017 A 
HETATM    6  C   UNL     1     -32.780  -4.047 -11.642  1.00  0.00     0.001 A 
ENDROOT
BRANCH   4   7
HETATM    7  C   UNL     1     -35.704  -1.631 -11.467  1.00  0.00     0.323 C 
HETATM    8  O   UNL     1     -36.291  -1.474 -12.568  1.00  0.00    -0.257 OA
BRANCH   7   9
HETATM    9  O   UNL     1     -35.524  -0.721 -10.585  1.00  0.00    -0.144 OA
HETATM   10 NA   UNL     2     -34.221  -1.263  -9.203  1.00  0.00     0.000 Na
ENDBRANCH   7   9
ENDBRANCH   4   7
TORSDOF 2
ENDMDL
MODEL 5
REMARK VINA RESULT:      -6.0     11.201     12.419
REMARK  2 active torsions:
REMARK  status: ('A' for Active; 'I' for Inactive)
REMARK    1  A    between atoms: C_4  and  C_7 
REMARK    2  A    between atoms: C_7  and  O_8 
ROOT
HETATM    1  C   UNL     1     -33.332  -4.366 -11.096  1.00  0.00     0.000 A 
HETATM    2  C   UNL     1     -33.041  -3.003 -11.185  1.00  0.00     0.001 A 
HETATM    3  C   UNL     1     -34.068  -2.066 -11.051  1.00  0.00     0.017 A 
HETATM    4  C   UNL     1     -35.381  -2.482 -10.815  1.00  0.00     0.042 A 
HETATM    5  C   UNL     1     -35.667  -3.860 -10.768  1.00  0.00     0.017 A 
HETATM    6  C   UNL     1     -34.643  -4.794 -10.913  1.00  0.00     0.001 A 
ENDROOT
BRANCH   4   7
HETATM    7  C   UNL     1     -36.431  -1.477 -10.440  1.00  0.00     0.323 C 
HETATM    8  O   UNL     1     -37.471  -1.387 -11.142  1.00  0.00    -0.257 OA
BRANCH   7   9
HETATM    9  O   UNL     1     -36.036  -0.612  -9.583  1.00  0.00    -0.144 OA
HETATM   10 NA   UNL     2     -35.822   1.184 -10.375  1.00  0.00     0.000 Na
ENDBRANCH   7   9
ENDBRANCH   4   7
TORSDOF 2
ENDMDL
MODEL 6
REMARK VINA RESULT:      -5.9     10.588     11.845
REMARK  2 active torsions:
REMARK  status: ('A' for Active; 'I' for Inactive)
REMARK    1  A    between atoms: C_4  and  C_7 
REMARK    2  A    between atoms: C_7  and  O_8 
ROOT
HETATM    1  C   UNL     1     -33.335  -5.481 -11.190  1.00  0.00     0.000 A 
HETATM    2  C   UNL     1     -32.728  -4.352 -11.744  1.00  0.00     0.001 A 
HETATM    3  C   UNL     1     -33.446  -3.158 -11.842  1.00  0.00     0.017 A 
HETATM    4  C   UNL     1     -34.761  -3.082 -11.377  1.00  0.00     0.042 A 
HETATM    5  C   UNL     1     -35.375  -4.239 -10.858  1.00  0.00     0.017 A 
HETATM    6  C   UNL     1     -34.661  -5.432 -10.772  1.00  0.00     0.001 A 
ENDROOT
BRANCH   4   7
HETATM    7  C   UNL     1     -35.445  -1.750 -11.268  1.00  0.00     0.323 C 
HETATM    8  O   UNL     1     -36.682  -1.711 -11.047  1.00  0.00    -0.257 OA
BRANCH   7   9
HETATM    9  O   UNL     1     -34.734  -0.770 -11.686  1.00  0.00    -0.144 OA
HETATM   10 NA   UNL     2     -34.332  -0.903 -13.614  1.00  0.00     0.000 Na
ENDBRANCH   7   9
ENDBRANCH   4   7
TORSDOF 2
ENDMDL
MODEL 7
REMARK VINA RESULT:      -5.6      7.399      8.942
REMARK  2 active torsions:
REMARK  status: ('A' for Active; 'I' for Inactive)
REMARK    1  A    between atoms: C_4  and  C_7 
REMARK    2  A    between atoms: C_7  and  O_8 
ROOT
HETATM    1  C   UNL     1     -29.138  -6.593 -18.110  1.00  0.00     0.000 A 
HETATM    2  C   UNL     1     -27.931  -6.233 -18.713  1.00  0.00     0.001 A 
HETATM    3  C   UNL     1     -26.771  -6.145 -17.941  1.00  0.00     0.017 A 
HETATM    4  C   UNL     1     -26.806  -6.429 -16.573  1.00  0.00     0.042 A 
HETATM    5  C   UNL     1     -28.037  -6.751 -15.970  1.00  0.00     0.017 A 
HETATM    6  C   UNL     1     -29.196  -6.827 -16.739  1.00  0.00     0.001 A 
ENDROOT
BRANCH   4   7
HETATM    7  C   UNL     1     -25.527  -6.562 -15.799  1.00  0.00     0.323 C 
HETATM    8  O   UNL     1     -24.955  -5.525 -15.377  1.00  0.00    -0.257 OA
BRANCH   7   9
HETATM    9  O   UNL     1     -24.995  -7.723 -15.878  1.00  0.00    -0.144 OA
HETATM   10 NA   UNL     2     -23.580  -7.808 -17.253  1.00  0.00     0.000 Na
ENDBRANCH   7   9
ENDBRANCH   4   7
TORSDOF 2
ENDMDL
MODEL 8
REMARK VINA RESULT:      -5.6      2.712      3.669
REMARK  2 active torsions:
REMARK  status: ('A' for Active; 'I' for Inactive)
REMARK    1  A    between atoms: C_4  and  C_7 
REMARK    2  A    between atoms: C_7  and  O_8 
ROOT
HETATM    1  C   UNL     1     -21.649  -3.681 -11.689  1.00  0.00     0.000 A 
HETATM    2  C   UNL     1     -20.426  -4.039 -11.117  1.00  0.00     0.001 A 
HETATM    3  C   UNL     1     -20.373  -4.407  -9.771  1.00  0.00     0.017 A 
HETATM    4  C   UNL     1     -21.536  -4.434  -8.996  1.00  0.00     0.042 A 
HETATM    5  C   UNL     1     -22.755  -4.032  -9.575  1.00  0.00     0.017 A 
HETATM    6  C   UNL     1     -22.805  -3.654 -10.915  1.00  0.00     0.001 A 
ENDROOT
BRANCH   4   7
HETATM    7  C   UNL     1     -21.514  -5.050  -7.628  1.00  0.00     0.323 C 
HETATM    8  O   UNL     1     -21.059  -6.214  -7.486  1.00  0.00    -0.257 OA
BRANCH   7   9
HETATM    9  O   UNL     1     -22.221  -4.420  -6.767  1.00  0.00    -0.144 OA
HETATM   10 NA   UNL     2     -24.155  -4.736  -7.009  1.00  0.00     0.000 Na
ENDBRANCH   7   9
ENDBRANCH   4   7
TORSDOF 2
ENDMDL
MODEL 9
REMARK VINA RESULT:      -5.6      1.237      1.457
REMARK  2 active torsions:
REMARK  status: ('A' for Active; 'I' for Inactive)
REMARK    1  A    between atoms: C_4  and  C_7 
REMARK    2  A    between atoms: C_7  and  O_8 
ROOT
HETATM    1  C   UNL     1     -20.276  -3.796 -11.143  1.00  0.00     0.000 A 
HETATM    2  C   UNL     1     -20.704  -4.202  -9.878  1.00  0.00     0.001 A 
HETATM    3  C   UNL     1     -22.062  -4.151  -9.557  1.00  0.00     0.017 A 
HETATM    4  C   UNL     1     -22.997  -3.710 -10.496  1.00  0.00     0.042 A 
HETATM    5  C   UNL     1     -22.548  -3.265 -11.755  1.00  0.00     0.017 A 
HETATM    6  C   UNL     1     -21.191  -3.305 -12.070  1.00  0.00     0.001 A 
ENDROOT
BRANCH   4   7
HETATM    7  C   UNL     1     -24.465  -3.877 -10.233  1.00  0.00     0.323 C 
HETATM    8  O   UNL     1     -25.279  -3.083 -10.770  1.00  0.00    -0.257 OA
BRANCH   7   9
HETATM    9  O   UNL     1     -24.728  -4.662  -9.256  1.00  0.00    -0.144 OA
HETATM   10 NA   UNL     2     -24.317  -3.844  -7.506  1.00  0.00     0.000 Na
ENDBRANCH   7   9
ENDBRANCH   4   7
TORSDOF 2
ENDMDL
