MODEL 1
REMARK VINA RESULT:      -6.2      0.000      0.000
REMARK  11 active torsions:
REMARK  status: ('A' for Active; 'I' for Inactive)
REMARK    1  A    between atoms: C_2  and  C_3 
REMARK    2  A    between atoms: C_3  and  C_4 
REMARK    3  A    between atoms: C_4  and  C_5 
REMARK    4  A    between atoms: C_5  and  C_6 
REMARK    5  A    between atoms: C_6  and  C_7 
REMARK    6  A    between atoms: C_7  and  C_8 
REMARK    7  A    between atoms: C_8  and  C_9 
REMARK    8  A    between atoms: C_9  and  C_10 
REMARK    9  A    between atoms: C_10  and  C_11 
REMARK   10  A    between atoms: C_11  and  C_12 
REMARK   11  A    between atoms: C_12  and  C_13 
ROOT
HETATM    1  C   UNL     1     -36.816  -1.077 -10.309  1.00  0.00     0.000 C 
ENDROOT
BRANCH   1   2
HETATM    2  C   UNL     1     -36.493  -0.088  -9.193  1.00  0.00     0.000 C 
BRANCH   2   3
HETATM    3  C   UNL     1     -37.770   0.392  -8.512  1.00  0.00     0.000 C 
BRANCH   3   4
HETATM    4  C   UNL     1     -37.870  -0.158  -7.092  1.00  0.00     0.000 C 
BRANCH   4   5
HETATM    5  C   UNL     1     -37.040   0.682  -6.126  1.00  0.00    -0.000 C 
BRANCH   5   6
HETATM    6  C   UNL     1     -37.722   0.791  -4.765  1.00  0.00    -0.005 C 
HETATM    7  C   UNL     1     -37.887  -0.577  -4.125  1.00  0.00     0.005 C 
ENDBRANCH   5   6
ENDBRANCH   4   5
ENDBRANCH   3   4
ENDBRANCH   2   3
ENDBRANCH   1   2
BRANCH   1   8
HETATM    8  C   UNL     1     -35.826  -0.937 -11.460  1.00  0.00     0.000 C 
BRANCH   8   9
HETATM    9  C   UNL     1     -35.168  -2.277 -11.773  1.00  0.00     0.000 C 
BRANCH   9  10
HETATM   10  C   UNL     1     -33.795  -2.371 -11.116  1.00  0.00     0.000 C 
BRANCH  10  11
HETATM   11  C   UNL     1     -33.278  -3.805 -11.139  1.00  0.00     0.000 C 
BRANCH  11  12
HETATM   12  C   UNL     1     -34.253  -4.744 -10.427  1.00  0.00    -0.000 C 
BRANCH  12  13
HETATM   13  C   UNL     1     -33.980  -6.200 -10.792  1.00  0.00    -0.005 C 
HETATM   14  C   UNL     1     -34.853  -7.139  -9.977  1.00  0.00     0.005 C 
ENDBRANCH  12  13
ENDBRANCH  11  12
ENDBRANCH  10  11
ENDBRANCH   9  10
ENDBRANCH   8   9
ENDBRANCH   1   8
TORSDOF 11
ENDMDL
MODEL 2
REMARK VINA RESULT:      -6.1      1.216      6.842
REMARK  11 active torsions:
REMARK  status: ('A' for Active; 'I' for Inactive)
REMARK    1  A    between atoms: C_2  and  C_3 
REMARK    2  A    between atoms: C_3  and  C_4 
REMARK    3  A    between atoms: C_4  and  C_5 
REMARK    4  A    between atoms: C_5  and  C_6 
REMARK    5  A    between atoms: C_6  and  C_7 
REMARK    6  A    between atoms: C_7  and  C_8 
REMARK    7  A    between atoms: C_8  and  C_9 
REMARK    8  A    between atoms: C_9  and  C_10 
REMARK    9  A    between atoms: C_10  and  C_11 
REMARK   10  A    between atoms: C_11  and  C_12 
REMARK   11  A    between atoms: C_12  and  C_13 
ROOT
HETATM    1  C   UNL     1     -34.116  -1.988 -10.721  1.00  0.00     0.000 C 
ENDROOT
BRANCH   1   2
HETATM    2  C   UNL     1     -33.098  -3.059 -11.101  1.00  0.00     0.000 C 
BRANCH   2   3
HETATM    3  C   UNL     1     -33.664  -3.984 -12.174  1.00  0.00     0.000 C 
BRANCH   3   4
HETATM    4  C   UNL     1     -34.627  -5.000 -11.565  1.00  0.00     0.000 C 
BRANCH   4   5
HETATM    5  C   UNL     1     -33.863  -6.159 -10.933  1.00  0.00    -0.000 C 
BRANCH   5   6
HETATM    6  C   UNL     1     -34.747  -6.937  -9.962  1.00  0.00    -0.005 C 
HETATM    7  C   UNL     1     -34.285  -8.379  -9.837  1.00  0.00     0.005 C 
ENDBRANCH   5   6
ENDBRANCH   4   5
ENDBRANCH   3   4
ENDBRANCH   2   3
ENDBRANCH   1   2
BRANCH   1   8
HETATM    8  C   UNL     1     -34.663  -1.295 -11.965  1.00  0.00     0.000 C 
BRANCH   8   9
HETATM    9  C   UNL     1     -36.020  -0.660 -11.677  1.00  0.00     0.000 C 
BRANCH   9  10
HETATM   10  C   UNL     1     -36.463  -0.960 -10.249  1.00  0.00     0.000 C 
BRANCH  10  11
HETATM   11  C   UNL     1     -37.661  -0.099  -9.860  1.00  0.00     0.000 C 
BRANCH  11  12
HETATM   12  C   UNL     1     -37.228   1.050  -8.949  1.00  0.00    -0.000 C 
BRANCH  12  13
HETATM   13  C   UNL     1     -36.447   0.533  -7.745  1.00  0.00    -0.005 C 
HETATM   14  C   UNL     1     -37.119   0.939  -6.445  1.00  0.00     0.005 C 
ENDBRANCH  12  13
ENDBRANCH  11  12
ENDBRANCH  10  11
ENDBRANCH   9  10
ENDBRANCH   8   9
ENDBRANCH   1   8
TORSDOF 11
ENDMDL
MODEL 3
REMARK VINA RESULT:      -6.0      3.086      6.821
REMARK  11 active torsions:
REMARK  status: ('A' for Active; 'I' for Inactive)
REMARK    1  A    between atoms: C_2  and  C_3 
REMARK    2  A    between atoms: C_3  and  C_4 
REMARK    3  A    between atoms: C_4  and  C_5 
REMARK    4  A    between atoms: C_5  and  C_6 
REMARK    5  A    between atoms: C_6  and  C_7 
REMARK    6  A    between atoms: C_7  and  C_8 
REMARK    7  A    between atoms: C_8  and  C_9 
REMARK    8  A    between atoms: C_9  and  C_10 
REMARK    9  A    between atoms: C_10  and  C_11 
REMARK   10  A    between atoms: C_11  and  C_12 
REMARK   11  A    between atoms: C_12  and  C_13 
ROOT
HETATM    1  C   UNL     1     -34.128  -2.134 -10.427  1.00  0.00     0.000 C 
ENDROOT
BRANCH   1   2
HETATM    2  C   UNL     1     -33.413  -3.383 -10.934  1.00  0.00     0.000 C 
BRANCH   2   3
HETATM    3  C   UNL     1     -34.067  -3.897 -12.212  1.00  0.00     0.000 C 
BRANCH   3   4
HETATM    4  C   UNL     1     -34.602  -5.313 -12.019  1.00  0.00     0.000 C 
BRANCH   4   5
HETATM    5  C   UNL     1     -33.846  -6.031 -10.906  1.00  0.00    -0.000 C 
BRANCH   5   6
HETATM    6  C   UNL     1     -34.798  -6.822 -10.014  1.00  0.00    -0.005 C 
HETATM    7  C   UNL     1     -34.380  -8.281  -9.927  1.00  0.00     0.005 C 
ENDBRANCH   5   6
ENDBRANCH   4   5
ENDBRANCH   3   4
ENDBRANCH   2   3
ENDBRANCH   1   2
BRANCH   1   8
HETATM    8  C   UNL     1     -35.631  -2.237 -10.662  1.00  0.00     0.000 C 
BRANCH   8   9
HETATM    9  C   UNL     1     -36.299  -0.876 -10.491  1.00  0.00     0.000 C 
BRANCH   9  10
HETATM   10  C   UNL     1     -37.032  -0.472 -11.766  1.00  0.00     0.000 C 
BRANCH  10  11
HETATM   11  C   UNL     1     -36.112  -0.576 -12.977  1.00  0.00     0.000 C 
BRANCH  11  12
HETATM   12  C   UNL     1     -35.026   0.500 -12.927  1.00  0.00    -0.000 C 
BRANCH  12  13
HETATM   13  C   UNL     1     -34.739   1.057 -14.317  1.00  0.00    -0.005 C 
HETATM   14  C   UNL     1     -35.879   0.749 -15.273  1.00  0.00     0.005 C 
ENDBRANCH  12  13
ENDBRANCH  11  12
ENDBRANCH  10  11
ENDBRANCH   9  10
ENDBRANCH   8   9
ENDBRANCH   1   8
TORSDOF 11
ENDMDL
MODEL 4
REMARK VINA RESULT:      -5.9     14.725     16.653
REMARK  11 active torsions:
REMARK  status: ('A' for Active; 'I' for Inactive)
REMARK    1  A    between atoms: C_2  and  C_3 
REMARK    2  A    between atoms: C_3  and  C_4 
REMARK    3  A    between atoms: C_4  and  C_5 
REMARK    4  A    between atoms: C_5  and  C_6 
REMARK    5  A    between atoms: C_6  and  C_7 
REMARK    6  A    between atoms: C_7  and  C_8 
REMARK    7  A    between atoms: C_8  and  C_9 
REMARK    8  A    between atoms: C_9  and  C_10 
REMARK    9  A    between atoms: C_10  and  C_11 
REMARK   10  A    between atoms: C_11  and  C_12 
REMARK   11  A    between atoms: C_12  and  C_13 
ROOT
HETATM    1  C   UNL     1     -20.387  -4.971  -5.581  1.00  0.00     0.000 C 
ENDROOT
BRANCH   1   2
HETATM    2  C   UNL     1     -20.244  -4.276  -6.931  1.00  0.00     0.000 C 
BRANCH   2   3
HETATM    3  C   UNL     1     -21.609  -3.875  -7.480  1.00  0.00     0.000 C 
BRANCH   3   4
HETATM    4  C   UNL     1     -21.769  -4.329  -8.928  1.00  0.00     0.000 C 
BRANCH   4   5
HETATM    5  C   UNL     1     -20.410  -4.465  -9.606  1.00  0.00    -0.000 C 
BRANCH   5   6
HETATM    6  C   UNL     1     -20.492  -4.096 -11.085  1.00  0.00    -0.005 C 
HETATM    7  C   UNL     1     -21.617  -3.106 -11.339  1.00  0.00     0.005 C 
ENDBRANCH   5   6
ENDBRANCH   4   5
ENDBRANCH   3   4
ENDBRANCH   2   3
ENDBRANCH   1   2
BRANCH   1   8
HETATM    8  C   UNL     1     -20.930  -6.386  -5.755  1.00  0.00     0.000 C 
BRANCH   8   9
HETATM    9  C   UNL     1     -21.774  -6.793  -4.552  1.00  0.00     0.000 C 
BRANCH   9  10
HETATM   10  C   UNL     1     -21.392  -5.973  -3.323  1.00  0.00     0.000 C 
BRANCH  10  11
HETATM   11  C   UNL     1     -22.081  -6.514  -2.074  1.00  0.00     0.000 C 
BRANCH  11  12
HETATM   12  C   UNL     1     -21.292  -7.683  -1.484  1.00  0.00    -0.000 C 
BRANCH  12  13
HETATM   13  C   UNL     1     -22.215  -8.661  -0.764  1.00  0.00    -0.005 C 
HETATM   14  C   UNL     1     -22.968  -7.971   0.361  1.00  0.00     0.005 C 
ENDBRANCH  12  13
ENDBRANCH  11  12
ENDBRANCH  10  11
ENDBRANCH   9  10
ENDBRANCH   8   9
ENDBRANCH   1   8
TORSDOF 11
ENDMDL
MODEL 5
REMARK VINA RESULT:      -5.9     13.953     15.884
REMARK  11 active torsions:
REMARK  status: ('A' for Active; 'I' for Inactive)
REMARK    1  A    between atoms: C_2  and  C_3 
REMARK    2  A    between atoms: C_3  and  C_4 
REMARK    3  A    between atoms: C_4  and  C_5 
REMARK    4  A    between atoms: C_5  and  C_6 
REMARK    5  A    between atoms: C_6  and  C_7 
REMARK    6  A    between atoms: C_7  and  C_8 
REMARK    7  A    between atoms: C_8  and  C_9 
REMARK    8  A    between atoms: C_9  and  C_10 
REMARK    9  A    between atoms: C_10  and  C_11 
REMARK   10  A    between atoms: C_11  and  C_12 
REMARK   11  A    between atoms: C_12  and  C_13 
ROOT
HETATM    1  C   UNL     1     -20.711  -5.049  -5.659  1.00  0.00     0.000 C 
ENDROOT
BRANCH   1   2
HETATM    2  C   UNL     1     -20.913  -6.543  -5.423  1.00  0.00     0.000 C 
BRANCH   2   3
HETATM    3  C   UNL     1     -21.849  -6.780  -4.243  1.00  0.00     0.000 C 
BRANCH   3   4
HETATM    4  C   UNL     1     -21.330  -6.085  -2.988  1.00  0.00     0.000 C 
BRANCH   4   5
HETATM    5  C   UNL     1     -22.261  -6.333  -1.806  1.00  0.00    -0.000 C 
BRANCH   5   6
HETATM    6  C   UNL     1     -21.948  -7.663  -1.127  1.00  0.00    -0.005 C 
HETATM    7  C   UNL     1     -22.691  -7.791   0.193  1.00  0.00     0.005 C 
ENDBRANCH   5   6
ENDBRANCH   4   5
ENDBRANCH   3   4
ENDBRANCH   2   3
ENDBRANCH   1   2
BRANCH   1   8
HETATM    8  C   UNL     1     -19.487  -4.800  -6.535  1.00  0.00     0.000 C 
BRANCH   8   9
HETATM    9  C   UNL     1     -19.904  -4.418  -7.951  1.00  0.00     0.000 C 
BRANCH   9  10
HETATM   10  C   UNL     1     -21.325  -3.863  -7.964  1.00  0.00     0.000 C 
BRANCH  10  11
HETATM   11  C   UNL     1     -21.957  -4.019  -9.343  1.00  0.00     0.000 C 
BRANCH  11  12
HETATM   12  C   UNL     1     -20.880  -4.128 -10.423  1.00  0.00    -0.000 C 
BRANCH  12  13
HETATM   13  C   UNL     1     -21.433  -3.739 -11.791  1.00  0.00    -0.005 C 
HETATM   14  C   UNL     1     -22.776  -3.043 -11.658  1.00  0.00     0.005 C 
ENDBRANCH  12  13
ENDBRANCH  11  12
ENDBRANCH  10  11
ENDBRANCH   9  10
ENDBRANCH   8   9
ENDBRANCH   1   8
TORSDOF 11
ENDMDL
MODEL 6
REMARK VINA RESULT:      -5.8     15.596     17.158
REMARK  11 active torsions:
REMARK  status: ('A' for Active; 'I' for Inactive)
REMARK    1  A    between atoms: C_2  and  C_3 
REMARK    2  A    between atoms: C_3  and  C_4 
REMARK    3  A    between atoms: C_4  and  C_5 
REMARK    4  A    between atoms: C_5  and  C_6 
REMARK    5  A    between atoms: C_6  and  C_7 
REMARK    6  A    between atoms: C_7  and  C_8 
REMARK    7  A    between atoms: C_8  and  C_9 
REMARK    8  A    between atoms: C_9  and  C_10 
REMARK    9  A    between atoms: C_10  and  C_11 
REMARK   10  A    between atoms: C_11  and  C_12 
REMARK   11  A    between atoms: C_12  and  C_13 
ROOT
HETATM    1  C   UNL     1     -21.967  -6.532  -4.514  1.00  0.00     0.000 C 
ENDROOT
BRANCH   1   2
HETATM    2  C   UNL     1     -21.158  -7.159  -5.644  1.00  0.00     0.000 C 
BRANCH   2   3
HETATM    3  C   UNL     1     -20.114  -6.179  -6.169  1.00  0.00     0.000 C 
BRANCH   3   4
HETATM    4  C   UNL     1     -20.496  -4.741  -5.827  1.00  0.00     0.000 C 
BRANCH   4   5
HETATM    5  C   UNL     1     -20.944  -3.988  -7.075  1.00  0.00    -0.000 C 
BRANCH   5   6
HETATM    6  C   UNL     1     -19.841  -3.963  -8.129  1.00  0.00    -0.005 C 
HETATM    7  C   UNL     1     -20.372  -4.397  -9.486  1.00  0.00     0.005 C 
ENDBRANCH   5   6
ENDBRANCH   4   5
ENDBRANCH   3   4
ENDBRANCH   2   3
ENDBRANCH   1   2
BRANCH   1   8
HETATM    8  C   UNL     1     -21.361  -6.877  -3.157  1.00  0.00     0.000 C 
BRANCH   8   9
HETATM    9  C   UNL     1     -22.012  -6.056  -2.049  1.00  0.00     0.000 C 
BRANCH   9  10
HETATM   10  C   UNL     1     -22.352  -6.940  -0.853  1.00  0.00     0.000 C 
BRANCH  10  11
HETATM   11  C   UNL     1     -21.515  -8.215  -0.864  1.00  0.00     0.000 C 
BRANCH  11  12
HETATM   12  C   UNL     1     -21.975  -9.174   0.234  1.00  0.00    -0.000 C 
BRANCH  12  13
HETATM   13  C   UNL     1     -23.481  -9.404   0.168  1.00  0.00    -0.005 C 
HETATM   14  C   UNL     1     -23.798 -10.808  -0.318  1.00  0.00     0.005 C 
ENDBRANCH  12  13
ENDBRANCH  11  12
ENDBRANCH  10  11
ENDBRANCH   9  10
ENDBRANCH   8   9
ENDBRANCH   1   8
TORSDOF 11
ENDMDL
MODEL 7
REMARK VINA RESULT:      -5.7     13.047     15.934
REMARK  11 active torsions:
REMARK  status: ('A' for Active; 'I' for Inactive)
REMARK    1  A    between atoms: C_2  and  C_3 
REMARK    2  A    between atoms: C_3  and  C_4 
REMARK    3  A    between atoms: C_4  and  C_5 
REMARK    4  A    between atoms: C_5  and  C_6 
REMARK    5  A    between atoms: C_6  and  C_7 
REMARK    6  A    between atoms: C_7  and  C_8 
REMARK    7  A    between atoms: C_8  and  C_9 
REMARK    8  A    between atoms: C_9  and  C_10 
REMARK    9  A    between atoms: C_10  and  C_11 
REMARK   10  A    between atoms: C_11  and  C_12 
REMARK   11  A    between atoms: C_12  and  C_13 
ROOT
HETATM    1  C   UNL     1     -20.230  -4.053  -8.008  1.00  0.00     0.000 C 
ENDROOT
BRANCH   1   2
HETATM    2  C   UNL     1     -21.752  -3.953  -8.018  1.00  0.00     0.000 C 
BRANCH   2   3
HETATM    3  C   UNL     1     -22.304  -4.272  -9.403  1.00  0.00     0.000 C 
BRANCH   3   4
HETATM    4  C   UNL     1     -21.250  -4.029 -10.479  1.00  0.00     0.000 C 
BRANCH   4   5
HETATM    5  C   UNL     1     -21.799  -3.134 -11.585  1.00  0.00    -0.000 C 
BRANCH   5   6
HETATM    6  C   UNL     1     -23.302  -2.920 -11.425  1.00  0.00    -0.005 C 
HETATM    7  C   UNL     1     -24.060  -3.431 -12.640  1.00  0.00     0.005 C 
ENDBRANCH   5   6
ENDBRANCH   4   5
ENDBRANCH   3   4
ENDBRANCH   2   3
ENDBRANCH   1   2
BRANCH   1   8
HETATM    8  C   UNL     1     -19.775  -5.301  -7.257  1.00  0.00     0.000 C 
BRANCH   8   9
HETATM    9  C   UNL     1     -20.325  -5.307  -5.834  1.00  0.00     0.000 C 
BRANCH   9  10
HETATM   10  C   UNL     1     -20.834  -6.695  -5.460  1.00  0.00     0.000 C 
BRANCH  10  11
HETATM   11  C   UNL     1     -21.957  -6.603  -4.432  1.00  0.00     0.000 C 
BRANCH  11  12
HETATM   12  C   UNL     1     -21.427  -6.076  -3.098  1.00  0.00    -0.000 C 
BRANCH  12  13
HETATM   13  C   UNL     1     -21.366  -7.186  -2.053  1.00  0.00    -0.005 C 
HETATM   14  C   UNL     1     -22.370  -6.942  -0.940  1.00  0.00     0.005 C 
ENDBRANCH  12  13
ENDBRANCH  11  12
ENDBRANCH  10  11
ENDBRANCH   9  10
ENDBRANCH   8   9
ENDBRANCH   1   8
TORSDOF 11
ENDMDL
MODEL 8
REMARK VINA RESULT:      -5.7     14.164     16.357
REMARK  11 active torsions:
REMARK  status: ('A' for Active; 'I' for Inactive)
REMARK    1  A    between atoms: C_2  and  C_3 
REMARK    2  A    between atoms: C_3  and  C_4 
REMARK    3  A    between atoms: C_4  and  C_5 
REMARK    4  A    between atoms: C_5  and  C_6 
REMARK    5  A    between atoms: C_6  and  C_7 
REMARK    6  A    between atoms: C_7  and  C_8 
REMARK    7  A    between atoms: C_8  and  C_9 
REMARK    8  A    between atoms: C_9  and  C_10 
REMARK    9  A    between atoms: C_10  and  C_11 
REMARK   10  A    between atoms: C_11  and  C_12 
REMARK   11  A    between atoms: C_12  and  C_13 
ROOT
HETATM    1  C   UNL     1     -21.159  -7.768  -3.633  1.00  0.00     0.000 C 
ENDROOT
BRANCH   1   2
HETATM    2  C   UNL     1     -21.878  -6.483  -3.235  1.00  0.00     0.000 C 
BRANCH   2   3
HETATM    3  C   UNL     1     -22.164  -6.466  -1.737  1.00  0.00     0.000 C 
BRANCH   3   4
HETATM    4  C   UNL     1     -21.595  -7.710  -1.060  1.00  0.00     0.000 C 
BRANCH   4   5
HETATM    5  C   UNL     1     -22.096  -7.823   0.376  1.00  0.00    -0.000 C 
BRANCH   5   6
HETATM    6  C   UNL     1     -23.419  -8.581   0.439  1.00  0.00    -0.005 C 
HETATM    7  C   UNL     1     -23.294  -9.953  -0.204  1.00  0.00     0.005 C 
ENDBRANCH   5   6
ENDBRANCH   4   5
ENDBRANCH   3   4
ENDBRANCH   2   3
ENDBRANCH   1   2
BRANCH   1   8
HETATM    8  C   UNL     1     -21.147  -7.936  -5.149  1.00  0.00     0.000 C 
BRANCH   8   9
HETATM    9  C   UNL     1     -20.139  -6.987  -5.790  1.00  0.00     0.000 C 
BRANCH   9  10
HETATM   10  C   UNL     1     -20.837  -6.030  -6.751  1.00  0.00     0.000 C 
BRANCH  10  11
HETATM   11  C   UNL     1     -20.355  -4.598  -6.537  1.00  0.00     0.000 C 
BRANCH  11  12
HETATM   12  C   UNL     1     -21.320  -3.600  -7.177  1.00  0.00    -0.000 C 
BRANCH  12  13
HETATM   13  C   UNL     1     -22.586  -4.297  -7.667  1.00  0.00    -0.005 C 
HETATM   14  C   UNL     1     -22.964  -3.824  -9.060  1.00  0.00     0.005 C 
ENDBRANCH  12  13
ENDBRANCH  11  12
ENDBRANCH  10  11
ENDBRANCH   9  10
ENDBRANCH   8   9
ENDBRANCH   1   8
TORSDOF 11
ENDMDL
MODEL 9
REMARK VINA RESULT:      -5.4     15.477     17.330
REMARK  11 active torsions:
REMARK  status: ('A' for Active; 'I' for Inactive)
REMARK    1  A    between atoms: C_2  and  C_3 
REMARK    2  A    between atoms: C_3  and  C_4 
REMARK    3  A    between atoms: C_4  and  C_5 
REMARK    4  A    between atoms: C_5  and  C_6 
REMARK    5  A    between atoms: C_6  and  C_7 
REMARK    6  A    between atoms: C_7  and  C_8 
REMARK    7  A    between atoms: C_8  and  C_9 
REMARK    8  A    between atoms: C_9  and  C_10 
REMARK    9  A    between atoms: C_10  and  C_11 
REMARK   10  A    between atoms: C_11  and  C_12 
REMARK   11  A    between atoms: C_12  and  C_13 
ROOT
HETATM    1  C   UNL     1     -22.303  -6.673  -1.037  1.00  0.00     0.000 C 
ENDROOT
BRANCH   1   2
HETATM    2  C   UNL     1     -21.886  -6.368  -2.472  1.00  0.00     0.000 C 
BRANCH   2   3
HETATM    3  C   UNL     1     -21.098  -7.532  -3.064  1.00  0.00     0.000 C 
BRANCH   3   4
HETATM    4  C   UNL     1     -21.133  -7.494  -4.589  1.00  0.00     0.000 C 
BRANCH   4   5
HETATM    5  C   UNL     1     -22.141  -6.461  -5.083  1.00  0.00    -0.000 C 
BRANCH   5   6
HETATM    6  C   UNL     1     -21.523  -5.547  -6.137  1.00  0.00    -0.005 C 
HETATM    7  C   UNL     1     -20.298  -4.831  -5.590  1.00  0.00     0.005 C 
ENDBRANCH   5   6
ENDBRANCH   4   5
ENDBRANCH   3   4
ENDBRANCH   2   3
ENDBRANCH   1   2
BRANCH   1   8
HETATM    8  C   UNL     1     -21.858  -8.074  -0.630  1.00  0.00     0.000 C 
BRANCH   8   9
HETATM    9  C   UNL     1     -22.865  -8.706   0.326  1.00  0.00     0.000 C 
BRANCH   9  10
HETATM   10  C   UNL     1     -23.413 -10.007  -0.252  1.00  0.00     0.000 C 
BRANCH  10  11
HETATM   11  C   UNL     1     -22.405 -10.645  -1.202  1.00  0.00     0.000 C 
BRANCH  11  12
HETATM   12  C   UNL     1     -23.086 -11.082  -2.500  1.00  0.00    -0.000 C 
BRANCH  12  13
HETATM   13  C   UNL     1     -22.079 -11.184  -3.641  1.00  0.00    -0.005 C 
HETATM   14  C   UNL     1     -20.654 -11.123  -3.118  1.00  0.00     0.005 C 
ENDBRANCH  12  13
ENDBRANCH  11  12
ENDBRANCH  10  11
ENDBRANCH   9  10
ENDBRANCH   8   9
ENDBRANCH   1   8
TORSDOF 11
ENDMDL
