MODEL 1
REMARK VINA RESULT:      -7.0      0.000      0.000
REMARK  2 active torsions:
REMARK  status: ('A' for Active; 'I' for Inactive)
REMARK    1  A    between atoms: C_7  and  O_14 
REMARK    2  A    between atoms: C_8  and  O_12 
ROOT
HETATM    1  C   UNL     1     -21.227  -5.680  -4.436  1.00  0.00     0.046 C 
HETATM    2  C   UNL     1     -20.880  -5.636  -5.932  1.00  0.00     0.061 C 
HETATM    3  C   UNL     1     -19.581  -4.837  -6.108  1.00  0.00     0.042 C 
HETATM    4  C   UNL     1     -19.221  -4.711  -7.579  1.00  0.00     0.044 C 
HETATM    5  C   UNL     1     -20.438  -4.384  -8.394  1.00  0.00    -0.022 A 
HETATM    6  C   UNL     1     -20.288  -3.973  -9.725  1.00  0.00     0.049 A 
HETATM    7  C   UNL     1     -21.408  -3.670 -10.507  1.00  0.00     0.099 A 
HETATM    8  C   UNL     1     -22.695  -3.762  -9.968  1.00  0.00     0.103 A 
HETATM    9  C   UNL     1     -22.835  -4.186  -8.638  1.00  0.00     0.077 A 
HETATM   10  C   UNL     1     -21.722  -4.520  -7.864  1.00  0.00     0.079 A 
HETATM   11  O   UNL     1     -21.975  -4.972  -6.594  1.00  0.00    -0.340 OA
HETATM   12  C   UNL     1     -20.778  -7.083  -6.443  1.00  0.00     0.046 C 
ENDROOT
BRANCH   8  13
HETATM   13  O   UNL     1     -23.893  -3.494 -10.576  1.00  0.00    -0.353 OA
HETATM   14  C   UNL     1     -25.038  -3.323  -9.755  1.00  0.00     0.210 C 
ENDBRANCH   8  13
BRANCH   7  15
HETATM   15  O   UNL     1     -21.197  -3.291 -11.805  1.00  0.00    -0.358 OA
HETATM   16  H   UNL     1     -20.866  -4.050 -12.310  1.00  0.00     0.217 HD
ENDBRANCH   7  15
TORSDOF 2
ENDMDL
MODEL 2
REMARK VINA RESULT:      -6.6      1.970      3.618
REMARK  2 active torsions:
REMARK  status: ('A' for Active; 'I' for Inactive)
REMARK    1  A    between atoms: C_7  and  O_14 
REMARK    2  A    between atoms: C_8  and  O_12 
ROOT
HETATM    1  C   UNL     1     -19.497  -4.775  -7.750  1.00  0.00     0.046 C 
HETATM    2  C   UNL     1     -20.859  -4.227  -8.201  1.00  0.00     0.061 C 
HETATM    3  C   UNL     1     -21.914  -5.327  -8.012  1.00  0.00     0.042 C 
HETATM    4  C   UNL     1     -23.275  -4.858  -8.500  1.00  0.00     0.044 C 
HETATM    5  C   UNL     1     -23.147  -4.136  -9.808  1.00  0.00    -0.022 A 
HETATM    6  C   UNL     1     -24.298  -3.849 -10.556  1.00  0.00     0.049 A 
HETATM    7  C   UNL     1     -24.204  -3.169 -11.775  1.00  0.00     0.099 A 
HETATM    8  C   UNL     1     -22.958  -2.776 -12.273  1.00  0.00     0.103 A 
HETATM    9  C   UNL     1     -21.813  -3.056 -11.512  1.00  0.00     0.077 A 
HETATM   10  C   UNL     1     -21.905  -3.706 -10.280  1.00  0.00     0.079 A 
HETATM   11  O   UNL     1     -20.730  -3.884  -9.595  1.00  0.00    -0.340 OA
HETATM   12  C   UNL     1     -21.157  -2.955  -7.389  1.00  0.00     0.046 C 
ENDROOT
BRANCH   8  13
HETATM   13  O   UNL     1     -22.679  -2.120 -13.443  1.00  0.00    -0.353 OA
HETATM   14  C   UNL     1     -22.841  -2.829 -14.662  1.00  0.00     0.210 C 
ENDBRANCH   8  13
BRANCH   7  15
HETATM   15  O   UNL     1     -25.365  -2.904 -12.449  1.00  0.00    -0.358 OA
HETATM   16  H   UNL     1     -25.323  -2.007 -12.816  1.00  0.00     0.217 HD
ENDBRANCH   7  15
TORSDOF 2
ENDMDL
MODEL 3
REMARK VINA RESULT:      -6.3     12.634     14.251
REMARK  2 active torsions:
REMARK  status: ('A' for Active; 'I' for Inactive)
REMARK    1  A    between atoms: C_7  and  O_14 
REMARK    2  A    between atoms: C_8  and  O_12 
ROOT
HETATM    1  C   UNL     1     -34.445  -6.885 -10.382  1.00  0.00     0.046 C 
HETATM    2  C   UNL     1     -34.480  -5.596 -11.215  1.00  0.00     0.061 C 
HETATM    3  C   UNL     1     -33.060  -5.015 -11.275  1.00  0.00     0.042 C 
HETATM    4  C   UNL     1     -33.046  -3.702 -12.040  1.00  0.00     0.044 C 
HETATM    5  C   UNL     1     -34.208  -2.843 -11.637  1.00  0.00    -0.022 A 
HETATM    6  C   UNL     1     -34.241  -1.497 -12.026  1.00  0.00     0.049 A 
HETATM    7  C   UNL     1     -35.318  -0.679 -11.668  1.00  0.00     0.099 A 
HETATM    8  C   UNL     1     -36.373  -1.189 -10.906  1.00  0.00     0.103 A 
HETATM    9  C   UNL     1     -36.337  -2.541 -10.532  1.00  0.00     0.077 A 
HETATM   10  C   UNL     1     -35.280  -3.369 -10.913  1.00  0.00     0.079 A 
HETATM   11  O   UNL     1     -35.370  -4.686 -10.538  1.00  0.00    -0.340 OA
HETATM   12  C   UNL     1     -35.056  -5.935 -12.600  1.00  0.00     0.046 C 
ENDROOT
BRANCH   8  13
HETATM   13  O   UNL     1     -37.491  -0.536 -10.457  1.00  0.00    -0.353 OA
HETATM   14  C   UNL     1     -37.422   0.125  -9.203  1.00  0.00     0.210 C 
ENDBRANCH   8  13
BRANCH   7  15
HETATM   15  O   UNL     1     -35.300   0.621 -12.093  1.00  0.00    -0.358 OA
HETATM   16  H   UNL     1     -36.112   0.807 -12.589  1.00  0.00     0.217 HD
ENDBRANCH   7  15
TORSDOF 2
ENDMDL
MODEL 4
REMARK VINA RESULT:      -6.3      1.539      5.454
REMARK  2 active torsions:
REMARK  status: ('A' for Active; 'I' for Inactive)
REMARK    1  A    between atoms: C_7  and  O_14 
REMARK    2  A    between atoms: C_8  and  O_12 
ROOT
HETATM    1  C   UNL     1     -22.763  -2.975 -12.955  1.00  0.00     0.046 C 
HETATM    2  C   UNL     1     -23.055  -3.752 -11.663  1.00  0.00     0.061 C 
HETATM    3  C   UNL     1     -24.149  -3.009 -10.883  1.00  0.00     0.042 C 
HETATM    4  C   UNL     1     -24.437  -3.704  -9.562  1.00  0.00     0.044 C 
HETATM    5  C   UNL     1     -23.159  -4.110  -8.890  1.00  0.00    -0.022 A 
HETATM    6  C   UNL     1     -23.184  -4.531  -7.553  1.00  0.00     0.049 A 
HETATM    7  C   UNL     1     -22.006  -4.922  -6.908  1.00  0.00     0.099 A 
HETATM    8  C   UNL     1     -20.783  -4.888  -7.584  1.00  0.00     0.103 A 
HETATM    9  C   UNL     1     -20.769  -4.479  -8.925  1.00  0.00     0.077 A 
HETATM   10  C   UNL     1     -21.947  -4.117  -9.583  1.00  0.00     0.079 A 
HETATM   11  O   UNL     1     -21.828  -3.782 -10.908  1.00  0.00    -0.340 OA
HETATM   12  C   UNL     1     -23.452  -5.188 -12.046  1.00  0.00     0.046 C 
ENDROOT
BRANCH   8  13
HETATM   13  O   UNL     1     -19.540  -5.220  -7.110  1.00  0.00    -0.353 OA
HETATM   14  C   UNL     1     -18.459  -4.347  -7.399  1.00  0.00     0.210 C 
ENDBRANCH   8  13
BRANCH   7  15
HETATM   15  O   UNL     1     -22.099  -5.339  -5.608  1.00  0.00    -0.358 OA
HETATM   16  H   UNL     1     -22.001  -6.303  -5.573  1.00  0.00     0.217 HD
ENDBRANCH   7  15
TORSDOF 2
ENDMDL
MODEL 5
REMARK VINA RESULT:      -6.0     12.335     14.449
REMARK  2 active torsions:
REMARK  status: ('A' for Active; 'I' for Inactive)
REMARK    1  A    between atoms: C_7  and  O_14 
REMARK    2  A    between atoms: C_8  and  O_12 
ROOT
HETATM    1  C   UNL     1     -34.337  -5.700 -11.465  1.00  0.00     0.046 C 
HETATM    2  C   UNL     1     -33.989  -4.225 -11.712  1.00  0.00     0.061 C 
HETATM    3  C   UNL     1     -34.412  -3.412 -10.480  1.00  0.00     0.042 C 
HETATM    4  C   UNL     1     -34.143  -1.931 -10.694  1.00  0.00     0.044 C 
HETATM    5  C   UNL     1     -34.566  -1.511 -12.072  1.00  0.00    -0.022 A 
HETATM    6  C   UNL     1     -34.646  -0.148 -12.385  1.00  0.00     0.049 A 
HETATM    7  C   UNL     1     -35.029   0.267 -13.665  1.00  0.00     0.099 A 
HETATM    8  C   UNL     1     -35.350  -0.673 -14.648  1.00  0.00     0.103 A 
HETATM    9  C   UNL     1     -35.255  -2.036 -14.329  1.00  0.00     0.077 A 
HETATM   10  C   UNL     1     -34.843  -2.455 -13.062  1.00  0.00     0.079 A 
HETATM   11  O   UNL     1     -34.734  -3.809 -12.873  1.00  0.00    -0.340 OA
HETATM   12  C   UNL     1     -32.483  -4.132 -12.014  1.00  0.00     0.046 C 
ENDROOT
BRANCH   8  13
HETATM   13  O   UNL     1     -35.755  -0.449 -15.938  1.00  0.00    -0.353 OA
HETATM   14  C   UNL     1     -37.122  -0.658 -16.257  1.00  0.00     0.210 C 
ENDBRANCH   8  13
BRANCH   7  15
HETATM   15  O   UNL     1     -35.072   1.612 -13.914  1.00  0.00    -0.358 OA
HETATM   16  H   UNL     1     -34.390   2.057 -13.386  1.00  0.00     0.217 HD
ENDBRANCH   7  15
TORSDOF 2
ENDMDL
MODEL 6
REMARK VINA RESULT:      -5.9      4.242      7.020
REMARK  2 active torsions:
REMARK  status: ('A' for Active; 'I' for Inactive)
REMARK    1  A    between atoms: C_7  and  O_14 
REMARK    2  A    between atoms: C_8  and  O_12 
ROOT
HETATM    1  C   UNL     1     -21.191  -8.548   1.466  1.00  0.00     0.046 C 
HETATM    2  C   UNL     1     -21.584  -8.865   0.015  1.00  0.00     0.061 C 
HETATM    3  C   UNL     1     -20.705 -10.019  -0.487  1.00  0.00     0.042 C 
HETATM    4  C   UNL     1     -21.011 -10.337  -1.941  1.00  0.00     0.044 C 
HETATM    5  C   UNL     1     -21.146  -9.074  -2.740  1.00  0.00    -0.022 A 
HETATM    6  C   UNL     1     -21.171  -9.140  -4.140  1.00  0.00     0.049 A 
HETATM    7  C   UNL     1     -21.305  -7.977  -4.905  1.00  0.00     0.099 A 
HETATM    8  C   UNL     1     -21.403  -6.728  -4.285  1.00  0.00     0.103 A 
HETATM    9  C   UNL     1     -21.390  -6.672  -2.883  1.00  0.00     0.077 A 
HETATM   10  C   UNL     1     -21.289  -7.834  -2.115  1.00  0.00     0.079 A 
HETATM   11  O   UNL     1     -21.337  -7.671  -0.754  1.00  0.00    -0.340 OA
HETATM   12  C   UNL     1     -23.087  -9.188  -0.015  1.00  0.00     0.046 C 
ENDROOT
BRANCH   8  13
HETATM   13  O   UNL     1     -21.525  -5.495  -4.871  1.00  0.00    -0.353 OA
HETATM   14  C   UNL     1     -20.363  -4.903  -5.432  1.00  0.00     0.210 C 
ENDBRANCH   8  13
BRANCH   7  15
HETATM   15  O   UNL     1     -21.340  -8.109  -6.267  1.00  0.00    -0.358 OA
HETATM   16  H   UNL     1     -22.220  -7.862  -6.590  1.00  0.00     0.217 HD
ENDBRANCH   7  15
TORSDOF 2
ENDMDL
MODEL 7
REMARK VINA RESULT:      -5.8      5.828      8.027
REMARK  2 active torsions:
REMARK  status: ('A' for Active; 'I' for Inactive)
REMARK    1  A    between atoms: C_7  and  O_14 
REMARK    2  A    between atoms: C_8  and  O_12 
ROOT
HETATM    1  C   UNL     1     -22.851 -11.657   0.357  1.00  0.00     0.046 C 
HETATM    2  C   UNL     1     -22.261 -10.285  -0.003  1.00  0.00     0.061 C 
HETATM    3  C   UNL     1     -23.299  -9.205   0.330  1.00  0.00     0.042 C 
HETATM    4  C   UNL     1     -22.789  -7.828  -0.063  1.00  0.00     0.044 C 
HETATM    5  C   UNL     1     -22.135  -7.872  -1.413  1.00  0.00    -0.022 A 
HETATM    6  C   UNL     1     -21.830  -6.674  -2.073  1.00  0.00     0.049 A 
HETATM    7  C   UNL     1     -21.212  -6.691  -3.328  1.00  0.00     0.099 A 
HETATM    8  C   UNL     1     -20.902  -7.904  -3.950  1.00  0.00     0.103 A 
HETATM    9  C   UNL     1     -21.201  -9.098  -3.276  1.00  0.00     0.077 A 
HETATM   10  C   UNL     1     -21.788  -9.086  -2.009  1.00  0.00     0.079 A 
HETATM   11  O   UNL     1     -21.989 -10.307  -1.418  1.00  0.00    -0.340 OA
HETATM   12  C   UNL     1     -20.939 -10.115   0.766  1.00  0.00     0.046 C 
ENDROOT
BRANCH   8  13
HETATM   13  O   UNL     1     -20.316  -8.108  -5.172  1.00  0.00    -0.353 OA
HETATM   14  C   UNL     1     -19.134  -8.893  -5.224  1.00  0.00     0.210 C 
ENDBRANCH   8  13
BRANCH   7  15
HETATM   15  O   UNL     1     -20.924  -5.488  -3.913  1.00  0.00    -0.358 OA
HETATM   16  H   UNL     1     -20.013  -5.505  -4.247  1.00  0.00     0.217 HD
ENDBRANCH   7  15
TORSDOF 2
ENDMDL
MODEL 8
REMARK VINA RESULT:      -5.7     10.274     12.059
REMARK  2 active torsions:
REMARK  status: ('A' for Active; 'I' for Inactive)
REMARK    1  A    between atoms: C_7  and  O_14 
REMARK    2  A    between atoms: C_8  and  O_12 
ROOT
HETATM    1  C   UNL     1     -30.850  -5.727 -17.125  1.00  0.00     0.046 C 
HETATM    2  C   UNL     1     -29.498  -6.453 -17.076  1.00  0.00     0.061 C 
HETATM    3  C   UNL     1     -28.731  -5.973 -15.835  1.00  0.00     0.042 C 
HETATM    4  C   UNL     1     -27.356  -6.618 -15.768  1.00  0.00     0.044 C 
HETATM    5  C   UNL     1     -26.705  -6.614 -17.120  1.00  0.00    -0.022 A 
HETATM    6  C   UNL     1     -25.342  -6.923 -17.232  1.00  0.00     0.049 A 
HETATM    7  C   UNL     1     -24.716  -6.935 -18.483  1.00  0.00     0.099 A 
HETATM    8  C   UNL     1     -25.437  -6.626 -19.640  1.00  0.00     0.103 A 
HETATM    9  C   UNL     1     -26.804  -6.331 -19.519  1.00  0.00     0.077 A 
HETATM   10  C   UNL     1     -27.440  -6.349 -18.277  1.00  0.00     0.079 A 
HETATM   11  O   UNL     1     -28.788  -6.096 -18.278  1.00  0.00    -0.340 OA
HETATM   12  C   UNL     1     -29.767  -7.968 -17.074  1.00  0.00     0.046 C 
ENDROOT
BRANCH   8  13
HETATM   13  O   UNL     1     -24.988  -6.576 -20.934  1.00  0.00    -0.353 OA
HETATM   14  C   UNL     1     -24.746  -7.803 -21.606  1.00  0.00     0.210 C 
ENDBRANCH   8  13
BRANCH   7  15
HETATM   15  O   UNL     1     -23.388  -7.261 -18.528  1.00  0.00    -0.358 OA
HETATM   16  H   UNL     1     -22.899  -6.549 -18.969  1.00  0.00     0.217 HD
ENDBRANCH   7  15
TORSDOF 2
ENDMDL
MODEL 9
REMARK VINA RESULT:      -5.4      5.989      7.846
REMARK  2 active torsions:
REMARK  status: ('A' for Active; 'I' for Inactive)
REMARK    1  A    between atoms: C_7  and  O_14 
REMARK    2  A    between atoms: C_8  and  O_12 
ROOT
HETATM    1  C   UNL     1     -18.325 -11.414  -4.655  1.00  0.00     0.046 C 
HETATM    2  C   UNL     1     -19.429 -10.351  -4.549  1.00  0.00     0.061 C 
HETATM    3  C   UNL     1     -18.963  -9.089  -5.289  1.00  0.00     0.042 C 
HETATM    4  C   UNL     1     -19.995  -7.980  -5.166  1.00  0.00     0.044 C 
HETATM    5  C   UNL     1     -20.515  -7.896  -3.761  1.00  0.00    -0.022 A 
HETATM    6  C   UNL     1     -21.276  -6.786  -3.371  1.00  0.00     0.049 A 
HETATM    7  C   UNL     1     -21.779  -6.690  -2.069  1.00  0.00     0.099 A 
HETATM    8  C   UNL     1     -21.519  -7.695  -1.133  1.00  0.00     0.103 A 
HETATM    9  C   UNL     1     -20.767  -8.809  -1.536  1.00  0.00     0.077 A 
HETATM   10  C   UNL     1     -20.290  -8.924  -2.844  1.00  0.00     0.079 A 
HETATM   11  O   UNL     1     -19.610 -10.076  -3.146  1.00  0.00    -0.340 OA
HETATM   12  C   UNL     1     -20.726 -10.948  -5.123  1.00  0.00     0.046 C 
ENDROOT
BRANCH   8  13
HETATM   13  O   UNL     1     -21.915  -7.760   0.177  1.00  0.00    -0.353 OA
HETATM   14  C   UNL     1     -23.206  -8.278   0.461  1.00  0.00     0.210 C 
ENDBRANCH   8  13
BRANCH   7  15
HETATM   15  O   UNL     1     -22.530  -5.590  -1.754  1.00  0.00    -0.358 OA
HETATM   16  H   UNL     1     -22.316  -4.870  -2.368  1.00  0.00     0.217 HD
ENDBRANCH   7  15
TORSDOF 2
ENDMDL
