MODEL 1
REMARK VINA RESULT:      -6.5      0.000      0.000
REMARK  23 active torsions:
REMARK  status: ('A' for Active; 'I' for Inactive)
REMARK    1  A    between atoms: C_2  and  C_3 
REMARK    2  A    between atoms: C_3  and  C_4 
REMARK    3  A    between atoms: C_4  and  C_5 
REMARK    4  A    between atoms: C_5  and  C_6 
REMARK    5  A    between atoms: C_6  and  C_7 
REMARK    6  A    between atoms: C_7  and  C_8 
REMARK    7  A    between atoms: C_8  and  C_9 
REMARK    8  A    between atoms: C_9  and  C_10 
REMARK    9  A    between atoms: C_10  and  C_11 
REMARK   10  A    between atoms: C_11  and  C_12 
REMARK   11  A    between atoms: C_12  and  C_13 
REMARK   12  A    between atoms: C_13  and  C_14 
REMARK   13  A    between atoms: C_14  and  C_15 
REMARK   14  A    between atoms: C_15  and  C_16 
REMARK   15  A    between atoms: C_16  and  C_17 
REMARK   16  A    between atoms: C_17  and  C_18 
REMARK   17  A    between atoms: C_18  and  O_19 
REMARK   18  A    between atoms: O_19  and  C_20 
REMARK   19  A    between atoms: C_20  and  C_21 
REMARK   20  A    between atoms: C_21  and  O_22 
REMARK   21  A    between atoms: O_22  and  C_23 
REMARK   22  A    between atoms: C_23  and  C_24 
REMARK   23  A    between atoms: C_24  and  O_25 
ROOT
HETATM    1  C   UNL     1     -20.102  -4.873  -6.210  1.00  0.00     0.000 C 
ENDROOT
BRANCH   1   2
HETATM    2  C   UNL     1     -20.606  -5.409  -4.880  1.00  0.00     0.000 C 
BRANCH   2   3
HETATM    3  C   UNL     1     -21.601  -6.533  -5.111  1.00  0.00     0.000 C 
BRANCH   3   4
HETATM    4  C   UNL     1     -22.073  -7.099  -3.782  1.00  0.00     0.000 C 
BRANCH   4   5
HETATM    5  C   UNL     1     -21.329  -6.435  -2.635  1.00  0.00     0.000 C 
BRANCH   5   6
HETATM    6  C   UNL     1     -22.212  -6.375  -1.400  1.00  0.00     0.000 C 
BRANCH   6   7
HETATM    7  C   UNL     1     -21.940  -7.570  -0.500  1.00  0.00     0.000 C 
BRANCH   7   8
HETATM    8  C   UNL     1     -23.191  -7.934   0.286  1.00  0.00     0.000 C 
BRANCH   8   9
HETATM    9  C   UNL     1     -23.362  -9.445   0.340  1.00  0.00     0.000 C 
BRANCH   9  10
HETATM   10  C   UNL     1     -22.397 -10.126  -0.623  1.00  0.00     0.000 C 
BRANCH  10  11
HETATM   11  C   UNL     1     -23.155 -10.732  -1.798  1.00  0.00    -0.000 C 
BRANCH  11  12
HETATM   12  C   UNL     1     -23.067 -12.254  -1.777  1.00  0.00    -0.005 C 
HETATM   13  C   UNL     1     -23.814 -12.825  -0.584  1.00  0.00     0.005 C 
ENDBRANCH  11  12
ENDBRANCH  10  11
ENDBRANCH   9  10
ENDBRANCH   8   9
ENDBRANCH   7   8
ENDBRANCH   6   7
ENDBRANCH   5   6
ENDBRANCH   4   5
ENDBRANCH   3   4
ENDBRANCH   2   3
ENDBRANCH   1   2
BRANCH   1  14
HETATM   14  C   UNL     1     -21.193  -4.969  -7.264  1.00  0.00     0.000 C 
BRANCH  14  15
HETATM   15  C   UNL     1     -20.586  -5.202  -8.639  1.00  0.00     0.000 C 
BRANCH  15  16
HETATM   16  C   UNL     1     -20.429  -3.878  -9.369  1.00  0.00     0.002 C 
BRANCH  16  17
HETATM   17  C   UNL     1     -20.229  -4.094 -10.861  1.00  0.00     0.026 C 
BRANCH  17  18
HETATM   18  C   UNL     1     -21.567  -4.358 -11.534  1.00  0.00     0.167 C 
BRANCH  18  19
HETATM   19  O   UNL     1     -22.502  -3.395 -11.065  1.00  0.00    -0.389 OA
BRANCH  19  20
HETATM   20  C   UNL     1     -23.043  -2.644 -12.149  1.00  0.00     0.193 C 
BRANCH  20  21
HETATM   21  C   UNL     1     -24.064  -3.500 -12.878  1.00  0.00     0.193 C 
BRANCH  21  22
HETATM   22  O   UNL     1     -24.211  -3.006 -14.205  1.00  0.00    -0.387 OA
BRANCH  22  23
HETATM   23  C   UNL     1     -23.121  -2.161 -14.569  1.00  0.00     0.193 C 
BRANCH  23  24
HETATM   24  C   UNL     1     -23.691  -0.929 -15.245  1.00  0.00     0.190 C 
BRANCH  24  25
HETATM   25  O   UNL     1     -24.900  -0.547 -14.600  1.00  0.00    -0.399 OA
HETATM   26  H   UNL     1     -25.522  -1.288 -14.700  1.00  0.00     0.209 HD
ENDBRANCH  24  25
ENDBRANCH  23  24
ENDBRANCH  22  23
ENDBRANCH  21  22
ENDBRANCH  20  21
ENDBRANCH  19  20
ENDBRANCH  18  19
ENDBRANCH  17  18
ENDBRANCH  16  17
ENDBRANCH  15  16
ENDBRANCH  14  15
ENDBRANCH   1  14
TORSDOF 23
ENDMDL
MODEL 2
REMARK VINA RESULT:      -6.4      1.639      2.333
REMARK  23 active torsions:
REMARK  status: ('A' for Active; 'I' for Inactive)
REMARK    1  A    between atoms: C_2  and  C_3 
REMARK    2  A    between atoms: C_3  and  C_4 
REMARK    3  A    between atoms: C_4  and  C_5 
REMARK    4  A    between atoms: C_5  and  C_6 
REMARK    5  A    between atoms: C_6  and  C_7 
REMARK    6  A    between atoms: C_7  and  C_8 
REMARK    7  A    between atoms: C_8  and  C_9 
REMARK    8  A    between atoms: C_9  and  C_10 
REMARK    9  A    between atoms: C_10  and  C_11 
REMARK   10  A    between atoms: C_11  and  C_12 
REMARK   11  A    between atoms: C_12  and  C_13 
REMARK   12  A    between atoms: C_13  and  C_14 
REMARK   13  A    between atoms: C_14  and  C_15 
REMARK   14  A    between atoms: C_15  and  C_16 
REMARK   15  A    between atoms: C_16  and  C_17 
REMARK   16  A    between atoms: C_17  and  C_18 
REMARK   17  A    between atoms: C_18  and  O_19 
REMARK   18  A    between atoms: O_19  and  C_20 
REMARK   19  A    between atoms: C_20  and  C_21 
REMARK   20  A    between atoms: C_21  and  O_22 
REMARK   21  A    between atoms: O_22  and  C_23 
REMARK   22  A    between atoms: C_23  and  C_24 
REMARK   23  A    between atoms: C_24  and  O_25 
ROOT
HETATM    1  C   UNL     1     -21.595  -6.764  -5.387  1.00  0.00     0.000 C 
ENDROOT
BRANCH   1   2
HETATM    2  C   UNL     1     -20.398  -7.660  -5.111  1.00  0.00     0.000 C 
BRANCH   2   3
HETATM    3  C   UNL     1     -20.412  -8.120  -3.663  1.00  0.00     0.000 C 
BRANCH   3   4
HETATM    4  C   UNL     1     -21.564  -7.469  -2.916  1.00  0.00     0.000 C 
BRANCH   4   5
HETATM    5  C   UNL     1     -21.246  -7.388  -1.432  1.00  0.00     0.000 C 
BRANCH   5   6
HETATM    6  C   UNL     1     -22.526  -7.220  -0.628  1.00  0.00     0.000 C 
BRANCH   6   7
HETATM    7  C   UNL     1     -22.496  -8.114   0.601  1.00  0.00     0.000 C 
BRANCH   7   8
HETATM    8  C   UNL     1     -21.147  -8.809   0.716  1.00  0.00     0.000 C 
BRANCH   8   9
HETATM    9  C   UNL     1     -21.328 -10.319   0.723  1.00  0.00     0.000 C 
BRANCH   9  10
HETATM   10  C   UNL     1     -20.242 -10.991  -0.109  1.00  0.00     0.000 C 
BRANCH  10  11
HETATM   11  C   UNL     1     -20.651 -11.044  -1.576  1.00  0.00    -0.000 C 
BRANCH  11  12
HETATM   12  C   UNL     1     -22.040 -11.651  -1.734  1.00  0.00    -0.005 C 
HETATM   13  C   UNL     1     -22.822 -10.940  -2.826  1.00  0.00     0.005 C 
ENDBRANCH  11  12
ENDBRANCH  10  11
ENDBRANCH   9  10
ENDBRANCH   8   9
ENDBRANCH   7   8
ENDBRANCH   6   7
ENDBRANCH   5   6
ENDBRANCH   4   5
ENDBRANCH   3   4
ENDBRANCH   2   3
ENDBRANCH   1   2
BRANCH   1  14
HETATM   14  C   UNL     1     -21.270  -5.780  -6.500  1.00  0.00     0.000 C 
BRANCH  14  15
HETATM   15  C   UNL     1     -19.811  -5.906  -6.913  1.00  0.00     0.000 C 
BRANCH  15  16
HETATM   16  C   UNL     1     -19.382  -4.672  -7.689  1.00  0.00     0.002 C 
BRANCH  16  17
HETATM   17  C   UNL     1     -20.587  -3.915  -8.227  1.00  0.00     0.026 C 
BRANCH  17  18
HETATM   18  C   UNL     1     -20.776  -4.218  -9.705  1.00  0.00     0.167 C 
BRANCH  18  19
HETATM   19  O   UNL     1     -21.902  -3.487 -10.172  1.00  0.00    -0.389 OA
BRANCH  19  20
HETATM   20  C   UNL     1     -23.070  -3.824  -9.427  1.00  0.00     0.193 C 
BRANCH  20  21
HETATM   21  C   UNL     1     -24.231  -4.003 -10.390  1.00  0.00     0.193 C 
BRANCH  21  22
HETATM   22  O   UNL     1     -24.312  -2.855 -11.227  1.00  0.00    -0.387 OA
BRANCH  22  23
HETATM   23  C   UNL     1     -24.404  -3.219 -12.602  1.00  0.00     0.193 C 
BRANCH  23  24
HETATM   24  C   UNL     1     -23.204  -2.634 -13.323  1.00  0.00     0.190 C 
BRANCH  24  25
HETATM   25  O   UNL     1     -22.091  -3.507 -13.182  1.00  0.00    -0.399 OA
HETATM   26  H   UNL     1     -21.773  -3.709 -14.079  1.00  0.00     0.209 HD
ENDBRANCH  24  25
ENDBRANCH  23  24
ENDBRANCH  22  23
ENDBRANCH  21  22
ENDBRANCH  20  21
ENDBRANCH  19  20
ENDBRANCH  18  19
ENDBRANCH  17  18
ENDBRANCH  16  17
ENDBRANCH  15  16
ENDBRANCH  14  15
ENDBRANCH   1  14
TORSDOF 23
ENDMDL
MODEL 3
REMARK VINA RESULT:      -6.3      1.691      3.640
REMARK  23 active torsions:
REMARK  status: ('A' for Active; 'I' for Inactive)
REMARK    1  A    between atoms: C_2  and  C_3 
REMARK    2  A    between atoms: C_3  and  C_4 
REMARK    3  A    between atoms: C_4  and  C_5 
REMARK    4  A    between atoms: C_5  and  C_6 
REMARK    5  A    between atoms: C_6  and  C_7 
REMARK    6  A    between atoms: C_7  and  C_8 
REMARK    7  A    between atoms: C_8  and  C_9 
REMARK    8  A    between atoms: C_9  and  C_10 
REMARK    9  A    between atoms: C_10  and  C_11 
REMARK   10  A    between atoms: C_11  and  C_12 
REMARK   11  A    between atoms: C_12  and  C_13 
REMARK   12  A    between atoms: C_13  and  C_14 
REMARK   13  A    between atoms: C_14  and  C_15 
REMARK   14  A    between atoms: C_15  and  C_16 
REMARK   15  A    between atoms: C_16  and  C_17 
REMARK   16  A    between atoms: C_17  and  C_18 
REMARK   17  A    between atoms: C_18  and  O_19 
REMARK   18  A    between atoms: O_19  and  C_20 
REMARK   19  A    between atoms: C_20  and  C_21 
REMARK   20  A    between atoms: C_21  and  O_22 
REMARK   21  A    between atoms: O_22  and  C_23 
REMARK   22  A    between atoms: C_23  and  C_24 
REMARK   23  A    between atoms: C_24  and  O_25 
ROOT
HETATM    1  C   UNL     1     -21.386  -6.277  -3.577  1.00  0.00     0.000 C 
ENDROOT
BRANCH   1   2
HETATM    2  C   UNL     1     -22.174  -6.337  -2.278  1.00  0.00     0.000 C 
BRANCH   2   3
HETATM    3  C   UNL     1     -21.568  -7.372  -1.346  1.00  0.00     0.000 C 
BRANCH   3   4
HETATM    4  C   UNL     1     -22.433  -7.533  -0.107  1.00  0.00     0.000 C 
BRANCH   4   5
HETATM    5  C   UNL     1     -21.726  -8.409   0.915  1.00  0.00     0.000 C 
BRANCH   5   6
HETATM    6  C   UNL     1     -21.127  -9.630   0.237  1.00  0.00     0.000 C 
BRANCH   6   7
HETATM    7  C   UNL     1     -22.205 -10.670  -0.022  1.00  0.00     0.000 C 
BRANCH   7   8
HETATM    8  C   UNL     1     -21.933 -11.397  -1.332  1.00  0.00     0.000 C 
BRANCH   8   9
HETATM    9  C   UNL     1     -22.885 -10.910  -2.414  1.00  0.00     0.000 C 
BRANCH   9  10
HETATM   10  C   UNL     1     -22.110 -10.265  -3.556  1.00  0.00     0.000 C 
BRANCH  10  11
HETATM   11  C   UNL     1     -20.629 -10.611  -3.458  1.00  0.00    -0.000 C 
BRANCH  11  12
HETATM   12  C   UNL     1     -19.762  -9.431  -3.884  1.00  0.00    -0.005 C 
HETATM   13  C   UNL     1     -18.599  -9.238  -2.927  1.00  0.00     0.005 C 
ENDBRANCH  11  12
ENDBRANCH  10  11
ENDBRANCH   9  10
ENDBRANCH   8   9
ENDBRANCH   7   8
ENDBRANCH   6   7
ENDBRANCH   5   6
ENDBRANCH   4   5
ENDBRANCH   3   4
ENDBRANCH   2   3
ENDBRANCH   1   2
BRANCH   1  14
HETATM   14  C   UNL     1     -22.304  -6.530  -4.762  1.00  0.00     0.000 C 
BRANCH  14  15
HETATM   15  C   UNL     1     -21.562  -6.298  -6.069  1.00  0.00     0.000 C 
BRANCH  15  16
HETATM   16  C   UNL     1     -20.129  -5.877  -5.786  1.00  0.00     0.002 C 
BRANCH  16  17
HETATM   17  C   UNL     1     -19.712  -4.715  -6.674  1.00  0.00     0.026 C 
BRANCH  17  18
HETATM   18  C   UNL     1     -20.862  -4.316  -7.585  1.00  0.00     0.167 C 
BRANCH  18  19
HETATM   19  O   UNL     1     -20.349  -4.114  -8.895  1.00  0.00    -0.389 OA
BRANCH  19  20
HETATM   20  C   UNL     1     -21.360  -4.338  -9.875  1.00  0.00     0.193 C 
BRANCH  20  21
HETATM   21  C   UNL     1     -20.937  -3.677 -11.175  1.00  0.00     0.193 C 
BRANCH  21  22
HETATM   22  O   UNL     1     -21.973  -3.853 -12.135  1.00  0.00    -0.387 OA
BRANCH  22  23
HETATM   23  C   UNL     1     -22.830  -2.715 -12.191  1.00  0.00     0.193 C 
BRANCH  23  24
HETATM   24  C   UNL     1     -23.309  -2.561 -13.622  1.00  0.00     0.190 C 
BRANCH  24  25
HETATM   25  O   UNL     1     -24.606  -1.977 -13.631  1.00  0.00    -0.399 OA
HETATM   26  H   UNL     1     -24.717  -1.544 -14.495  1.00  0.00     0.209 HD
ENDBRANCH  24  25
ENDBRANCH  23  24
ENDBRANCH  22  23
ENDBRANCH  21  22
ENDBRANCH  20  21
ENDBRANCH  19  20
ENDBRANCH  18  19
ENDBRANCH  17  18
ENDBRANCH  16  17
ENDBRANCH  15  16
ENDBRANCH  14  15
ENDBRANCH   1  14
TORSDOF 23
ENDMDL
MODEL 4
REMARK VINA RESULT:      -6.3      1.460      2.290
REMARK  23 active torsions:
REMARK  status: ('A' for Active; 'I' for Inactive)
REMARK    1  A    between atoms: C_2  and  C_3 
REMARK    2  A    between atoms: C_3  and  C_4 
REMARK    3  A    between atoms: C_4  and  C_5 
REMARK    4  A    between atoms: C_5  and  C_6 
REMARK    5  A    between atoms: C_6  and  C_7 
REMARK    6  A    between atoms: C_7  and  C_8 
REMARK    7  A    between atoms: C_8  and  C_9 
REMARK    8  A    between atoms: C_9  and  C_10 
REMARK    9  A    between atoms: C_10  and  C_11 
REMARK   10  A    between atoms: C_11  and  C_12 
REMARK   11  A    between atoms: C_12  and  C_13 
REMARK   12  A    between atoms: C_13  and  C_14 
REMARK   13  A    between atoms: C_14  and  C_15 
REMARK   14  A    between atoms: C_15  and  C_16 
REMARK   15  A    between atoms: C_16  and  C_17 
REMARK   16  A    between atoms: C_17  and  C_18 
REMARK   17  A    between atoms: C_18  and  O_19 
REMARK   18  A    between atoms: O_19  and  C_20 
REMARK   19  A    between atoms: C_20  and  C_21 
REMARK   20  A    between atoms: C_21  and  O_22 
REMARK   21  A    between atoms: O_22  and  C_23 
REMARK   22  A    between atoms: C_23  and  C_24 
REMARK   23  A    between atoms: C_24  and  O_25 
ROOT
HETATM    1  C   UNL     1     -21.282  -6.801  -6.076  1.00  0.00     0.000 C 
ENDROOT
BRANCH   1   2
HETATM    2  C   UNL     1     -21.631  -7.528  -4.787  1.00  0.00     0.000 C 
BRANCH   2   3
HETATM    3  C   UNL     1     -21.156  -6.724  -3.589  1.00  0.00     0.000 C 
BRANCH   3   4
HETATM    4  C   UNL     1     -22.340  -6.316  -2.728  1.00  0.00     0.000 C 
BRANCH   4   5
HETATM    5  C   UNL     1     -22.058  -6.626  -1.267  1.00  0.00     0.000 C 
BRANCH   5   6
HETATM    6  C   UNL     1     -21.107  -7.806  -1.154  1.00  0.00     0.000 C 
BRANCH   6   7
HETATM    7  C   UNL     1     -21.546  -8.729  -0.028  1.00  0.00     0.000 C 
BRANCH   7   8
HETATM    8  C   UNL     1     -23.018  -9.085  -0.179  1.00  0.00     0.000 C 
BRANCH   8   9
HETATM    9  C   UNL     1     -23.168 -10.493  -0.733  1.00  0.00     0.000 C 
BRANCH   9  10
HETATM   10  C   UNL     1     -23.737 -11.426   0.329  1.00  0.00     0.000 C 
BRANCH  10  11
HETATM   11  C   UNL     1     -22.802 -12.607   0.559  1.00  0.00    -0.000 C 
BRANCH  11  12
HETATM   12  C   UNL     1     -23.438 -13.635   1.487  1.00  0.00    -0.005 C 
HETATM   13  C   UNL     1     -22.414 -14.196   2.460  1.00  0.00     0.005 C 
ENDBRANCH  11  12
ENDBRANCH  10  11
ENDBRANCH   9  10
ENDBRANCH   8   9
ENDBRANCH   7   8
ENDBRANCH   6   7
ENDBRANCH   5   6
ENDBRANCH   4   5
ENDBRANCH   3   4
ENDBRANCH   2   3
ENDBRANCH   1   2
BRANCH   1  14
HETATM   14  C   UNL     1     -20.155  -5.810  -5.834  1.00  0.00     0.000 C 
BRANCH  14  15
HETATM   15  C   UNL     1     -20.459  -4.483  -6.512  1.00  0.00     0.000 C 
BRANCH  15  16
HETATM   16  C   UNL     1     -21.885  -4.482  -7.039  1.00  0.00     0.002 C 
BRANCH  16  17
HETATM   17  C   UNL     1     -21.976  -3.759  -8.374  1.00  0.00     0.026 C 
BRANCH  17  18
HETATM   18  C   UNL     1     -20.749  -4.065  -9.218  1.00  0.00     0.167 C 
BRANCH  18  19
HETATM   19  O   UNL     1     -21.175  -4.709 -10.412  1.00  0.00    -0.389 OA
BRANCH  19  20
HETATM   20  C   UNL     1     -22.009  -3.848 -11.182  1.00  0.00     0.193 C 
BRANCH  20  21
HETATM   21  C   UNL     1     -23.246  -4.617 -11.611  1.00  0.00     0.193 C 
BRANCH  21  22
HETATM   22  O   UNL     1     -23.894  -3.897 -12.654  1.00  0.00    -0.387 OA
BRANCH  22  23
HETATM   23  C   UNL     1     -23.221  -2.671 -12.935  1.00  0.00     0.193 C 
BRANCH  23  24
HETATM   24  C   UNL     1     -23.373  -2.383 -14.416  1.00  0.00     0.190 C 
BRANCH  24  25
HETATM   25  O   UNL     1     -22.355  -3.062 -15.141  1.00  0.00    -0.399 OA
HETATM   26  H   UNL     1     -22.320  -2.660 -16.026  1.00  0.00     0.209 HD
ENDBRANCH  24  25
ENDBRANCH  23  24
ENDBRANCH  22  23
ENDBRANCH  21  22
ENDBRANCH  20  21
ENDBRANCH  19  20
ENDBRANCH  18  19
ENDBRANCH  17  18
ENDBRANCH  16  17
ENDBRANCH  15  16
ENDBRANCH  14  15
ENDBRANCH   1  14
TORSDOF 23
ENDMDL
MODEL 5
REMARK VINA RESULT:      -6.3      1.630      3.064
REMARK  23 active torsions:
REMARK  status: ('A' for Active; 'I' for Inactive)
REMARK    1  A    between atoms: C_2  and  C_3 
REMARK    2  A    between atoms: C_3  and  C_4 
REMARK    3  A    between atoms: C_4  and  C_5 
REMARK    4  A    between atoms: C_5  and  C_6 
REMARK    5  A    between atoms: C_6  and  C_7 
REMARK    6  A    between atoms: C_7  and  C_8 
REMARK    7  A    between atoms: C_8  and  C_9 
REMARK    8  A    between atoms: C_9  and  C_10 
REMARK    9  A    between atoms: C_10  and  C_11 
REMARK   10  A    between atoms: C_11  and  C_12 
REMARK   11  A    between atoms: C_12  and  C_13 
REMARK   12  A    between atoms: C_13  and  C_14 
REMARK   13  A    between atoms: C_14  and  C_15 
REMARK   14  A    between atoms: C_15  and  C_16 
REMARK   15  A    between atoms: C_16  and  C_17 
REMARK   16  A    between atoms: C_17  and  C_18 
REMARK   17  A    between atoms: C_18  and  O_19 
REMARK   18  A    between atoms: O_19  and  C_20 
REMARK   19  A    between atoms: C_20  and  C_21 
REMARK   20  A    between atoms: C_21  and  O_22 
REMARK   21  A    between atoms: O_22  and  C_23 
REMARK   22  A    between atoms: C_23  and  C_24 
REMARK   23  A    between atoms: C_24  and  O_25 
ROOT
HETATM    1  C   UNL     1     -21.125  -5.966  -3.873  1.00  0.00     0.000 C 
ENDROOT
BRANCH   1   2
HETATM    2  C   UNL     1     -21.219  -6.805  -2.608  1.00  0.00     0.000 C 
BRANCH   2   3
HETATM    3  C   UNL     1     -22.209  -6.181  -1.639  1.00  0.00     0.000 C 
BRANCH   3   4
HETATM    4  C   UNL     1     -22.408  -7.086  -0.435  1.00  0.00     0.000 C 
BRANCH   4   5
HETATM    5  C   UNL     1     -21.319  -8.146  -0.391  1.00  0.00     0.000 C 
BRANCH   5   6
HETATM    6  C   UNL     1     -21.798  -9.360   0.387  1.00  0.00     0.000 C 
BRANCH   6   7
HETATM    7  C   UNL     1     -23.175  -9.786  -0.096  1.00  0.00     0.000 C 
BRANCH   7   8
HETATM    8  C   UNL     1     -23.281 -11.304  -0.117  1.00  0.00     0.000 C 
BRANCH   8   9
HETATM    9  C   UNL     1     -23.689 -11.787  -1.501  1.00  0.00     0.000 C 
BRANCH   9  10
HETATM   10  C   UNL     1     -23.115 -10.874  -2.576  1.00  0.00     0.000 C 
BRANCH  10  11
HETATM   11  C   UNL     1     -22.476 -11.696  -3.689  1.00  0.00    -0.000 C 
BRANCH  11  12
HETATM   12  C   UNL     1     -20.986 -11.893  -3.436  1.00  0.00    -0.005 C 
HETATM   13  C   UNL     1     -20.360 -10.631  -2.868  1.00  0.00     0.005 C 
ENDBRANCH  11  12
ENDBRANCH  10  11
ENDBRANCH   9  10
ENDBRANCH   8   9
ENDBRANCH   7   8
ENDBRANCH   6   7
ENDBRANCH   5   6
ENDBRANCH   4   5
ENDBRANCH   3   4
ENDBRANCH   2   3
ENDBRANCH   1   2
BRANCH   1  14
HETATM   14  C   UNL     1     -21.781  -6.692  -5.036  1.00  0.00     0.000 C 
BRANCH  14  15
HETATM   15  C   UNL     1     -21.112  -6.309  -6.347  1.00  0.00     0.000 C 
BRANCH  15  16
HETATM   16  C   UNL     1     -20.542  -4.903  -6.249  1.00  0.00     0.002 C 
BRANCH  16  17
HETATM   17  C   UNL     1     -20.932  -4.067  -7.459  1.00  0.00     0.026 C 
BRANCH  17  18
HETATM   18  C   UNL     1     -22.395  -4.297  -7.801  1.00  0.00     0.167 C 
BRANCH  18  19
HETATM   19  O   UNL     1     -22.480  -4.699  -9.162  1.00  0.00    -0.389 OA
BRANCH  19  20
HETATM   20  C   UNL     1     -22.795  -3.589  -9.999  1.00  0.00     0.193 C 
BRANCH  20  21
HETATM   21  C   UNL     1     -24.285  -3.604 -10.294  1.00  0.00     0.193 C 
BRANCH  21  22
HETATM   22  O   UNL     1     -24.519  -2.893 -11.505  1.00  0.00    -0.387 OA
BRANCH  22  23
HETATM   23  C   UNL     1     -24.192  -3.686 -12.644  1.00  0.00     0.193 C 
BRANCH  23  24
HETATM   24  C   UNL     1     -23.295  -2.859 -13.546  1.00  0.00     0.190 C 
BRANCH  24  25
HETATM   25  O   UNL     1     -21.962  -3.348 -13.471  1.00  0.00    -0.399 OA
HETATM   26  H   UNL     1     -21.539  -3.156 -14.326  1.00  0.00     0.209 HD
ENDBRANCH  24  25
ENDBRANCH  23  24
ENDBRANCH  22  23
ENDBRANCH  21  22
ENDBRANCH  20  21
ENDBRANCH  19  20
ENDBRANCH  18  19
ENDBRANCH  17  18
ENDBRANCH  16  17
ENDBRANCH  15  16
ENDBRANCH  14  15
ENDBRANCH   1  14
TORSDOF 23
ENDMDL
MODEL 6
REMARK VINA RESULT:      -6.3      1.779      3.624
REMARK  23 active torsions:
REMARK  status: ('A' for Active; 'I' for Inactive)
REMARK    1  A    between atoms: C_2  and  C_3 
REMARK    2  A    between atoms: C_3  and  C_4 
REMARK    3  A    between atoms: C_4  and  C_5 
REMARK    4  A    between atoms: C_5  and  C_6 
REMARK    5  A    between atoms: C_6  and  C_7 
REMARK    6  A    between atoms: C_7  and  C_8 
REMARK    7  A    between atoms: C_8  and  C_9 
REMARK    8  A    between atoms: C_9  and  C_10 
REMARK    9  A    between atoms: C_10  and  C_11 
REMARK   10  A    between atoms: C_11  and  C_12 
REMARK   11  A    between atoms: C_12  and  C_13 
REMARK   12  A    between atoms: C_13  and  C_14 
REMARK   13  A    between atoms: C_14  and  C_15 
REMARK   14  A    between atoms: C_15  and  C_16 
REMARK   15  A    between atoms: C_16  and  C_17 
REMARK   16  A    between atoms: C_17  and  C_18 
REMARK   17  A    between atoms: C_18  and  O_19 
REMARK   18  A    between atoms: O_19  and  C_20 
REMARK   19  A    between atoms: C_20  and  C_21 
REMARK   20  A    between atoms: C_21  and  O_22 
REMARK   21  A    between atoms: O_22  and  C_23 
REMARK   22  A    between atoms: C_23  and  C_24 
REMARK   23  A    between atoms: C_24  and  O_25 
ROOT
HETATM    1  C   UNL     1     -21.714  -7.687  -4.644  1.00  0.00     0.000 C 
ENDROOT
BRANCH   1   2
HETATM    2  C   UNL     1     -20.233  -8.024  -4.584  1.00  0.00     0.000 C 
BRANCH   2   3
HETATM    3  C   UNL     1     -20.001  -9.451  -5.052  1.00  0.00     0.000 C 
BRANCH   3   4
HETATM    4  C   UNL     1     -21.228 -10.302  -4.769  1.00  0.00     0.000 C 
BRANCH   4   5
HETATM    5  C   UNL     1     -20.907 -11.351  -3.716  1.00  0.00     0.000 C 
BRANCH   5   6
HETATM    6  C   UNL     1     -22.188 -11.891  -3.104  1.00  0.00     0.000 C 
BRANCH   6   7
HETATM    7  C   UNL     1     -22.931 -10.782  -2.375  1.00  0.00     0.000 C 
BRANCH   7   8
HETATM    8  C   UNL     1     -23.921 -11.374  -1.382  1.00  0.00     0.000 C 
BRANCH   8   9
HETATM    9  C   UNL     1     -23.693 -10.793   0.005  1.00  0.00     0.000 C 
BRANCH   9  10
HETATM   10  C   UNL     1     -22.566  -9.768  -0.025  1.00  0.00     0.000 C 
BRANCH  10  11
HETATM   11  C   UNL     1     -23.102  -8.378   0.294  1.00  0.00    -0.000 C 
BRANCH  11  12
HETATM   12  C   UNL     1     -22.380  -7.313  -0.524  1.00  0.00    -0.005 C 
HETATM   13  C   UNL     1     -21.062  -7.843  -1.063  1.00  0.00     0.005 C 
ENDBRANCH  11  12
ENDBRANCH  10  11
ENDBRANCH   9  10
ENDBRANCH   8   9
ENDBRANCH   7   8
ENDBRANCH   6   7
ENDBRANCH   5   6
ENDBRANCH   4   5
ENDBRANCH   3   4
ENDBRANCH   2   3
ENDBRANCH   1   2
BRANCH   1  14
HETATM   14  C   UNL     1     -21.929  -6.395  -5.416  1.00  0.00     0.000 C 
BRANCH  14  15
HETATM   15  C   UNL     1     -20.717  -6.085  -6.282  1.00  0.00     0.000 C 
BRANCH  15  16
HETATM   16  C   UNL     1     -20.415  -4.596  -6.240  1.00  0.00     0.002 C 
BRANCH  16  17
HETATM   17  C   UNL     1     -21.304  -3.828  -7.206  1.00  0.00     0.026 C 
BRANCH  17  18
HETATM   18  C   UNL     1     -20.974  -4.217  -8.639  1.00  0.00     0.167 C 
BRANCH  18  19
HETATM   19  O   UNL     1     -22.066  -3.842  -9.468  1.00  0.00    -0.389 OA
BRANCH  19  20
HETATM   20  C   UNL     1     -23.308  -4.156  -8.843  1.00  0.00     0.193 C 
BRANCH  20  21
HETATM   21  C   UNL     1     -24.413  -4.081  -9.882  1.00  0.00     0.193 C 
BRANCH  21  22
HETATM   22  O   UNL     1     -24.180  -2.951 -10.716  1.00  0.00    -0.387 OA
BRANCH  22  23
HETATM   23  C   UNL     1     -24.205  -3.309 -12.096  1.00  0.00     0.193 C 
BRANCH  23  24
HETATM   24  C   UNL     1     -22.965  -2.729 -12.751  1.00  0.00     0.190 C 
BRANCH  24  25
HETATM   25  O   UNL     1     -21.886  -3.646 -12.624  1.00  0.00    -0.399 OA
HETATM   26  H   UNL     1     -21.119  -3.140 -12.303  1.00  0.00     0.209 HD
ENDBRANCH  24  25
ENDBRANCH  23  24
ENDBRANCH  22  23
ENDBRANCH  21  22
ENDBRANCH  20  21
ENDBRANCH  19  20
ENDBRANCH  18  19
ENDBRANCH  17  18
ENDBRANCH  16  17
ENDBRANCH  15  16
ENDBRANCH  14  15
ENDBRANCH   1  14
TORSDOF 23
ENDMDL
MODEL 7
REMARK VINA RESULT:      -6.1      2.371      4.618
REMARK  23 active torsions:
REMARK  status: ('A' for Active; 'I' for Inactive)
REMARK    1  A    between atoms: C_2  and  C_3 
REMARK    2  A    between atoms: C_3  and  C_4 
REMARK    3  A    between atoms: C_4  and  C_5 
REMARK    4  A    between atoms: C_5  and  C_6 
REMARK    5  A    between atoms: C_6  and  C_7 
REMARK    6  A    between atoms: C_7  and  C_8 
REMARK    7  A    between atoms: C_8  and  C_9 
REMARK    8  A    between atoms: C_9  and  C_10 
REMARK    9  A    between atoms: C_10  and  C_11 
REMARK   10  A    between atoms: C_11  and  C_12 
REMARK   11  A    between atoms: C_12  and  C_13 
REMARK   12  A    between atoms: C_13  and  C_14 
REMARK   13  A    between atoms: C_14  and  C_15 
REMARK   14  A    between atoms: C_15  and  C_16 
REMARK   15  A    between atoms: C_16  and  C_17 
REMARK   16  A    between atoms: C_17  and  C_18 
REMARK   17  A    between atoms: C_18  and  O_19 
REMARK   18  A    between atoms: O_19  and  C_20 
REMARK   19  A    between atoms: C_20  and  C_21 
REMARK   20  A    between atoms: C_21  and  O_22 
REMARK   21  A    between atoms: O_22  and  C_23 
REMARK   22  A    between atoms: C_23  and  C_24 
REMARK   23  A    between atoms: C_24  and  O_25 
ROOT
HETATM    1  C   UNL     1     -22.141  -6.279  -2.343  1.00  0.00     0.000 C 
ENDROOT
BRANCH   1   2
HETATM    2  C   UNL     1     -21.574  -7.211  -1.285  1.00  0.00     0.000 C 
BRANCH   2   3
HETATM    3  C   UNL     1     -22.657  -7.593  -0.290  1.00  0.00     0.000 C 
BRANCH   3   4
HETATM    4  C   UNL     1     -22.591  -9.081   0.013  1.00  0.00     0.000 C 
BRANCH   4   5
HETATM    5  C   UNL     1     -21.292  -9.666  -0.514  1.00  0.00     0.000 C 
BRANCH   5   6
HETATM    6  C   UNL     1     -21.560 -10.976  -1.238  1.00  0.00     0.000 C 
BRANCH   6   7
HETATM    7  C   UNL     1     -22.544 -10.755  -2.376  1.00  0.00     0.000 C 
BRANCH   7   8
HETATM    8  C   UNL     1     -21.877  -9.989  -3.510  1.00  0.00     0.000 C 
BRANCH   8   9
HETATM    9  C   UNL     1     -20.618 -10.711  -3.968  1.00  0.00     0.000 C 
BRANCH   9  10
HETATM   10  C   UNL     1     -19.555  -9.708  -4.399  1.00  0.00     0.000 C 
BRANCH  10  11
HETATM   11  C   UNL     1     -18.845  -9.128  -3.182  1.00  0.00    -0.000 C 
BRANCH  11  12
HETATM   12  C   UNL     1     -17.653  -9.990  -2.782  1.00  0.00    -0.005 C 
HETATM   13  C   UNL     1     -16.448  -9.690  -3.658  1.00  0.00     0.005 C 
ENDBRANCH  11  12
ENDBRANCH  10  11
ENDBRANCH   9  10
ENDBRANCH   8   9
ENDBRANCH   7   8
ENDBRANCH   6   7
ENDBRANCH   5   6
ENDBRANCH   4   5
ENDBRANCH   3   4
ENDBRANCH   2   3
ENDBRANCH   1   2
BRANCH   1  14
HETATM   14  C   UNL     1     -21.217  -6.227  -3.549  1.00  0.00     0.000 C 
BRANCH  14  15
HETATM   15  C   UNL     1     -21.985  -6.547  -4.822  1.00  0.00     0.000 C 
BRANCH  15  16
HETATM   16  C   UNL     1     -21.056  -6.476  -6.022  1.00  0.00     0.002 C 
BRANCH  16  17
HETATM   17  C   UNL     1     -20.295  -5.159  -6.050  1.00  0.00     0.026 C 
BRANCH  17  18
HETATM   18  C   UNL     1     -20.678  -4.361  -7.286  1.00  0.00     0.167 C 
BRANCH  18  19
HETATM   19  O   UNL     1     -21.598  -5.131  -8.050  1.00  0.00    -0.389 OA
BRANCH  19  20
HETATM   20  C   UNL     1     -22.103  -4.374  -9.147  1.00  0.00     0.193 C 
BRANCH  20  21
HETATM   21  C   UNL     1     -20.968  -4.098 -10.118  1.00  0.00     0.193 C 
BRANCH  21  22
HETATM   22  O   UNL     1     -21.408  -3.141 -11.075  1.00  0.00    -0.387 OA
BRANCH  22  23
HETATM   23  C   UNL     1     -22.827  -3.157 -11.212  1.00  0.00     0.193 C 
BRANCH  23  24
HETATM   24  C   UNL     1     -23.155  -3.058 -12.690  1.00  0.00     0.190 C 
BRANCH  24  25
HETATM   25  O   UNL     1     -22.003  -3.383 -13.457  1.00  0.00    -0.399 OA
HETATM   26  H   UNL     1     -22.036  -4.340 -13.628  1.00  0.00     0.209 HD
ENDBRANCH  24  25
ENDBRANCH  23  24
ENDBRANCH  22  23
ENDBRANCH  21  22
ENDBRANCH  20  21
ENDBRANCH  19  20
ENDBRANCH  18  19
ENDBRANCH  17  18
ENDBRANCH  16  17
ENDBRANCH  15  16
ENDBRANCH  14  15
ENDBRANCH   1  14
TORSDOF 23
ENDMDL
MODEL 8
REMARK VINA RESULT:      -6.1      2.860      4.016
REMARK  23 active torsions:
REMARK  status: ('A' for Active; 'I' for Inactive)
REMARK    1  A    between atoms: C_2  and  C_3 
REMARK    2  A    between atoms: C_3  and  C_4 
REMARK    3  A    between atoms: C_4  and  C_5 
REMARK    4  A    between atoms: C_5  and  C_6 
REMARK    5  A    between atoms: C_6  and  C_7 
REMARK    6  A    between atoms: C_7  and  C_8 
REMARK    7  A    between atoms: C_8  and  C_9 
REMARK    8  A    between atoms: C_9  and  C_10 
REMARK    9  A    between atoms: C_10  and  C_11 
REMARK   10  A    between atoms: C_11  and  C_12 
REMARK   11  A    between atoms: C_12  and  C_13 
REMARK   12  A    between atoms: C_13  and  C_14 
REMARK   13  A    between atoms: C_14  and  C_15 
REMARK   14  A    between atoms: C_15  and  C_16 
REMARK   15  A    between atoms: C_16  and  C_17 
REMARK   16  A    between atoms: C_17  and  C_18 
REMARK   17  A    between atoms: C_18  and  O_19 
REMARK   18  A    between atoms: O_19  and  C_20 
REMARK   19  A    between atoms: C_20  and  C_21 
REMARK   20  A    between atoms: C_21  and  O_22 
REMARK   21  A    between atoms: O_22  and  C_23 
REMARK   22  A    between atoms: C_23  and  C_24 
REMARK   23  A    between atoms: C_24  and  O_25 
ROOT
HETATM    1  C   UNL     1     -21.577  -7.668  -4.876  1.00  0.00     0.000 C 
ENDROOT
BRANCH   1   2
HETATM    2  C   UNL     1     -22.209  -6.526  -4.097  1.00  0.00     0.000 C 
BRANCH   2   3
HETATM    3  C   UNL     1     -21.411  -6.251  -2.833  1.00  0.00     0.000 C 
BRANCH   3   4
HETATM    4  C   UNL     1     -22.280  -6.469  -1.606  1.00  0.00     0.000 C 
BRANCH   4   5
HETATM    5  C   UNL     1     -21.712  -7.592  -0.753  1.00  0.00     0.000 C 
BRANCH   5   6
HETATM    6  C   UNL     1     -22.232  -8.935  -1.239  1.00  0.00     0.000 C 
BRANCH   6   7
HETATM    7  C   UNL     1     -21.156  -9.999  -1.096  1.00  0.00     0.000 C 
BRANCH   7   8
HETATM    8  C   UNL     1     -19.929  -9.622  -1.914  1.00  0.00     0.000 C 
BRANCH   8   9
HETATM    9  C   UNL     1     -19.935 -10.354  -3.247  1.00  0.00     0.000 C 
BRANCH   9  10
HETATM   10  C   UNL     1     -18.527 -10.426  -3.824  1.00  0.00     0.000 C 
BRANCH  10  11
HETATM   11  C   UNL     1     -17.651  -9.329  -3.231  1.00  0.00    -0.000 C 
BRANCH  11  12
HETATM   12  C   UNL     1     -16.299  -9.884  -2.798  1.00  0.00    -0.005 C 
HETATM   13  C   UNL     1     -15.686 -10.739  -3.894  1.00  0.00     0.005 C 
ENDBRANCH  11  12
ENDBRANCH  10  11
ENDBRANCH   9  10
ENDBRANCH   8   9
ENDBRANCH   7   8
ENDBRANCH   6   7
ENDBRANCH   5   6
ENDBRANCH   4   5
ENDBRANCH   3   4
ENDBRANCH   2   3
ENDBRANCH   1   2
BRANCH   1  14
HETATM   14  C   UNL     1     -20.155  -7.309  -5.278  1.00  0.00     0.000 C 
BRANCH  14  15
HETATM   15  C   UNL     1     -20.153  -6.516  -6.576  1.00  0.00     0.000 C 
BRANCH  15  16
HETATM   16  C   UNL     1     -19.769  -5.071  -6.303  1.00  0.00     0.002 C 
BRANCH  16  17
HETATM   17  C   UNL     1     -20.862  -4.117  -6.760  1.00  0.00     0.026 C 
BRANCH  17  18
HETATM   18  C   UNL     1     -21.173  -4.347  -8.230  1.00  0.00     0.167 C 
BRANCH  18  19
HETATM   19  O   UNL     1     -22.581  -4.474  -8.376  1.00  0.00    -0.389 OA
BRANCH  19  20
HETATM   20  C   UNL     1     -23.095  -3.455  -9.231  1.00  0.00     0.193 C 
BRANCH  20  21
HETATM   21  C   UNL     1     -24.552  -3.758  -9.534  1.00  0.00     0.193 C 
BRANCH  21  22
HETATM   22  O   UNL     1     -24.898  -3.147 -10.772  1.00  0.00    -0.387 OA
BRANCH  22  23
HETATM   23  C   UNL     1     -23.817  -3.203 -11.700  1.00  0.00     0.193 C 
BRANCH  23  24
HETATM   24  C   UNL     1     -24.402  -3.233 -13.099  1.00  0.00     0.190 C 
BRANCH  24  25
HETATM   25  O   UNL     1     -24.569  -1.904 -13.576  1.00  0.00    -0.399 OA
HETATM   26  H   UNL     1     -24.800  -1.967 -14.519  1.00  0.00     0.209 HD
ENDBRANCH  24  25
ENDBRANCH  23  24
ENDBRANCH  22  23
ENDBRANCH  21  22
ENDBRANCH  20  21
ENDBRANCH  19  20
ENDBRANCH  18  19
ENDBRANCH  17  18
ENDBRANCH  16  17
ENDBRANCH  15  16
ENDBRANCH  14  15
ENDBRANCH   1  14
TORSDOF 23
ENDMDL
MODEL 9
REMARK VINA RESULT:      -6.0     11.267     14.535
REMARK  23 active torsions:
REMARK  status: ('A' for Active; 'I' for Inactive)
REMARK    1  A    between atoms: C_2  and  C_3 
REMARK    2  A    between atoms: C_3  and  C_4 
REMARK    3  A    between atoms: C_4  and  C_5 
REMARK    4  A    between atoms: C_5  and  C_6 
REMARK    5  A    between atoms: C_6  and  C_7 
REMARK    6  A    between atoms: C_7  and  C_8 
REMARK    7  A    between atoms: C_8  and  C_9 
REMARK    8  A    between atoms: C_9  and  C_10 
REMARK    9  A    between atoms: C_10  and  C_11 
REMARK   10  A    between atoms: C_11  and  C_12 
REMARK   11  A    between atoms: C_12  and  C_13 
REMARK   12  A    between atoms: C_13  and  C_14 
REMARK   13  A    between atoms: C_14  and  C_15 
REMARK   14  A    between atoms: C_15  and  C_16 
REMARK   15  A    between atoms: C_16  and  C_17 
REMARK   16  A    between atoms: C_17  and  C_18 
REMARK   17  A    between atoms: C_18  and  O_19 
REMARK   18  A    between atoms: O_19  and  C_20 
REMARK   19  A    between atoms: C_20  and  C_21 
REMARK   20  A    between atoms: C_21  and  O_22 
REMARK   21  A    between atoms: O_22  and  C_23 
REMARK   22  A    between atoms: C_23  and  C_24 
REMARK   23  A    between atoms: C_24  and  O_25 
ROOT
HETATM    1  C   UNL     1     -35.569  -1.558 -17.031  1.00  0.00     0.000 C 
ENDROOT
BRANCH   1   2
HETATM    2  C   UNL     1     -35.950  -0.428 -16.087  1.00  0.00     0.000 C 
BRANCH   2   3
HETATM    3  C   UNL     1     -34.808  -0.141 -15.127  1.00  0.00     0.000 C 
BRANCH   3   4
HETATM    4  C   UNL     1     -35.215   0.934 -14.133  1.00  0.00     0.000 C 
BRANCH   4   5
HETATM    5  C   UNL     1     -35.626   0.300 -12.814  1.00  0.00     0.000 C 
BRANCH   5   6
HETATM    6  C   UNL     1     -35.256  -1.174 -12.801  1.00  0.00     0.000 C 
BRANCH   6   7
HETATM    7  C   UNL     1     -35.168  -1.681 -11.370  1.00  0.00     0.000 C 
BRANCH   7   8
HETATM    8  C   UNL     1     -33.747  -2.127 -11.055  1.00  0.00     0.000 C 
BRANCH   8   9
HETATM    9  C   UNL     1     -33.747  -3.542 -10.497  1.00  0.00     0.000 C 
BRANCH   9  10
HETATM   10  C   UNL     1     -32.998  -4.484 -11.431  1.00  0.00     0.000 C 
BRANCH  10  11
HETATM   11  C   UNL     1     -33.464  -5.921 -11.225  1.00  0.00    -0.000 C 
BRANCH  11  12
HETATM   12  C   UNL     1     -34.505  -6.003 -10.114  1.00  0.00    -0.005 C 
HETATM   13  C   UNL     1     -34.907  -7.445  -9.853  1.00  0.00     0.005 C 
ENDBRANCH  11  12
ENDBRANCH  10  11
ENDBRANCH   9  10
ENDBRANCH   8   9
ENDBRANCH   7   8
ENDBRANCH   6   7
ENDBRANCH   5   6
ENDBRANCH   4   5
ENDBRANCH   3   4
ENDBRANCH   2   3
ENDBRANCH   1   2
BRANCH   1  14
HETATM   14  C   UNL     1     -34.825  -2.647 -16.275  1.00  0.00     0.000 C 
BRANCH  14  15
HETATM   15  C   UNL     1     -33.813  -3.329 -17.184  1.00  0.00     0.000 C 
BRANCH  15  16
HETATM   16  C   UNL     1     -32.838  -4.148 -16.355  1.00  0.00     0.002 C 
BRANCH  16  17
HETATM   17  C   UNL     1     -31.497  -4.285 -17.061  1.00  0.00     0.026 C 
BRANCH  17  18
HETATM   18  C   UNL     1     -31.224  -5.745 -17.381  1.00  0.00     0.167 C 
BRANCH  18  19
HETATM   19  O   UNL     1     -29.816  -5.932 -17.460  1.00  0.00    -0.389 OA
BRANCH  19  20
HETATM   20  C   UNL     1     -29.453  -7.236 -17.015  1.00  0.00     0.193 C 
BRANCH  20  21
HETATM   21  C   UNL     1     -28.314  -7.114 -16.017  1.00  0.00     0.193 C 
BRANCH  21  22
HETATM   22  O   UNL     1     -27.552  -5.954 -16.334  1.00  0.00    -0.387 OA
BRANCH  22  23
HETATM   23  C   UNL     1     -26.345  -6.295 -17.013  1.00  0.00     0.193 C 
BRANCH  23  24
HETATM   24  C   UNL     1     -25.329  -6.727 -15.973  1.00  0.00     0.190 C 
BRANCH  24  25
HETATM   25  O   UNL     1     -24.801  -5.581 -15.317  1.00  0.00    -0.399 OA
HETATM   26  H   UNL     1     -24.975  -4.818 -15.894  1.00  0.00     0.209 HD
ENDBRANCH  24  25
ENDBRANCH  23  24
ENDBRANCH  22  23
ENDBRANCH  21  22
ENDBRANCH  20  21
ENDBRANCH  19  20
ENDBRANCH  18  19
ENDBRANCH  17  18
ENDBRANCH  16  17
ENDBRANCH  15  16
ENDBRANCH  14  15
ENDBRANCH   1  14
TORSDOF 23
ENDMDL
