MODEL 1
REMARK VINA RESULT:      -5.1      0.000      0.000
REMARK  7 active torsions:
REMARK  status: ('A' for Active; 'I' for Inactive)
REMARK    1  A    between atoms: C_1  and  C_2 
REMARK    2  A    between atoms: C_1  and  C_8 
REMARK    3  A    between atoms: C_2  and  CA_3 
REMARK    4  A    between atoms: CA_3  and  C_4 
REMARK    5  A    between atoms: CA_3  and  N_7 
REMARK    6  A    between atoms: C_4  and  OXT_6 
REMARK    7  A    between atoms: C_8  and  N_9 
ROOT
HETATM    1  CA  UNL     1     -22.904  -3.719 -12.171  1.00  0.00     0.314 C 
ENDROOT
BRANCH   1   2
HETATM    2  C   UNL     1     -22.125  -3.299 -10.906  1.00  0.00     0.048 C 
BRANCH   2   3
HETATM    3  C   UNL     1     -22.096  -4.422  -9.855  1.00  0.00     0.032 C 
BRANCH   3   4
HETATM    4  C   UNL     1     -22.614  -3.952  -8.491  1.00  0.00     0.267 C 
BRANCH   4   5
HETATM    5  N   UNL     1     -24.068  -3.808  -8.503  1.00  0.00     0.078 N 
HETATM    6  H   UNL     1     -24.499  -4.709  -8.814  1.00  0.00     0.312 HD
HETATM    7  H   UNL     1     -24.324  -3.073  -9.201  1.00  0.00     0.312 HD
ENDBRANCH   4   5
ENDBRANCH   3   4
ENDBRANCH   2   3
ENDBRANCH   1   2
BRANCH   1   8
HETATM    8  C   UNL     1     -24.251  -3.027 -12.213  1.00  0.00     0.173 C 
HETATM    9  O   UNL     1     -25.025  -3.140 -11.276  1.00  0.00    -0.648 OA
BRANCH   8  10
HETATM   10  OXT UNL     1     -24.607  -2.271 -13.273  1.00  0.00    -0.775 OA
HETATM   11  HXT UNL     1     -25.379  -1.688 -13.251  1.00  0.00     0.167 HD
ENDBRANCH   8  10
ENDBRANCH   1   8
BRANCH   1  12
HETATM   12  N   UNL     1     -22.135  -3.401 -13.376  1.00  0.00     0.093 N 
HETATM   13  H1  UNL     1     -21.581  -4.233 -13.686  1.00  0.00     0.314 HD
HETATM   14  H2  UNL     1     -21.476  -2.614 -13.173  1.00  0.00     0.314 HD
ENDBRANCH   1  12
TORSDOF 7
ENDMDL
MODEL 2
REMARK VINA RESULT:      -5.1      1.376      3.306
REMARK  7 active torsions:
REMARK  status: ('A' for Active; 'I' for Inactive)
REMARK    1  A    between atoms: C_1  and  C_2 
REMARK    2  A    between atoms: C_1  and  C_8 
REMARK    3  A    between atoms: C_2  and  CA_3 
REMARK    4  A    between atoms: CA_3  and  C_4 
REMARK    5  A    between atoms: CA_3  and  N_7 
REMARK    6  A    between atoms: C_4  and  OXT_6 
REMARK    7  A    between atoms: C_8  and  N_9 
ROOT
HETATM    1  CA  UNL     1     -23.499  -3.616  -9.371  1.00  0.00     0.314 C 
ENDROOT
BRANCH   1   2
HETATM    2  C   UNL     1     -22.654  -4.711 -10.056  1.00  0.00     0.048 C 
BRANCH   2   3
HETATM    3  C   UNL     1     -21.209  -4.246 -10.302  1.00  0.00     0.032 C 
BRANCH   3   4
HETATM    4  C   UNL     1     -21.120  -3.196 -11.416  1.00  0.00     0.267 C 
BRANCH   4   5
HETATM    5  N   UNL     1     -21.764  -3.672 -12.638  1.00  0.00     0.078 N 
HETATM    6  H   UNL     1     -21.329  -3.195 -13.462  1.00  0.00     0.312 HD
HETATM    7  H   UNL     1     -22.773  -3.404 -12.609  1.00  0.00     0.312 HD
ENDBRANCH   4   5
ENDBRANCH   3   4
ENDBRANCH   2   3
ENDBRANCH   1   2
BRANCH   1   8
HETATM    8  C   UNL     1     -24.713  -3.284 -10.215  1.00  0.00     0.173 C 
HETATM    9  O   UNL     1     -24.580  -3.026 -11.401  1.00  0.00    -0.648 OA
BRANCH   8  10
HETATM   10  OXT UNL     1     -25.950  -3.282  -9.675  1.00  0.00    -0.775 OA
HETATM   11  HXT UNL     1     -26.093  -3.224  -8.720  1.00  0.00     0.167 HD
ENDBRANCH   8  10
ENDBRANCH   1   8
BRANCH   1  12
HETATM   12  N   UNL     1     -23.916  -4.049  -8.036  1.00  0.00     0.093 N 
HETATM   13  H1  UNL     1     -23.447  -3.470  -7.301  1.00  0.00     0.314 HD
HETATM   14  H2  UNL     1     -23.649  -5.052  -7.895  1.00  0.00     0.314 HD
ENDBRANCH   1  12
TORSDOF 7
ENDMDL
MODEL 3
REMARK VINA RESULT:      -4.9      1.678      2.207
REMARK  7 active torsions:
REMARK  status: ('A' for Active; 'I' for Inactive)
REMARK    1  A    between atoms: C_1  and  C_2 
REMARK    2  A    between atoms: C_1  and  C_8 
REMARK    3  A    between atoms: C_2  and  CA_3 
REMARK    4  A    between atoms: CA_3  and  C_4 
REMARK    5  A    between atoms: CA_3  and  N_7 
REMARK    6  A    between atoms: C_4  and  OXT_6 
REMARK    7  A    between atoms: C_8  and  N_9 
ROOT
HETATM    1  CA  UNL     1     -23.190  -3.404 -13.198  1.00  0.00     0.314 C 
ENDROOT
BRANCH   1   2
HETATM    2  C   UNL     1     -23.952  -2.923 -11.945  1.00  0.00     0.048 C 
BRANCH   2   3
HETATM    3  C   UNL     1     -23.331  -3.476 -10.652  1.00  0.00     0.032 C 
BRANCH   3   4
HETATM    4  C   UNL     1     -24.376  -4.132  -9.742  1.00  0.00     0.267 C 
BRANCH   4   5
HETATM    5  N   UNL     1     -24.050  -3.925  -8.333  1.00  0.00     0.078 N 
HETATM    6  H   UNL     1     -23.169  -3.365  -8.265  1.00  0.00     0.312 HD
HETATM    7  H   UNL     1     -23.873  -4.855  -7.892  1.00  0.00     0.312 HD
ENDBRANCH   4   5
ENDBRANCH   3   4
ENDBRANCH   2   3
ENDBRANCH   1   2
BRANCH   1   8
HETATM    8  C   UNL     1     -23.361  -2.414 -14.331  1.00  0.00     0.173 C 
HETATM    9  O   UNL     1     -22.681  -2.517 -15.340  1.00  0.00    -0.648 OA
BRANCH   8  10
HETATM   10  OXT UNL     1     -24.268  -1.417 -14.248  1.00  0.00    -0.775 OA
HETATM   11  HXT UNL     1     -25.108  -1.448 -14.726  1.00  0.00     0.167 HD
ENDBRANCH   8  10
ENDBRANCH   1   8
BRANCH   1  12
HETATM   12  N   UNL     1     -21.768  -3.585 -12.895  1.00  0.00     0.093 N 
HETATM   13  H1  UNL     1     -21.178  -3.182 -13.659  1.00  0.00     0.314 HD
HETATM   14  H2  UNL     1     -21.557  -4.607 -12.811  1.00  0.00     0.314 HD
ENDBRANCH   1  12
TORSDOF 7
ENDMDL
MODEL 4
REMARK VINA RESULT:      -4.7      1.570      2.741
REMARK  7 active torsions:
REMARK  status: ('A' for Active; 'I' for Inactive)
REMARK    1  A    between atoms: C_1  and  C_2 
REMARK    2  A    between atoms: C_1  and  C_8 
REMARK    3  A    between atoms: C_2  and  CA_3 
REMARK    4  A    between atoms: CA_3  and  C_4 
REMARK    5  A    between atoms: CA_3  and  N_7 
REMARK    6  A    between atoms: C_4  and  OXT_6 
REMARK    7  A    between atoms: C_8  and  N_9 
ROOT
HETATM    1  CA  UNL     1     -24.052  -3.439 -10.565  1.00  0.00     0.314 C 
ENDROOT
BRANCH   1   2
HETATM    2  C   UNL     1     -23.099  -4.594 -10.192  1.00  0.00     0.048 C 
BRANCH   2   3
HETATM    3  C   UNL     1     -21.750  -4.075  -9.668  1.00  0.00     0.032 C 
BRANCH   3   4
HETATM    4  C   UNL     1     -20.608  -4.328 -10.659  1.00  0.00     0.267 C 
BRANCH   4   5
HETATM    5  N   UNL     1     -20.542  -3.271 -11.665  1.00  0.00     0.078 N 
HETATM    6  H   UNL     1     -20.221  -2.385 -11.210  1.00  0.00     0.312 HD
HETATM    7  H   UNL     1     -21.503  -3.109 -12.041  1.00  0.00     0.312 HD
ENDBRANCH   4   5
ENDBRANCH   3   4
ENDBRANCH   2   3
ENDBRANCH   1   2
BRANCH   1   8
HETATM    8  C   UNL     1     -24.254  -3.387 -12.065  1.00  0.00     0.173 C 
HETATM    9  O   UNL     1     -25.278  -2.906 -12.526  1.00  0.00    -0.648 OA
BRANCH   8  10
HETATM   10  OXT UNL     1     -23.309  -3.855 -12.907  1.00  0.00    -0.775 OA
HETATM   11  HXT UNL     1     -23.178  -3.481 -13.790  1.00  0.00     0.167 HD
ENDBRANCH   8  10
ENDBRANCH   1   8
BRANCH   1  12
HETATM   12  N   UNL     1     -25.340  -3.596  -9.886  1.00  0.00     0.093 N 
HETATM   13  H1  UNL     1     -25.798  -2.665  -9.751  1.00  0.00     0.314 HD
HETATM   14  H2  UNL     1     -25.189  -4.037  -8.949  1.00  0.00     0.314 HD
ENDBRANCH   1  12
TORSDOF 7
ENDMDL
MODEL 5
REMARK VINA RESULT:      -4.6     15.748     16.394
REMARK  7 active torsions:
REMARK  status: ('A' for Active; 'I' for Inactive)
REMARK    1  A    between atoms: C_1  and  C_2 
REMARK    2  A    between atoms: C_1  and  C_8 
REMARK    3  A    between atoms: C_2  and  CA_3 
REMARK    4  A    between atoms: CA_3  and  C_4 
REMARK    5  A    between atoms: CA_3  and  N_7 
REMARK    6  A    between atoms: C_4  and  OXT_6 
REMARK    7  A    between atoms: C_8  and  N_9 
ROOT
HETATM    1  CA  UNL     1     -29.941 -15.270 -21.567  1.00  0.00     0.314 C 
ENDROOT
BRANCH   1   2
HETATM    2  C   UNL     1     -30.011 -15.595 -20.060  1.00  0.00     0.048 C 
BRANCH   2   3
HETATM    3  C   UNL     1     -30.161 -14.323 -19.209  1.00  0.00     0.032 C 
BRANCH   3   4
HETATM    4  C   UNL     1     -29.750 -14.551 -17.750  1.00  0.00     0.267 C 
BRANCH   4   5
HETATM    5  N   UNL     1     -28.365 -15.008 -17.660  1.00  0.00     0.078 N 
HETATM    6  H   UNL     1     -27.887 -14.499 -16.882  1.00  0.00     0.312 HD
HETATM    7  H   UNL     1     -27.876 -14.764 -18.551  1.00  0.00     0.312 HD
ENDBRANCH   4   5
ENDBRANCH   3   4
ENDBRANCH   2   3
ENDBRANCH   1   2
BRANCH   1   8
HETATM    8  C   UNL     1     -31.325 -14.979 -22.108  1.00  0.00     0.173 C 
HETATM    9  O   UNL     1     -32.138 -15.883 -22.223  1.00  0.00    -0.648 OA
BRANCH   8  10
HETATM   10  OXT UNL     1     -31.683 -13.724 -22.456  1.00  0.00    -0.775 OA
HETATM   11  HXT UNL     1     -32.297 -13.200 -21.923  1.00  0.00     0.167 HD
ENDBRANCH   8  10
ENDBRANCH   1   8
BRANCH   1  12
HETATM   12  N   UNL     1     -29.056 -14.128 -21.806  1.00  0.00     0.093 N 
HETATM   13  H1  UNL     1     -28.083 -14.347 -21.489  1.00  0.00     0.314 HD
HETATM   14  H2  UNL     1     -29.405 -13.298 -21.271  1.00  0.00     0.314 HD
ENDBRANCH   1  12
TORSDOF 7
ENDMDL
MODEL 6
REMARK VINA RESULT:      -4.6      1.769      2.187
REMARK  7 active torsions:
REMARK  status: ('A' for Active; 'I' for Inactive)
REMARK    1  A    between atoms: C_1  and  C_2 
REMARK    2  A    between atoms: C_1  and  C_8 
REMARK    3  A    between atoms: C_2  and  CA_3 
REMARK    4  A    between atoms: CA_3  and  C_4 
REMARK    5  A    between atoms: CA_3  and  N_7 
REMARK    6  A    between atoms: C_4  and  OXT_6 
REMARK    7  A    between atoms: C_8  and  N_9 
ROOT
HETATM    1  CA  UNL     1     -23.183  -4.451 -10.625  1.00  0.00     0.314 C 
ENDROOT
BRANCH   1   2
HETATM    2  C   UNL     1     -21.866  -3.677 -10.402  1.00  0.00     0.048 C 
BRANCH   2   3
HETATM    3  C   UNL     1     -20.895  -4.452  -9.496  1.00  0.00     0.032 C 
BRANCH   3   4
HETATM    4  C   UNL     1     -21.487  -4.717  -8.107  1.00  0.00     0.267 C 
BRANCH   4   5
HETATM    5  N   UNL     1     -21.883  -3.470  -7.457  1.00  0.00     0.078 N 
HETATM    6  H   UNL     1     -21.386  -2.672  -7.917  1.00  0.00     0.312 HD
HETATM    7  H   UNL     1     -21.579  -3.504  -6.458  1.00  0.00     0.312 HD
ENDBRANCH   4   5
ENDBRANCH   3   4
ENDBRANCH   2   3
ENDBRANCH   1   2
BRANCH   1   8
HETATM    8  C   UNL     1     -24.367  -3.607 -10.202  1.00  0.00     0.173 C 
HETATM    9  O   UNL     1     -25.137  -3.170 -11.043  1.00  0.00    -0.648 OA
BRANCH   8  10
HETATM   10  OXT UNL     1     -24.595  -3.338  -8.898  1.00  0.00    -0.775 OA
HETATM   11  HXT UNL     1     -23.928  -2.919  -8.337  1.00  0.00     0.167 HD
ENDBRANCH   8  10
ENDBRANCH   1   8
BRANCH   1  12
HETATM   12  N   UNL     1     -23.317  -4.841 -12.030  1.00  0.00     0.093 N 
HETATM   13  H1  UNL     1     -24.163  -4.395 -12.454  1.00  0.00     0.314 HD
HETATM   14  H2  UNL     1     -23.416  -5.881 -12.096  1.00  0.00     0.314 HD
ENDBRANCH   1  12
TORSDOF 7
ENDMDL
MODEL 7
REMARK VINA RESULT:      -4.4      7.569      9.020
REMARK  7 active torsions:
REMARK  status: ('A' for Active; 'I' for Inactive)
REMARK    1  A    between atoms: C_1  and  C_2 
REMARK    2  A    between atoms: C_1  and  C_8 
REMARK    3  A    between atoms: C_2  and  CA_3 
REMARK    4  A    between atoms: CA_3  and  C_4 
REMARK    5  A    between atoms: CA_3  and  N_7 
REMARK    6  A    between atoms: C_4  and  OXT_6 
REMARK    7  A    between atoms: C_8  and  N_9 
ROOT
HETATM    1  CA  UNL     1     -26.941  -6.193 -17.210  1.00  0.00     0.314 C 
ENDROOT
BRANCH   1   2
HETATM    2  C   UNL     1     -28.331  -6.762 -16.855  1.00  0.00     0.048 C 
BRANCH   2   3
HETATM    3  C   UNL     1     -29.392  -6.365 -17.895  1.00  0.00     0.032 C 
BRANCH   3   4
HETATM    4  C   UNL     1     -30.279  -7.549 -18.298  1.00  0.00     0.267 C 
BRANCH   4   5
HETATM    5  N   UNL     1     -29.485  -8.621 -18.893  1.00  0.00     0.078 N 
HETATM    6  H   UNL     1     -29.938  -9.540 -18.681  1.00  0.00     0.312 HD
HETATM    7  H   UNL     1     -28.540  -8.621 -18.447  1.00  0.00     0.312 HD
ENDBRANCH   4   5
ENDBRANCH   3   4
ENDBRANCH   2   3
ENDBRANCH   1   2
BRANCH   1   8
HETATM    8  C   UNL     1     -25.912  -6.643 -16.194  1.00  0.00     0.173 C 
HETATM    9  O   UNL     1     -26.220  -7.449 -15.330  1.00  0.00    -0.648 OA
BRANCH   8  10
HETATM   10  OXT UNL     1     -24.647  -6.174 -16.235  1.00  0.00    -0.775 OA
HETATM   11  HXT UNL     1     -23.883  -6.764 -16.293  1.00  0.00     0.167 HD
ENDBRANCH   8  10
ENDBRANCH   1   8
BRANCH   1  12
HETATM   12  N   UNL     1     -26.541  -6.615 -18.554  1.00  0.00     0.093 N 
HETATM   13  H1  UNL     1     -27.309  -7.159 -19.011  1.00  0.00     0.314 HD
HETATM   14  H2  UNL     1     -25.691  -7.222 -18.491  1.00  0.00     0.314 HD
ENDBRANCH   1  12
TORSDOF 7
ENDMDL
MODEL 8
REMARK VINA RESULT:      -4.3      2.028      3.880
REMARK  7 active torsions:
REMARK  status: ('A' for Active; 'I' for Inactive)
REMARK    1  A    between atoms: C_1  and  C_2 
REMARK    2  A    between atoms: C_1  and  C_8 
REMARK    3  A    between atoms: C_2  and  CA_3 
REMARK    4  A    between atoms: CA_3  and  C_4 
REMARK    5  A    between atoms: CA_3  and  N_7 
REMARK    6  A    between atoms: C_4  and  OXT_6 
REMARK    7  A    between atoms: C_8  and  N_9 
ROOT
HETATM    1  CA  UNL     1     -23.222  -4.177 -10.423  1.00  0.00     0.314 C 
ENDROOT
BRANCH   1   2
HETATM    2  C   UNL     1     -22.651  -3.005 -11.249  1.00  0.00     0.048 C 
BRANCH   2   3
HETATM    3  C   UNL     1     -22.256  -3.447 -12.668  1.00  0.00     0.032 C 
BRANCH   3   4
HETATM    4  C   UNL     1     -23.123  -2.783 -13.744  1.00  0.00     0.267 C 
BRANCH   4   5
HETATM    5  N   UNL     1     -22.481  -2.857 -15.054  1.00  0.00     0.078 N 
HETATM    6  H   UNL     1     -22.370  -1.889 -15.435  1.00  0.00     0.312 HD
HETATM    7  H   UNL     1     -23.107  -3.387 -15.702  1.00  0.00     0.312 HD
ENDBRANCH   4   5
ENDBRANCH   3   4
ENDBRANCH   2   3
ENDBRANCH   1   2
BRANCH   1   8
HETATM    8  C   UNL     1     -24.373  -3.701  -9.560  1.00  0.00     0.173 C 
HETATM    9  O   UNL     1     -25.354  -3.191 -10.078  1.00  0.00    -0.648 OA
BRANCH   8  10
HETATM   10  OXT UNL     1     -24.337  -3.844  -8.218  1.00  0.00    -0.775 OA
HETATM   11  HXT UNL     1     -24.165  -4.698  -7.798  1.00  0.00     0.167 HD
ENDBRANCH   8  10
ENDBRANCH   1   8
BRANCH   1  12
HETATM   12  N   UNL     1     -23.666  -5.259 -11.304  1.00  0.00     0.093 N 
HETATM   13  H1  UNL     1     -22.896  -5.952 -11.449  1.00  0.00     0.314 HD
HETATM   14  H2  UNL     1     -23.940  -4.862 -12.233  1.00  0.00     0.314 HD
ENDBRANCH   1  12
TORSDOF 7
ENDMDL
MODEL 9
REMARK VINA RESULT:      -4.3      2.396      4.101
REMARK  7 active torsions:
REMARK  status: ('A' for Active; 'I' for Inactive)
REMARK    1  A    between atoms: C_1  and  C_2 
REMARK    2  A    between atoms: C_1  and  C_8 
REMARK    3  A    between atoms: C_2  and  CA_3 
REMARK    4  A    between atoms: CA_3  and  C_4 
REMARK    5  A    between atoms: CA_3  and  N_7 
REMARK    6  A    between atoms: C_4  and  OXT_6 
REMARK    7  A    between atoms: C_8  and  N_9 
ROOT
HETATM    1  CA  UNL     1     -23.638  -4.316  -9.503  1.00  0.00     0.314 C 
ENDROOT
BRANCH   1   2
HETATM    2  C   UNL     1     -23.692  -4.479 -11.036  1.00  0.00     0.048 C 
BRANCH   2   3
HETATM    3  C   UNL     1     -24.098  -3.171 -11.735  1.00  0.00     0.032 C 
BRANCH   3   4
HETATM    4  C   UNL     1     -23.140  -2.802 -12.874  1.00  0.00     0.267 C 
BRANCH   4   5
HETATM    5  N   UNL     1     -21.935  -3.627 -12.835  1.00  0.00     0.078 N 
HETATM    6  H   UNL     1     -21.103  -3.028 -13.039  1.00  0.00     0.312 HD
HETATM    7  H   UNL     1     -22.002  -4.348 -13.589  1.00  0.00     0.312 HD
ENDBRANCH   4   5
ENDBRANCH   3   4
ENDBRANCH   2   3
ENDBRANCH   1   2
BRANCH   1   8
HETATM    8  C   UNL     1     -22.230  -3.979  -9.058  1.00  0.00     0.173 C 
HETATM    9  O   UNL     1     -22.021  -3.626  -7.908  1.00  0.00    -0.648 OA
BRANCH   8  10
HETATM   10  OXT UNL     1     -21.192  -4.074  -9.916  1.00  0.00    -0.775 OA
HETATM   11  HXT UNL     1     -21.005  -3.389 -10.572  1.00  0.00     0.167 HD
ENDBRANCH   8  10
ENDBRANCH   1   8
BRANCH   1  12
HETATM   12  N   UNL     1     -24.569  -3.274  -9.064  1.00  0.00     0.093 N 
HETATM   13  H1  UNL     1     -24.867  -2.685  -9.876  1.00  0.00     0.314 HD
HETATM   14  H2  UNL     1     -24.100  -2.661  -8.358  1.00  0.00     0.314 HD
ENDBRANCH   1  12
TORSDOF 7
ENDMDL
