MODEL 1
REMARK VINA RESULT:      -5.7      0.000      0.000
REMARK  9 active torsions:
REMARK  status: ('A' for Active; 'I' for Inactive)
REMARK    1  A    between atoms: C_2  and  C_3 
REMARK    2  A    between atoms: C_3  and  C_4 
REMARK    3  A    between atoms: C_4  and  C_5 
REMARK    4  A    between atoms: C_5  and  C_6 
REMARK    5  A    between atoms: C_6  and  C_7 
REMARK    6  A    between atoms: C_7  and  C_8 
REMARK    7  A    between atoms: C_8  and  C_9 
REMARK    8  A    between atoms: C_9  and  C_10 
REMARK    9  A    between atoms: C_10  and  O_12 
ROOT
HETATM    1  C   UNL     1     -20.587  -3.820 -11.195  1.00  0.00     0.001 C 
ENDROOT
BRANCH   1   2
HETATM    2  C   UNL     1     -20.690  -4.484  -9.821  1.00  0.00     0.000 C 
BRANCH   2   3
HETATM    3  C   UNL     1     -21.898  -3.968  -9.047  1.00  0.00     0.000 C 
BRANCH   3   4
HETATM    4  C   UNL     1     -21.555  -3.761  -7.575  1.00  0.00     0.000 C 
BRANCH   4   5
HETATM    5  C   UNL     1     -20.130  -4.225  -7.281  1.00  0.00    -0.000 C 
BRANCH   5   6
HETATM    6  C   UNL     1     -20.002  -4.749  -5.853  1.00  0.00    -0.005 C 
HETATM    7  C   UNL     1     -20.903  -5.952  -5.632  1.00  0.00     0.005 C 
ENDBRANCH   5   6
ENDBRANCH   4   5
ENDBRANCH   3   4
ENDBRANCH   2   3
ENDBRANCH   1   2
BRANCH   1   8
HETATM    8  C   UNL     1     -21.800  -2.928 -11.444  1.00  0.00     0.010 C 
BRANCH   8   9
HETATM    9  C   UNL     1     -22.718  -3.495 -12.521  1.00  0.00     0.110 C 
BRANCH   9  10
HETATM   10  C   UNL     1     -24.121  -2.950 -12.380  1.00  0.00     0.139 C 
HETATM   11  O   UNL     1     -24.877  -3.168 -11.447  1.00  0.00    -0.650 OA
BRANCH  10  12
HETATM   12  O   UNL     1     -24.471  -2.166 -13.428  1.00  0.00    -0.776 OA
HETATM   13  H   UNL     1     -24.173  -2.504 -14.292  1.00  0.00     0.167 HD
ENDBRANCH  10  12
ENDBRANCH   9  10
ENDBRANCH   8   9
ENDBRANCH   1   8
TORSDOF 9
ENDMDL
MODEL 2
REMARK VINA RESULT:      -5.7      2.073      2.914
REMARK  9 active torsions:
REMARK  status: ('A' for Active; 'I' for Inactive)
REMARK    1  A    between atoms: C_2  and  C_3 
REMARK    2  A    between atoms: C_3  and  C_4 
REMARK    3  A    between atoms: C_4  and  C_5 
REMARK    4  A    between atoms: C_5  and  C_6 
REMARK    5  A    between atoms: C_6  and  C_7 
REMARK    6  A    between atoms: C_7  and  C_8 
REMARK    7  A    between atoms: C_8  and  C_9 
REMARK    8  A    between atoms: C_9  and  C_10 
REMARK    9  A    between atoms: C_10  and  O_12 
ROOT
HETATM    1  C   UNL     1     -21.183  -2.996 -11.508  1.00  0.00     0.001 C 
ENDROOT
BRANCH   1   2
HETATM    2  C   UNL     1     -20.393  -4.181 -10.952  1.00  0.00     0.000 C 
BRANCH   2   3
HETATM    3  C   UNL     1     -20.449  -4.217  -9.428  1.00  0.00     0.000 C 
BRANCH   3   4
HETATM    4  C   UNL     1     -21.747  -4.856  -8.945  1.00  0.00     0.000 C 
BRANCH   4   5
HETATM    5  C   UNL     1     -22.687  -3.801  -8.365  1.00  0.00    -0.000 C 
BRANCH   5   6
HETATM    6  C   UNL     1     -23.964  -3.682  -9.193  1.00  0.00    -0.005 C 
HETATM    7  C   UNL     1     -24.189  -4.931 -10.027  1.00  0.00     0.005 C 
ENDBRANCH   5   6
ENDBRANCH   4   5
ENDBRANCH   3   4
ENDBRANCH   2   3
ENDBRANCH   1   2
BRANCH   1   8
HETATM    8  C   UNL     1     -22.226  -3.479 -12.511  1.00  0.00     0.010 C 
BRANCH   8   9
HETATM    9  C   UNL     1     -23.329  -2.449 -12.734  1.00  0.00     0.110 C 
BRANCH   9  10
HETATM   10  C   UNL     1     -23.667  -2.326 -14.202  1.00  0.00     0.139 C 
HETATM   11  O   UNL     1     -24.088  -1.322 -14.752  1.00  0.00    -0.650 OA
BRANCH  10  12
HETATM   12  O   UNL     1     -23.449  -3.482 -14.874  1.00  0.00    -0.776 OA
HETATM   13  H   UNL     1     -23.056  -3.359 -15.758  1.00  0.00     0.167 HD
ENDBRANCH  10  12
ENDBRANCH   9  10
ENDBRANCH   8   9
ENDBRANCH   1   8
TORSDOF 9
ENDMDL
MODEL 3
REMARK VINA RESULT:      -5.6      1.554      2.220
REMARK  9 active torsions:
REMARK  status: ('A' for Active; 'I' for Inactive)
REMARK    1  A    between atoms: C_2  and  C_3 
REMARK    2  A    between atoms: C_3  and  C_4 
REMARK    3  A    between atoms: C_4  and  C_5 
REMARK    4  A    between atoms: C_5  and  C_6 
REMARK    5  A    between atoms: C_6  and  C_7 
REMARK    6  A    between atoms: C_7  and  C_8 
REMARK    7  A    between atoms: C_8  and  C_9 
REMARK    8  A    between atoms: C_9  and  C_10 
REMARK    9  A    between atoms: C_10  and  O_12 
ROOT
HETATM    1  C   UNL     1     -22.075  -4.312 -11.117  1.00  0.00     0.001 C 
ENDROOT
BRANCH   1   2
HETATM    2  C   UNL     1     -23.502  -4.575 -10.634  1.00  0.00     0.000 C 
BRANCH   2   3
HETATM    3  C   UNL     1     -23.678  -4.158  -9.177  1.00  0.00     0.000 C 
BRANCH   3   4
HETATM    4  C   UNL     1     -22.361  -3.661  -8.588  1.00  0.00     0.000 C 
BRANCH   4   5
HETATM    5  C   UNL     1     -22.078  -4.337  -7.248  1.00  0.00    -0.000 C 
BRANCH   5   6
HETATM    6  C   UNL     1     -20.587  -4.318  -6.923  1.00  0.00    -0.005 C 
HETATM    7  C   UNL     1     -19.766  -3.978  -8.155  1.00  0.00     0.005 C 
ENDBRANCH   5   6
ENDBRANCH   4   5
ENDBRANCH   3   4
ENDBRANCH   2   3
ENDBRANCH   1   2
BRANCH   1   8
HETATM    8  C   UNL     1     -22.081  -3.305 -12.264  1.00  0.00     0.010 C 
BRANCH   8   9
HETATM    9  C   UNL     1     -23.463  -3.164 -12.895  1.00  0.00     0.110 C 
BRANCH   9  10
HETATM   10  C   UNL     1     -23.380  -2.460 -14.230  1.00  0.00     0.139 C 
HETATM   11  O   UNL     1     -22.645  -2.771 -15.153  1.00  0.00    -0.650 OA
BRANCH  10  12
HETATM   12  O   UNL     1     -24.232  -1.409 -14.306  1.00  0.00    -0.776 OA
HETATM   13  H   UNL     1     -25.140  -1.614 -14.018  1.00  0.00     0.167 HD
ENDBRANCH  10  12
ENDBRANCH   9  10
ENDBRANCH   8   9
ENDBRANCH   1   8
TORSDOF 9
ENDMDL
MODEL 4
REMARK VINA RESULT:      -5.4      1.513      1.983
REMARK  9 active torsions:
REMARK  status: ('A' for Active; 'I' for Inactive)
REMARK    1  A    between atoms: C_2  and  C_3 
REMARK    2  A    between atoms: C_3  and  C_4 
REMARK    3  A    between atoms: C_4  and  C_5 
REMARK    4  A    between atoms: C_5  and  C_6 
REMARK    5  A    between atoms: C_6  and  C_7 
REMARK    6  A    between atoms: C_7  and  C_8 
REMARK    7  A    between atoms: C_8  and  C_9 
REMARK    8  A    between atoms: C_9  and  C_10 
REMARK    9  A    between atoms: C_10  and  O_12 
ROOT
HETATM    1  C   UNL     1     -21.609  -2.987 -11.316  1.00  0.00     0.001 C 
ENDROOT
BRANCH   1   2
HETATM    2  C   UNL     1     -20.393  -3.906 -11.440  1.00  0.00     0.000 C 
BRANCH   2   3
HETATM    3  C   UNL     1     -20.182  -4.719 -10.167  1.00  0.00     0.000 C 
BRANCH   3   4
HETATM    4  C   UNL     1     -20.889  -4.070  -8.981  1.00  0.00     0.000 C 
BRANCH   4   5
HETATM    5  C   UNL     1     -20.930  -5.022  -7.787  1.00  0.00    -0.000 C 
BRANCH   5   6
HETATM    6  C   UNL     1     -19.769  -4.760  -6.831  1.00  0.00    -0.005 C 
HETATM    7  C   UNL     1     -20.228  -4.836  -5.385  1.00  0.00     0.005 C 
ENDBRANCH   5   6
ENDBRANCH   4   5
ENDBRANCH   3   4
ENDBRANCH   2   3
ENDBRANCH   1   2
BRANCH   1   8
HETATM    8  C   UNL     1     -22.728  -3.461 -12.239  1.00  0.00     0.010 C 
BRANCH   8   9
HETATM    9  C   UNL     1     -24.107  -3.077 -11.714  1.00  0.00     0.110 C 
BRANCH   9  10
HETATM   10  C   UNL     1     -24.377  -3.725 -10.376  1.00  0.00     0.139 C 
HETATM   11  O   UNL     1     -24.279  -4.916 -10.131  1.00  0.00    -0.650 OA
BRANCH  10  12
HETATM   12  O   UNL     1     -24.753  -2.822  -9.438  1.00  0.00    -0.776 OA
HETATM   13  H   UNL     1     -25.683  -2.541  -9.509  1.00  0.00     0.167 HD
ENDBRANCH  10  12
ENDBRANCH   9  10
ENDBRANCH   8   9
ENDBRANCH   1   8
TORSDOF 9
ENDMDL
MODEL 5
REMARK VINA RESULT:      -5.3      3.456      6.125
REMARK  9 active torsions:
REMARK  status: ('A' for Active; 'I' for Inactive)
REMARK    1  A    between atoms: C_2  and  C_3 
REMARK    2  A    between atoms: C_3  and  C_4 
REMARK    3  A    between atoms: C_4  and  C_5 
REMARK    4  A    between atoms: C_5  and  C_6 
REMARK    5  A    between atoms: C_6  and  C_7 
REMARK    6  A    between atoms: C_7  and  C_8 
REMARK    7  A    between atoms: C_8  and  C_9 
REMARK    8  A    between atoms: C_9  and  C_10 
REMARK    9  A    between atoms: C_10  and  O_12 
ROOT
HETATM    1  C   UNL     1     -21.478  -3.661  -7.305  1.00  0.00     0.001 C 
ENDROOT
BRANCH   1   2
HETATM    2  C   UNL     1     -21.728  -4.046  -8.764  1.00  0.00     0.000 C 
BRANCH   2   3
HETATM    3  C   UNL     1     -20.417  -4.283  -9.506  1.00  0.00     0.000 C 
BRANCH   3   4
HETATM    4  C   UNL     1     -20.632  -4.262 -11.016  1.00  0.00     0.000 C 
BRANCH   4   5
HETATM    5  C   UNL     1     -21.348  -2.983 -11.443  1.00  0.00    -0.000 C 
BRANCH   5   6
HETATM    6  C   UNL     1     -22.498  -3.285 -12.401  1.00  0.00    -0.005 C 
HETATM    7  C   UNL     1     -23.840  -3.087 -11.718  1.00  0.00     0.005 C 
ENDBRANCH   5   6
ENDBRANCH   4   5
ENDBRANCH   3   4
ENDBRANCH   2   3
ENDBRANCH   1   2
BRANCH   1   8
HETATM    8  C   UNL     1     -20.222  -4.352  -6.783  1.00  0.00     0.010 C 
BRANCH   8   9
HETATM    9  C   UNL     1     -20.481  -5.112  -5.486  1.00  0.00     0.110 C 
BRANCH   9  10
HETATM   10  C   UNL     1     -21.420  -6.273  -5.717  1.00  0.00     0.139 C 
HETATM   11  O   UNL     1     -21.184  -7.251  -6.407  1.00  0.00    -0.650 OA
BRANCH  10  12
HETATM   12  O   UNL     1     -22.594  -6.118  -5.058  1.00  0.00    -0.776 OA
HETATM   13  H   UNL     1     -22.505  -6.105  -4.088  1.00  0.00     0.167 HD
ENDBRANCH  10  12
ENDBRANCH   9  10
ENDBRANCH   8   9
ENDBRANCH   1   8
TORSDOF 9
ENDMDL
MODEL 6
REMARK VINA RESULT:      -5.3      1.688      2.395
REMARK  9 active torsions:
REMARK  status: ('A' for Active; 'I' for Inactive)
REMARK    1  A    between atoms: C_2  and  C_3 
REMARK    2  A    between atoms: C_3  and  C_4 
REMARK    3  A    between atoms: C_4  and  C_5 
REMARK    4  A    between atoms: C_5  and  C_6 
REMARK    5  A    between atoms: C_6  and  C_7 
REMARK    6  A    between atoms: C_7  and  C_8 
REMARK    7  A    between atoms: C_8  and  C_9 
REMARK    8  A    between atoms: C_9  and  C_10 
REMARK    9  A    between atoms: C_10  and  O_12 
ROOT
HETATM    1  C   UNL     1     -21.040  -4.239 -10.240  1.00  0.00     0.001 C 
ENDROOT
BRANCH   1   2
HETATM    2  C   UNL     1     -20.868  -4.054  -8.732  1.00  0.00     0.000 C 
BRANCH   2   3
HETATM    3  C   UNL     1     -19.545  -4.639  -8.250  1.00  0.00     0.000 C 
BRANCH   3   4
HETATM    4  C   UNL     1     -19.498  -4.699  -6.726  1.00  0.00     0.000 C 
BRANCH   4   5
HETATM    5  C   UNL     1     -20.902  -4.852  -6.147  1.00  0.00    -0.000 C 
BRANCH   5   6
HETATM    6  C   UNL     1     -21.124  -6.257  -5.595  1.00  0.00    -0.005 C 
HETATM    7  C   UNL     1     -21.348  -6.222  -4.093  1.00  0.00     0.005 C 
ENDBRANCH   5   6
ENDBRANCH   4   5
ENDBRANCH   3   4
ENDBRANCH   2   3
ENDBRANCH   1   2
BRANCH   1   8
HETATM    8  C   UNL     1     -22.300  -3.524 -10.721  1.00  0.00     0.010 C 
BRANCH   8   9
HETATM    9  C   UNL     1     -23.545  -4.392 -10.570  1.00  0.00     0.110 C 
BRANCH   9  10
HETATM   10  C   UNL     1     -24.568  -3.721  -9.684  1.00  0.00     0.139 C 
HETATM   11  O   UNL     1     -25.582  -3.160 -10.068  1.00  0.00    -0.650 OA
BRANCH  10  12
HETATM   12  O   UNL     1     -24.241  -3.805  -8.372  1.00  0.00    -0.776 OA
HETATM   13  H   UNL     1     -24.382  -4.689  -7.985  1.00  0.00     0.167 HD
ENDBRANCH  10  12
ENDBRANCH   9  10
ENDBRANCH   8   9
ENDBRANCH   1   8
TORSDOF 9
ENDMDL
MODEL 7
REMARK VINA RESULT:      -5.1      1.051      1.913
REMARK  9 active torsions:
REMARK  status: ('A' for Active; 'I' for Inactive)
REMARK    1  A    between atoms: C_2  and  C_3 
REMARK    2  A    between atoms: C_3  and  C_4 
REMARK    3  A    between atoms: C_4  and  C_5 
REMARK    4  A    between atoms: C_5  and  C_6 
REMARK    5  A    between atoms: C_6  and  C_7 
REMARK    6  A    between atoms: C_7  and  C_8 
REMARK    7  A    between atoms: C_8  and  C_9 
REMARK    8  A    between atoms: C_9  and  C_10 
REMARK    9  A    between atoms: C_10  and  O_12 
ROOT
HETATM    1  C   UNL     1     -20.950  -4.124  -9.572  1.00  0.00     0.001 C 
ENDROOT
BRANCH   1   2
HETATM    2  C   UNL     1     -20.671  -3.963  -8.077  1.00  0.00     0.000 C 
BRANCH   2   3
HETATM    3  C   UNL     1     -19.478  -4.808  -7.642  1.00  0.00     0.000 C 
BRANCH   3   4
HETATM    4  C   UNL     1     -19.910  -5.900  -6.668  1.00  0.00     0.000 C 
BRANCH   4   5
HETATM    5  C   UNL     1     -20.850  -5.336  -5.604  1.00  0.00    -0.000 C 
BRANCH   5   6
HETATM    6  C   UNL     1     -21.896  -6.366  -5.188  1.00  0.00    -0.005 C 
HETATM    7  C   UNL     1     -21.408  -7.778  -5.463  1.00  0.00     0.005 C 
ENDBRANCH   5   6
ENDBRANCH   4   5
ENDBRANCH   3   4
ENDBRANCH   2   3
ENDBRANCH   1   2
BRANCH   1   8
HETATM    8  C   UNL     1     -22.402  -3.773  -9.881  1.00  0.00     0.010 C 
BRANCH   8   9
HETATM    9  C   UNL     1     -22.673  -3.717 -11.381  1.00  0.00     0.110 C 
BRANCH   9  10
HETATM   10  C   UNL     1     -24.021  -3.096 -11.665  1.00  0.00     0.139 C 
HETATM   11  O   UNL     1     -25.009  -3.189 -10.957  1.00  0.00    -0.650 OA
BRANCH  10  12
HETATM   12  O   UNL     1     -24.026  -2.399 -12.828  1.00  0.00    -0.776 OA
HETATM   13  H   UNL     1     -24.888  -2.001 -13.047  1.00  0.00     0.167 HD
ENDBRANCH  10  12
ENDBRANCH   9  10
ENDBRANCH   8   9
ENDBRANCH   1   8
TORSDOF 9
ENDMDL
MODEL 8
REMARK VINA RESULT:      -4.9      5.447      8.337
REMARK  9 active torsions:
REMARK  status: ('A' for Active; 'I' for Inactive)
REMARK    1  A    between atoms: C_2  and  C_3 
REMARK    2  A    between atoms: C_3  and  C_4 
REMARK    3  A    between atoms: C_4  and  C_5 
REMARK    4  A    between atoms: C_5  and  C_6 
REMARK    5  A    between atoms: C_6  and  C_7 
REMARK    6  A    between atoms: C_7  and  C_8 
REMARK    7  A    between atoms: C_8  and  C_9 
REMARK    8  A    between atoms: C_9  and  C_10 
REMARK    9  A    between atoms: C_10  and  O_12 
ROOT
HETATM    1  C   UNL     1     -21.350  -5.951  -2.867  1.00  0.00     0.001 C 
ENDROOT
BRANCH   1   2
HETATM    2  C   UNL     1     -22.228  -6.424  -1.707  1.00  0.00     0.000 C 
BRANCH   2   3
HETATM    3  C   UNL     1     -21.617  -7.635  -1.010  1.00  0.00     0.000 C 
BRANCH   3   4
HETATM    4  C   UNL     1     -22.171  -7.787   0.404  1.00  0.00     0.000 C 
BRANCH   4   5
HETATM    5  C   UNL     1     -23.315  -8.798   0.431  1.00  0.00    -0.000 C 
BRANCH   5   6
HETATM    6  C   UNL     1     -22.932 -10.087  -0.290  1.00  0.00    -0.005 C 
HETATM    7  C   UNL     1     -24.084 -11.078  -0.281  1.00  0.00     0.005 C 
ENDBRANCH   5   6
ENDBRANCH   4   5
ENDBRANCH   3   4
ENDBRANCH   2   3
ENDBRANCH   1   2
BRANCH   1   8
HETATM    8  C   UNL     1     -21.441  -6.930  -4.034  1.00  0.00     0.010 C 
BRANCH   8   9
HETATM    9  C   UNL     1     -22.182  -6.334  -5.226  1.00  0.00     0.110 C 
BRANCH   9  10
HETATM   10  C   UNL     1     -21.218  -5.695  -6.199  1.00  0.00     0.139 C 
HETATM   11  O   UNL     1     -20.904  -4.516  -6.216  1.00  0.00    -0.650 OA
BRANCH  10  12
HETATM   12  O   UNL     1     -20.716  -6.590  -7.083  1.00  0.00    -0.776 OA
HETATM   13  H   UNL     1     -21.132  -6.552  -7.964  1.00  0.00     0.167 HD
ENDBRANCH  10  12
ENDBRANCH   9  10
ENDBRANCH   8   9
ENDBRANCH   1   8
TORSDOF 9
ENDMDL
MODEL 9
REMARK VINA RESULT:      -4.9      2.266      3.440
REMARK  9 active torsions:
REMARK  status: ('A' for Active; 'I' for Inactive)
REMARK    1  A    between atoms: C_2  and  C_3 
REMARK    2  A    between atoms: C_3  and  C_4 
REMARK    3  A    between atoms: C_4  and  C_5 
REMARK    4  A    between atoms: C_5  and  C_6 
REMARK    5  A    between atoms: C_6  and  C_7 
REMARK    6  A    between atoms: C_7  and  C_8 
REMARK    7  A    between atoms: C_8  and  C_9 
REMARK    8  A    between atoms: C_9  and  C_10 
REMARK    9  A    between atoms: C_10  and  O_12 
ROOT
HETATM    1  C   UNL     1     -19.993  -5.003  -8.331  1.00  0.00     0.001 C 
ENDROOT
BRANCH   1   2
HETATM    2  C   UNL     1     -21.003  -5.793  -7.498  1.00  0.00     0.000 C 
BRANCH   2   3
HETATM    3  C   UNL     1     -20.529  -5.949  -6.057  1.00  0.00     0.000 C 
BRANCH   3   4
HETATM    4  C   UNL     1     -21.714  -6.058  -5.102  1.00  0.00     0.000 C 
BRANCH   4   5
HETATM    5  C   UNL     1     -21.328  -6.837  -3.846  1.00  0.00    -0.000 C 
BRANCH   5   6
HETATM    6  C   UNL     1     -21.894  -6.179  -2.591  1.00  0.00    -0.005 C 
HETATM    7  C   UNL     1     -21.920  -7.158  -1.429  1.00  0.00     0.005 C 
ENDBRANCH   5   6
ENDBRANCH   4   5
ENDBRANCH   3   4
ENDBRANCH   2   3
ENDBRANCH   1   2
BRANCH   1   8
HETATM    8  C   UNL     1     -20.717  -4.047  -9.275  1.00  0.00     0.010 C 
BRANCH   8   9
HETATM    9  C   UNL     1     -20.487  -4.402 -10.740  1.00  0.00     0.110 C 
BRANCH   9  10
HETATM   10  C   UNL     1     -21.781  -4.349 -11.520  1.00  0.00     0.139 C 
HETATM   11  O   UNL     1     -22.858  -4.774 -11.137  1.00  0.00    -0.650 OA
BRANCH  10  12
HETATM   12  O   UNL     1     -21.622  -3.763 -12.731  1.00  0.00    -0.776 OA
HETATM   13  H   UNL     1     -22.460  -3.546 -13.178  1.00  0.00     0.167 HD
ENDBRANCH  10  12
ENDBRANCH   9  10
ENDBRANCH   8   9
ENDBRANCH   1   8
TORSDOF 9
ENDMDL
