MODEL 1
REMARK VINA RESULT:      -6.9      0.000      0.000
REMARK WARNING: 32 MAX_TORS EXCEEDED!!!
REMARK  62 active torsions:
REMARK  status: ('A' for Active; 'I' for Inactive)
REMARK    1  A    between atoms: C_2  and  C_3 
REMARK    2  A    between atoms: C_3  and  C_4 
REMARK    3  A    between atoms: C_4  and  C_5 
REMARK    4  A    between atoms: C_5  and  C_6 
REMARK    5  A    between atoms: C_6  and  C_7 
REMARK    6  A    between atoms: C_7  and  C_8 
REMARK    7  A    between atoms: C_8  and  C_9 
REMARK    8  A    between atoms: C_9  and  C_10 
REMARK    9  A    between atoms: C_9  and  C_16 
REMARK   10  A    between atoms: C_10  and  C_11 
REMARK   11  A    between atoms: C_11  and  C_12 
REMARK   12  A    between atoms: C_12  and  C_13 
REMARK   13  A    between atoms: C_13  and  C_14 
REMARK   14  A    between atoms: C_16  and  O_18 
REMARK   15  A    between atoms: O_18  and  C_19 
REMARK   16  A    between atoms: C_19  and  C_20 
REMARK   17  A    between atoms: C_20  and  C_21 
REMARK   18  A    between atoms: C_20  and  O_63 
REMARK   19  A    between atoms: C_22  and  O_45 
REMARK   20  A    between atoms: C_23  and  O_27 
REMARK   21  A    between atoms: O_27  and  C_28 
REMARK   22  A    between atoms: C_28  and  C_30 
REMARK   23  A    between atoms: C_30  and  C_31 
REMARK   24  A    between atoms: C_30  and  C_37 
REMARK   25  A    between atoms: C_31  and  C_32 
REMARK   26  A    between atoms: C_32  and  C_33 
REMARK   27  A    between atoms: C_33  and  C_34 
REMARK   28  A    between atoms: C_34  and  C_35 
REMARK   29  A    between atoms: C_37  and  C_38 
REMARK   30  A    between atoms: C_38  and  C_39 
REMARK   31  A    between atoms: C_39  and  C_40 
REMARK   32  A    between atoms: C_40  and  C_41 
REMARK   33  A    between atoms: C_41  and  C_42 
REMARK   34  A    between atoms: C_42  and  C_43 
REMARK   35  A    between atoms: O_45  and  C_46 
REMARK   36  A    between atoms: C_46  and  C_48 
REMARK   37  A    between atoms: C_48  and  C_49 
REMARK   38  A    between atoms: C_48  and  C_55 
REMARK   39  A    between atoms: C_49  and  C_50 
REMARK   40  A    between atoms: C_50  and  C_51 
REMARK   41  A    between atoms: C_51  and  C_52 
REMARK   42  A    between atoms: C_52  and  C_53 
REMARK   43  A    between atoms: C_55  and  C_56 
REMARK   44  A    between atoms: C_56  and  C_57 
REMARK   45  A    between atoms: C_57  and  C_58 
REMARK   46  A    between atoms: C_58  and  C_59 
REMARK   47  A    between atoms: C_59  and  C_60 
REMARK   48  A    between atoms: C_60  and  C_61 
REMARK   49  A    between atoms: O_63  and  C_64 
REMARK   50  A    between atoms: C_64  and  C_66 
REMARK   51  A    between atoms: C_66  and  C_67 
REMARK   52  A    between atoms: C_66  and  C_73 
REMARK   53  A    between atoms: C_67  and  C_68 
REMARK   54  A    between atoms: C_68  and  C_69 
REMARK   55  A    between atoms: C_69  and  C_70 
REMARK   56  A    between atoms: C_70  and  C_71 
REMARK   57  A    between atoms: C_73  and  C_74 
REMARK   58  A    between atoms: C_74  and  C_75 
REMARK   59  A    between atoms: C_75  and  C_76 
REMARK   60  A    between atoms: C_76  and  C_77 
REMARK   61  A    between atoms: C_77  and  C_78 
REMARK   62  A    between atoms: C_78  and  C_79 
ROOT
HETATM    1  C   UNL     1     -17.605 -12.041  -2.631  1.00  0.00     0.224 C 
HETATM    2  C   UNL     1     -18.703 -11.965  -3.641  1.00  0.00     0.129 C 
HETATM    3  C   UNL     1     -19.228 -10.743  -3.679  1.00  0.00     0.186 C 
HETATM    4  C   UNL     1     -18.695 -10.019  -2.516  1.00  0.00     0.321 C 
HETATM    5  O   UNL     1     -19.040  -8.920  -2.139  1.00  0.00    -0.257 OA
HETATM    6  O   UNL     1     -17.801 -10.837  -1.869  1.00  0.00    -0.301 OA
ENDROOT
BRANCH   1   7
HETATM    7  C   UNL     1     -17.404 -13.240  -1.665  1.00  0.00     0.192 C 
BRANCH   7   8
HETATM    8  C   UNL     1     -15.990 -13.864  -1.779  1.00  0.00     0.214 C 
BRANCH   8   9
HETATM    9  O   UNL     1     -14.956 -13.142  -1.041  1.00  0.00    -0.319 OA
BRANCH   9  10
HETATM   10  C   UNL     1     -15.219 -12.896   0.280  1.00  0.00     0.263 C 
HETATM   11  O   UNL     1     -15.458 -11.777   0.713  1.00  0.00    -0.265 OA
BRANCH  10  12
HETATM   12  C   UNL     1     -15.043 -14.130   1.183  1.00  0.00     0.085 C 
BRANCH  12  13
HETATM   13  C   UNL     1     -13.654 -14.765   0.890  1.00  0.00     0.014 C 
BRANCH  13  14
HETATM   14  C   UNL     1     -12.420 -13.892   1.122  1.00  0.00     0.001 C 
BRANCH  14  15
HETATM   15  C   UNL     1     -11.134 -14.648   1.450  1.00  0.00     0.000 C 
BRANCH  15  16
HETATM   16  C   UNL     1      -9.970 -13.656   1.423  1.00  0.00     0.000 C 
BRANCH  16  17
HETATM   17  C   UNL     1      -9.392 -13.396   2.806  1.00  0.00     0.000 C 
BRANCH  17  18
HETATM   18  C   UNL     1      -8.410 -14.503   3.190  1.00  0.00    -0.000 C 
BRANCH  18  19
HETATM   19  C   UNL     1      -8.249 -14.576   4.705  1.00  0.00    -0.005 C 
HETATM   20  C   UNL     1      -9.067 -13.504   5.403  1.00  0.00     0.005 C 
ENDBRANCH  18  19
ENDBRANCH  17  18
ENDBRANCH  16  17
ENDBRANCH  15  16
ENDBRANCH  14  15
ENDBRANCH  13  14
ENDBRANCH  12  13
BRANCH  12  21
HETATM   21  C   UNL     1     -15.271 -13.867   2.691  1.00  0.00     0.014 C 
BRANCH  21  22
HETATM   22  C   UNL     1     -15.568 -15.125   3.520  1.00  0.00     0.001 C 
BRANCH  22  23
HETATM   23  C   UNL     1     -14.424 -15.636   4.410  1.00  0.00     0.000 C 
BRANCH  23  24
HETATM   24  C   UNL     1     -14.623 -15.331   5.897  1.00  0.00    -0.000 C 
BRANCH  24  25
HETATM   25  C   UNL     1     -13.397 -15.697   6.732  1.00  0.00    -0.005 C 
HETATM   26  C   UNL     1     -12.141 -15.709   5.872  1.00  0.00     0.005 C 
ENDBRANCH  24  25
ENDBRANCH  23  24
ENDBRANCH  22  23
ENDBRANCH  21  22
ENDBRANCH  12  21
ENDBRANCH  10  12
ENDBRANCH   9  10
ENDBRANCH   8   9
ENDBRANCH   7   8
BRANCH   7  27
HETATM   27  O   UNL     1     -18.456 -14.237  -1.820  1.00  0.00    -0.310 OA
BRANCH  27  28
HETATM   28  C   UNL     1     -18.955 -14.738  -0.643  1.00  0.00     0.263 C 
HETATM   29  O   UNL     1     -18.268 -15.230   0.242  1.00  0.00    -0.265 OA
BRANCH  28  30
HETATM   30  C   UNL     1     -20.477 -14.668  -0.588  1.00  0.00     0.085 C 
BRANCH  30  31
HETATM   31  C   UNL     1     -20.886 -13.269  -1.084  1.00  0.00     0.014 C 
BRANCH  31  32
HETATM   32  C   UNL     1     -20.806 -12.194  -0.004  1.00  0.00     0.001 C 
BRANCH  32  33
HETATM   33  C   UNL     1     -21.568 -10.937  -0.410  1.00  0.00     0.000 C 
BRANCH  33  34
HETATM   34  C   UNL     1     -23.047 -11.106  -0.076  1.00  0.00    -0.000 C 
BRANCH  34  35
HETATM   35  C   UNL     1     -23.891 -11.209  -1.339  1.00  0.00    -0.005 C 
HETATM   36  C   UNL     1     -23.039 -10.954  -2.571  1.00  0.00     0.005 C 
ENDBRANCH  34  35
ENDBRANCH  33  34
ENDBRANCH  32  33
ENDBRANCH  31  32
ENDBRANCH  30  31
BRANCH  30  37
HETATM   37  C   UNL     1     -21.120 -15.767  -1.466  1.00  0.00     0.014 C 
BRANCH  37  38
HETATM   38  C   UNL     1     -21.954 -15.230  -2.625  1.00  0.00     0.001 C 
BRANCH  38  39
HETATM   39  C   UNL     1     -23.401 -15.715  -2.516  1.00  0.00     0.000 C 
BRANCH  39  40
HETATM   40  C   UNL     1     -24.187 -14.838  -1.548  1.00  0.00     0.000 C 
BRANCH  40  41
HETATM   41  C   UNL     1     -24.904 -15.679  -0.496  1.00  0.00     0.000 C 
BRANCH  41  42
HETATM   42  C   UNL     1     -24.106 -15.707   0.806  1.00  0.00    -0.000 C 
BRANCH  42  43
HETATM   43  C   UNL     1     -23.641 -14.307   1.194  1.00  0.00    -0.005 C 
HETATM   44  C   UNL     1     -22.903 -14.324   2.523  1.00  0.00     0.005 C 
ENDBRANCH  42  43
ENDBRANCH  41  42
ENDBRANCH  40  41
ENDBRANCH  39  40
ENDBRANCH  38  39
ENDBRANCH  37  38
ENDBRANCH  30  37
ENDBRANCH  28  30
ENDBRANCH  27  28
ENDBRANCH   7  27
ENDBRANCH   1   7
BRANCH   2  45
HETATM   45  O   UNL     1     -18.884 -12.983  -4.579  1.00  0.00    -0.277 OA
BRANCH  45  46
HETATM   46  C   UNL     1     -17.767 -13.386  -5.284  1.00  0.00     0.268 C 
HETATM   47  O   UNL     1     -17.153 -14.424  -5.094  1.00  0.00    -0.264 OA
BRANCH  46  48
HETATM   48  C   UNL     1     -17.449 -12.364  -6.365  1.00  0.00     0.086 C 
BRANCH  48  49
HETATM   49  C   UNL     1     -16.135 -11.621  -6.047  1.00  0.00     0.014 C 
BRANCH  49  50
HETATM   50  C   UNL     1     -14.976 -11.911  -7.011  1.00  0.00     0.001 C 
BRANCH  50  51
HETATM   51  C   UNL     1     -13.714 -12.412  -6.312  1.00  0.00     0.000 C 
BRANCH  51  52
HETATM   52  C   UNL     1     -13.771 -13.900  -5.960  1.00  0.00    -0.000 C 
BRANCH  52  53
HETATM   53  C   UNL     1     -13.423 -14.082  -4.489  1.00  0.00    -0.005 C 
HETATM   54  C   UNL     1     -13.125 -12.765  -3.822  1.00  0.00     0.005 C 
ENDBRANCH  52  53
ENDBRANCH  51  52
ENDBRANCH  50  51
ENDBRANCH  49  50
ENDBRANCH  48  49
BRANCH  48  55
HETATM   55  C   UNL     1     -17.458 -12.907  -7.813  1.00  0.00     0.014 C 
BRANCH  55  56
HETATM   56  C   UNL     1     -18.677 -13.630  -8.439  1.00  0.00     0.001 C 
BRANCH  56  57
HETATM   57  C   UNL     1     -18.779 -15.182  -8.491  1.00  0.00     0.000 C 
BRANCH  57  58
HETATM   58  C   UNL     1     -19.644 -15.853  -7.453  1.00  0.00     0.000 C 
BRANCH  58  59
HETATM   59  C   UNL     1     -20.972 -15.554  -6.092  1.00  0.00     0.000 C 
BRANCH  59  60
HETATM   60  C   UNL     1     -22.381 -14.318  -6.322  1.00  0.00    -0.000 C 
BRANCH  60  61
HETATM   61  C   UNL     1     -22.179 -13.012  -5.702  1.00  0.00    -0.005 C 
HETATM   62  C   UNL     1     -21.637 -12.093  -6.794  1.00  0.00     0.005 C 
ENDBRANCH  60  61
ENDBRANCH  59  60
ENDBRANCH  58  59
ENDBRANCH  57  58
ENDBRANCH  56  57
ENDBRANCH  55  56
ENDBRANCH  48  55
ENDBRANCH  46  48
ENDBRANCH  45  46
ENDBRANCH   2  45
BRANCH   3  63
HETATM   63  O   UNL     1     -20.140 -10.206  -4.597  1.00  0.00    -0.270 OA
BRANCH  63  64
HETATM   64  C   UNL     1     -19.625  -9.122  -5.302  1.00  0.00     0.268 C 
HETATM   65  O   UNL     1     -18.602  -9.087  -5.846  1.00  0.00    -0.264 OA
BRANCH  64  66
HETATM   66  C   UNL     1     -20.751  -8.045  -5.413  1.00  0.00     0.086 C 
BRANCH  66  67
HETATM   67  C   UNL     1     -21.650  -7.951  -4.174  1.00  0.00     0.014 C 
BRANCH  67  68
HETATM   68  C   UNL     1     -22.115  -6.526  -3.736  1.00  0.00     0.001 C 
BRANCH  68  69
HETATM   69  C   UNL     1     -21.897  -6.210  -2.264  1.00  0.00     0.000 C 
BRANCH  69  70
HETATM   70  C   UNL     1     -21.741  -7.438  -1.368  1.00  0.00    -0.000 C 
BRANCH  70  71
HETATM   71  C   UNL     1     -22.756  -7.370  -0.243  1.00  0.00    -0.005 C 
HETATM   72  C   UNL     1     -22.170  -7.808   1.079  1.00  0.00     0.005 C 
ENDBRANCH  70  71
ENDBRANCH  69  70
ENDBRANCH  68  69
ENDBRANCH  67  68
ENDBRANCH  66  67
BRANCH  66  73
HETATM   73  C   UNL     1     -20.180  -6.680  -5.851  1.00  0.00     0.014 C 
BRANCH  73  74
HETATM   74  C   UNL     1     -20.762  -5.901  -7.083  1.00  0.00     0.001 C 
BRANCH  74  75
HETATM   75  C   UNL     1     -20.032  -4.644  -7.723  1.00  0.00     0.000 C 
BRANCH  75  76
HETATM   76  C   UNL     1     -19.932  -4.733  -9.231  1.00  0.00     0.000 C 
BRANCH  76  77
HETATM   77  C   UNL     1     -20.550  -3.879 -10.861  1.00  0.00     0.000 C 
BRANCH  77  78
HETATM   78  C   UNL     1     -22.281  -4.153 -11.583  1.00  0.00    -0.000 C 
BRANCH  78  79
HETATM   79  C   UNL     1     -23.069  -2.909 -11.832  1.00  0.00    -0.005 C 
HETATM   80  C   UNL     1     -23.283  -2.768 -13.333  1.00  0.00     0.005 C 
ENDBRANCH  78  79
ENDBRANCH  77  78
ENDBRANCH  76  77
ENDBRANCH  75  76
ENDBRANCH  74  75
ENDBRANCH  73  74
ENDBRANCH  66  73
ENDBRANCH  64  66
ENDBRANCH  63  64
ENDBRANCH   3  63
TORSDOF 62
ENDMDL
MODEL 2
REMARK VINA RESULT:      -6.6      2.273     10.743
REMARK WARNING: 32 MAX_TORS EXCEEDED!!!
REMARK  62 active torsions:
REMARK  status: ('A' for Active; 'I' for Inactive)
REMARK    1  A    between atoms: C_2  and  C_3 
REMARK    2  A    between atoms: C_3  and  C_4 
REMARK    3  A    between atoms: C_4  and  C_5 
REMARK    4  A    between atoms: C_5  and  C_6 
REMARK    5  A    between atoms: C_6  and  C_7 
REMARK    6  A    between atoms: C_7  and  C_8 
REMARK    7  A    between atoms: C_8  and  C_9 
REMARK    8  A    between atoms: C_9  and  C_10 
REMARK    9  A    between atoms: C_9  and  C_16 
REMARK   10  A    between atoms: C_10  and  C_11 
REMARK   11  A    between atoms: C_11  and  C_12 
REMARK   12  A    between atoms: C_12  and  C_13 
REMARK   13  A    between atoms: C_13  and  C_14 
REMARK   14  A    between atoms: C_16  and  O_18 
REMARK   15  A    between atoms: O_18  and  C_19 
REMARK   16  A    between atoms: C_19  and  C_20 
REMARK   17  A    between atoms: C_20  and  C_21 
REMARK   18  A    between atoms: C_20  and  O_63 
REMARK   19  A    between atoms: C_22  and  O_45 
REMARK   20  A    between atoms: C_23  and  O_27 
REMARK   21  A    between atoms: O_27  and  C_28 
REMARK   22  A    between atoms: C_28  and  C_30 
REMARK   23  A    between atoms: C_30  and  C_31 
REMARK   24  A    between atoms: C_30  and  C_37 
REMARK   25  A    between atoms: C_31  and  C_32 
REMARK   26  A    between atoms: C_32  and  C_33 
REMARK   27  A    between atoms: C_33  and  C_34 
REMARK   28  A    between atoms: C_34  and  C_35 
REMARK   29  A    between atoms: C_37  and  C_38 
REMARK   30  A    between atoms: C_38  and  C_39 
REMARK   31  A    between atoms: C_39  and  C_40 
REMARK   32  A    between atoms: C_40  and  C_41 
REMARK   33  A    between atoms: C_41  and  C_42 
REMARK   34  A    between atoms: C_42  and  C_43 
REMARK   35  A    between atoms: O_45  and  C_46 
REMARK   36  A    between atoms: C_46  and  C_48 
REMARK   37  A    between atoms: C_48  and  C_49 
REMARK   38  A    between atoms: C_48  and  C_55 
REMARK   39  A    between atoms: C_49  and  C_50 
REMARK   40  A    between atoms: C_50  and  C_51 
REMARK   41  A    between atoms: C_51  and  C_52 
REMARK   42  A    between atoms: C_52  and  C_53 
REMARK   43  A    between atoms: C_55  and  C_56 
REMARK   44  A    between atoms: C_56  and  C_57 
REMARK   45  A    between atoms: C_57  and  C_58 
REMARK   46  A    between atoms: C_58  and  C_59 
REMARK   47  A    between atoms: C_59  and  C_60 
REMARK   48  A    between atoms: C_60  and  C_61 
REMARK   49  A    between atoms: O_63  and  C_64 
REMARK   50  A    between atoms: C_64  and  C_66 
REMARK   51  A    between atoms: C_66  and  C_67 
REMARK   52  A    between atoms: C_66  and  C_73 
REMARK   53  A    between atoms: C_67  and  C_68 
REMARK   54  A    between atoms: C_68  and  C_69 
REMARK   55  A    between atoms: C_69  and  C_70 
REMARK   56  A    between atoms: C_70  and  C_71 
REMARK   57  A    between atoms: C_73  and  C_74 
REMARK   58  A    between atoms: C_74  and  C_75 
REMARK   59  A    between atoms: C_75  and  C_76 
REMARK   60  A    between atoms: C_76  and  C_77 
REMARK   61  A    between atoms: C_77  and  C_78 
REMARK   62  A    between atoms: C_78  and  C_79 
ROOT
HETATM    1  C   UNL     1     -18.876 -11.444  -5.668  1.00  0.00     0.224 C 
HETATM    2  C   UNL     1     -19.493 -12.558  -4.888  1.00  0.00     0.129 C 
HETATM    3  C   UNL     1     -20.622 -12.968  -5.460  1.00  0.00     0.186 C 
HETATM    4  C   UNL     1     -20.957 -11.976  -6.492  1.00  0.00     0.321 C 
HETATM    5  O   UNL     1     -21.981 -11.935  -7.138  1.00  0.00    -0.257 OA
HETATM    6  O   UNL     1     -19.949 -11.043  -6.538  1.00  0.00    -0.301 OA
ENDROOT
BRANCH   1   7
HETATM    7  C   UNL     1     -18.238 -10.187  -5.018  1.00  0.00     0.192 C 
BRANCH   7   8
HETATM    8  C   UNL     1     -19.090  -8.910  -5.232  1.00  0.00     0.214 C 
BRANCH   8   9
HETATM    9  O   UNL     1     -19.775  -8.440  -4.030  1.00  0.00    -0.319 OA
BRANCH   9  10
HETATM   10  C   UNL     1     -21.141  -8.519  -4.045  1.00  0.00     0.263 C 
HETATM   11  O   UNL     1     -21.745  -9.573  -4.192  1.00  0.00    -0.265 OA
BRANCH  10  12
HETATM   12  C   UNL     1     -21.838  -7.146  -4.007  1.00  0.00     0.085 C 
BRANCH  12  13
HETATM   13  C   UNL     1     -21.379  -6.392  -2.727  1.00  0.00     0.014 C 
BRANCH  13  14
HETATM   14  C   UNL     1     -22.228  -6.568  -1.467  1.00  0.00     0.001 C 
BRANCH  14  15
HETATM   15  C   UNL     1     -22.182  -7.958  -0.836  1.00  0.00     0.000 C 
BRANCH  15  16
HETATM   16  C   UNL     1     -21.868  -7.802   0.654  1.00  0.00     0.000 C 
BRANCH  16  17
HETATM   17  C   UNL     1     -21.163  -9.019   1.233  1.00  0.00     0.000 C 
BRANCH  17  18
HETATM   18  C   UNL     1     -21.315 -10.218   0.297  1.00  0.00    -0.000 C 
BRANCH  18  19
HETATM   19  C   UNL     1     -20.122 -11.159   0.433  1.00  0.00    -0.005 C 
HETATM   20  C   UNL     1     -20.037 -12.123  -0.737  1.00  0.00     0.005 C 
ENDBRANCH  18  19
ENDBRANCH  17  18
ENDBRANCH  16  17
ENDBRANCH  15  16
ENDBRANCH  14  15
ENDBRANCH  13  14
ENDBRANCH  12  13
BRANCH  12  21
HETATM   21  C   UNL     1     -21.668  -6.298  -5.291  1.00  0.00     0.014 C 
BRANCH  21  22
HETATM   22  C   UNL     1     -20.552  -5.247  -5.219  1.00  0.00     0.001 C 
BRANCH  22  23
HETATM   23  C   UNL     1     -20.166  -4.575  -6.546  1.00  0.00     0.000 C 
BRANCH  23  24
HETATM   24  C   UNL     1     -21.298  -3.756  -7.169  1.00  0.00    -0.000 C 
BRANCH  24  25
HETATM   25  C   UNL     1     -21.538  -4.120  -8.634  1.00  0.00    -0.005 C 
HETATM   26  C   UNL     1     -20.244  -4.565  -9.300  1.00  0.00     0.005 C 
ENDBRANCH  24  25
ENDBRANCH  23  24
ENDBRANCH  22  23
ENDBRANCH  21  22
ENDBRANCH  12  21
ENDBRANCH  10  12
ENDBRANCH   9  10
ENDBRANCH   8   9
ENDBRANCH   7   8
BRANCH   7  27
HETATM   27  O   UNL     1     -16.858 -10.001  -5.449  1.00  0.00    -0.310 OA
BRANCH  27  28
HETATM   28  C   UNL     1     -16.152 -11.164  -5.644  1.00  0.00     0.263 C 
HETATM   29  O   UNL     1     -15.930 -11.658  -6.741  1.00  0.00    -0.265 OA
BRANCH  28  30
HETATM   30  C   UNL     1     -15.726 -11.806  -4.328  1.00  0.00     0.085 C 
BRANCH  30  31
HETATM   31  C   UNL     1     -14.706 -12.907  -4.669  1.00  0.00     0.014 C 
BRANCH  31  32
HETATM   32  C   UNL     1     -13.349 -12.706  -3.999  1.00  0.00     0.001 C 
BRANCH  32  33
HETATM   33  C   UNL     1     -13.203 -13.583  -2.760  1.00  0.00     0.000 C 
BRANCH  33  34
HETATM   34  C   UNL     1     -12.424 -14.844  -3.115  1.00  0.00    -0.000 C 
BRANCH  34  35
HETATM   35  C   UNL     1     -13.046 -15.563  -4.304  1.00  0.00    -0.005 C 
HETATM   36  C   UNL     1     -12.302 -16.854  -4.595  1.00  0.00     0.005 C 
ENDBRANCH  34  35
ENDBRANCH  33  34
ENDBRANCH  32  33
ENDBRANCH  31  32
ENDBRANCH  30  31
BRANCH  30  37
HETATM   37  C   UNL     1     -15.101 -10.762  -3.374  1.00  0.00     0.014 C 
BRANCH  37  38
HETATM   38  C   UNL     1     -15.934 -10.478  -2.128  1.00  0.00     0.001 C 
BRANCH  38  39
HETATM   39  C   UNL     1     -16.417 -11.785  -1.495  1.00  0.00     0.000 C 
BRANCH  39  40
HETATM   40  C   UNL     1     -15.596 -12.113  -0.252  1.00  0.00     0.000 C 
BRANCH  40  41
HETATM   41  C   UNL     1     -16.479 -12.200   0.988  1.00  0.00     0.000 C 
BRANCH  41  42
HETATM   42  C   UNL     1     -16.503 -13.626   1.534  1.00  0.00    -0.000 C 
BRANCH  42  43
HETATM   43  C   UNL     1     -15.666 -13.740   2.805  1.00  0.00    -0.005 C 
HETATM   44  C   UNL     1     -15.658 -15.167   3.328  1.00  0.00     0.005 C 
ENDBRANCH  42  43
ENDBRANCH  41  42
ENDBRANCH  40  41
ENDBRANCH  39  40
ENDBRANCH  38  39
ENDBRANCH  37  38
ENDBRANCH  30  37
ENDBRANCH  28  30
ENDBRANCH  27  28
ENDBRANCH   7  27
ENDBRANCH   1   7
BRANCH   2  45
HETATM   45  O   UNL     1     -18.771 -13.219  -3.891  1.00  0.00    -0.277 OA
BRANCH  45  46
HETATM   46  C   UNL     1     -18.111 -14.373  -4.263  1.00  0.00     0.268 C 
HETATM   47  O   UNL     1     -17.713 -14.623  -5.389  1.00  0.00    -0.264 OA
BRANCH  46  48
HETATM   48  C   UNL     1     -17.910 -15.261  -3.044  1.00  0.00     0.086 C 
BRANCH  48  49
HETATM   49  C   UNL     1     -18.735 -16.558  -3.169  1.00  0.00     0.014 C 
BRANCH  49  50
HETATM   50  C   UNL     1     -19.528 -16.947  -1.913  1.00  0.00     0.001 C 
BRANCH  50  51
HETATM   51  C   UNL     1     -20.400 -15.818  -1.369  1.00  0.00     0.000 C 
BRANCH  51  52
HETATM   52  C   UNL     1     -20.673 -15.938   0.132  1.00  0.00    -0.000 C 
BRANCH  52  53
HETATM   53  C   UNL     1     -19.473 -15.410   0.906  1.00  0.00    -0.005 C 
HETATM   54  C   UNL     1     -19.356 -16.061   2.259  1.00  0.00     0.005 C 
ENDBRANCH  52  53
ENDBRANCH  51  52
ENDBRANCH  50  51
ENDBRANCH  49  50
ENDBRANCH  48  49
BRANCH  48  55
HETATM   55  C   UNL     1     -16.437 -15.559  -2.677  1.00  0.00     0.014 C 
BRANCH  55  56
HETATM   56  C   UNL     1     -15.948 -15.733  -1.216  1.00  0.00     0.001 C 
BRANCH  56  57
HETATM   57  C   UNL     1     -14.637 -16.497  -0.870  1.00  0.00     0.000 C 
BRANCH  57  58
HETATM   58  C   UNL     1     -13.747 -15.898   0.190  1.00  0.00     0.000 C 
BRANCH  58  59
HETATM   59  C   UNL     1     -12.874 -14.284   0.771  1.00  0.00     0.000 C 
BRANCH  59  60
HETATM   60  C   UNL     1     -11.041 -13.965   0.452  1.00  0.00    -0.000 C 
BRANCH  60  61
HETATM   61  C   UNL     1     -10.173 -14.060   1.622  1.00  0.00    -0.005 C 
HETATM   62  C   UNL     1      -8.756 -14.271   1.094  1.00  0.00     0.005 C 
ENDBRANCH  60  61
ENDBRANCH  59  60
ENDBRANCH  58  59
ENDBRANCH  57  58
ENDBRANCH  56  57
ENDBRANCH  55  56
ENDBRANCH  48  55
ENDBRANCH  46  48
ENDBRANCH  45  46
ENDBRANCH   2  45
BRANCH   3  63
HETATM   63  O   UNL     1     -21.404 -14.091  -5.157  1.00  0.00    -0.270 OA
BRANCH  63  64
HETATM   64  C   UNL     1     -22.424 -13.814  -4.252  1.00  0.00     0.268 C 
HETATM   65  O   UNL     1     -22.521 -12.856  -3.608  1.00  0.00    -0.264 OA
BRANCH  64  66
HETATM   66  C   UNL     1     -23.518 -14.917  -4.414  1.00  0.00     0.086 C 
BRANCH  66  67
HETATM   67  C   UNL     1     -24.022 -15.092  -5.851  1.00  0.00     0.014 C 
BRANCH  67  68
HETATM   68  C   UNL     1     -25.136 -16.159  -6.092  1.00  0.00     0.001 C 
BRANCH  68  69
HETATM   69  C   UNL     1     -26.531 -15.733  -5.661  1.00  0.00     0.000 C 
BRANCH  69  70
HETATM   70  C   UNL     1     -27.497 -16.890  -5.406  1.00  0.00    -0.000 C 
BRANCH  70  71
HETATM   71  C   UNL     1     -28.909 -16.447  -5.741  1.00  0.00    -0.005 C 
HETATM   72  C   UNL     1     -28.932 -15.122  -6.466  1.00  0.00     0.005 C 
ENDBRANCH  70  71
ENDBRANCH  69  70
ENDBRANCH  68  69
ENDBRANCH  67  68
ENDBRANCH  66  67
BRANCH  66  73
HETATM   73  C   UNL     1     -23.077 -16.243  -3.761  1.00  0.00     0.014 C 
BRANCH  73  74
HETATM   74  C   UNL     1     -23.936 -16.939  -2.646  1.00  0.00     0.001 C 
BRANCH  74  75
HETATM   75  C   UNL     1     -25.198 -16.241  -1.978  1.00  0.00     0.000 C 
BRANCH  75  76
HETATM   76  C   UNL     1     -24.819 -15.318  -0.840  1.00  0.00     0.000 C 
BRANCH  76  77
HETATM   77  C   UNL     1     -23.824 -13.698  -0.447  1.00  0.00     0.000 C 
BRANCH  77  78
HETATM   78  C   UNL     1     -23.019 -13.358   1.234  1.00  0.00    -0.000 C 
BRANCH  78  79
HETATM   79  C   UNL     1     -23.752 -13.911   2.412  1.00  0.00    -0.005 C 
HETATM   80  C   UNL     1     -23.007 -15.145   2.905  1.00  0.00     0.005 C 
ENDBRANCH  78  79
ENDBRANCH  77  78
ENDBRANCH  76  77
ENDBRANCH  75  76
ENDBRANCH  74  75
ENDBRANCH  73  74
ENDBRANCH  66  73
ENDBRANCH  64  66
ENDBRANCH  63  64
ENDBRANCH   3  63
TORSDOF 62
ENDMDL
MODEL 3
REMARK VINA RESULT:      -6.5      2.212      7.804
REMARK WARNING: 32 MAX_TORS EXCEEDED!!!
REMARK  62 active torsions:
REMARK  status: ('A' for Active; 'I' for Inactive)
REMARK    1  A    between atoms: C_2  and  C_3 
REMARK    2  A    between atoms: C_3  and  C_4 
REMARK    3  A    between atoms: C_4  and  C_5 
REMARK    4  A    between atoms: C_5  and  C_6 
REMARK    5  A    between atoms: C_6  and  C_7 
REMARK    6  A    between atoms: C_7  and  C_8 
REMARK    7  A    between atoms: C_8  and  C_9 
REMARK    8  A    between atoms: C_9  and  C_10 
REMARK    9  A    between atoms: C_9  and  C_16 
REMARK   10  A    between atoms: C_10  and  C_11 
REMARK   11  A    between atoms: C_11  and  C_12 
REMARK   12  A    between atoms: C_12  and  C_13 
REMARK   13  A    between atoms: C_13  and  C_14 
REMARK   14  A    between atoms: C_16  and  O_18 
REMARK   15  A    between atoms: O_18  and  C_19 
REMARK   16  A    between atoms: C_19  and  C_20 
REMARK   17  A    between atoms: C_20  and  C_21 
REMARK   18  A    between atoms: C_20  and  O_63 
REMARK   19  A    between atoms: C_22  and  O_45 
REMARK   20  A    between atoms: C_23  and  O_27 
REMARK   21  A    between atoms: O_27  and  C_28 
REMARK   22  A    between atoms: C_28  and  C_30 
REMARK   23  A    between atoms: C_30  and  C_31 
REMARK   24  A    between atoms: C_30  and  C_37 
REMARK   25  A    between atoms: C_31  and  C_32 
REMARK   26  A    between atoms: C_32  and  C_33 
REMARK   27  A    between atoms: C_33  and  C_34 
REMARK   28  A    between atoms: C_34  and  C_35 
REMARK   29  A    between atoms: C_37  and  C_38 
REMARK   30  A    between atoms: C_38  and  C_39 
REMARK   31  A    between atoms: C_39  and  C_40 
REMARK   32  A    between atoms: C_40  and  C_41 
REMARK   33  A    between atoms: C_41  and  C_42 
REMARK   34  A    between atoms: C_42  and  C_43 
REMARK   35  A    between atoms: O_45  and  C_46 
REMARK   36  A    between atoms: C_46  and  C_48 
REMARK   37  A    between atoms: C_48  and  C_49 
REMARK   38  A    between atoms: C_48  and  C_55 
REMARK   39  A    between atoms: C_49  and  C_50 
REMARK   40  A    between atoms: C_50  and  C_51 
REMARK   41  A    between atoms: C_51  and  C_52 
REMARK   42  A    between atoms: C_52  and  C_53 
REMARK   43  A    between atoms: C_55  and  C_56 
REMARK   44  A    between atoms: C_56  and  C_57 
REMARK   45  A    between atoms: C_57  and  C_58 
REMARK   46  A    between atoms: C_58  and  C_59 
REMARK   47  A    between atoms: C_59  and  C_60 
REMARK   48  A    between atoms: C_60  and  C_61 
REMARK   49  A    between atoms: O_63  and  C_64 
REMARK   50  A    between atoms: C_64  and  C_66 
REMARK   51  A    between atoms: C_66  and  C_67 
REMARK   52  A    between atoms: C_66  and  C_73 
REMARK   53  A    between atoms: C_67  and  C_68 
REMARK   54  A    between atoms: C_68  and  C_69 
REMARK   55  A    between atoms: C_69  and  C_70 
REMARK   56  A    between atoms: C_70  and  C_71 
REMARK   57  A    between atoms: C_73  and  C_74 
REMARK   58  A    between atoms: C_74  and  C_75 
REMARK   59  A    between atoms: C_75  and  C_76 
REMARK   60  A    between atoms: C_76  and  C_77 
REMARK   61  A    between atoms: C_77  and  C_78 
REMARK   62  A    between atoms: C_78  and  C_79 
ROOT
HETATM    1  C   UNL     1     -20.628  -8.988  -2.425  1.00  0.00     0.224 C 
HETATM    2  C   UNL     1     -20.807  -9.067  -3.905  1.00  0.00     0.129 C 
HETATM    3  C   UNL     1     -21.284  -7.922  -4.387  1.00  0.00     0.186 C 
HETATM    4  C   UNL     1     -21.700  -7.118  -3.228  1.00  0.00     0.321 C 
HETATM    5  O   UNL     1     -22.301  -6.066  -3.267  1.00  0.00    -0.257 OA
HETATM    6  O   UNL     1     -21.375  -7.807  -2.085  1.00  0.00    -0.301 OA
ENDROOT
BRANCH   1   7
HETATM    7  C   UNL     1     -21.000 -10.136  -1.449  1.00  0.00     0.192 C 
BRANCH   7   8
HETATM    8  C   UNL     1     -21.809  -9.637  -0.225  1.00  0.00     0.214 C 
BRANCH   8   9
HETATM    9  O   UNL     1     -22.494 -10.698   0.512  1.00  0.00    -0.319 OA
BRANCH   9  10
HETATM   10  C   UNL     1     -23.287 -11.531  -0.229  1.00  0.00     0.263 C 
HETATM   11  O   UNL     1     -24.212 -11.128  -0.920  1.00  0.00    -0.265 OA
BRANCH  10  12
HETATM   12  C   UNL     1     -22.997 -13.025   0.004  1.00  0.00     0.085 C 
BRANCH  12  13
HETATM   13  C   UNL     1     -23.112 -13.321   1.527  1.00  0.00     0.014 C 
BRANCH  13  14
HETATM   14  C   UNL     1     -23.736 -14.656   1.937  1.00  0.00     0.001 C 
BRANCH  14  15
HETATM   15  C   UNL     1     -23.755 -14.936   3.438  1.00  0.00     0.000 C 
BRANCH  15  16
HETATM   16  C   UNL     1     -22.347 -15.351   3.870  1.00  0.00     0.000 C 
BRANCH  16  17
HETATM   17  C   UNL     1     -21.728 -16.379   2.934  1.00  0.00     0.000 C 
BRANCH  17  18
HETATM   18  C   UNL     1     -20.265 -16.033   2.656  1.00  0.00    -0.000 C 
BRANCH  18  19
HETATM   19  C   UNL     1     -20.110 -15.436   1.261  1.00  0.00    -0.005 C 
HETATM   20  C   UNL     1     -20.413 -16.460   0.181  1.00  0.00     0.005 C 
ENDBRANCH  18  19
ENDBRANCH  17  18
ENDBRANCH  16  17
ENDBRANCH  15  16
ENDBRANCH  14  15
ENDBRANCH  13  14
ENDBRANCH  12  13
BRANCH  12  21
HETATM   21  C   UNL     1     -23.847 -13.992  -0.856  1.00  0.00     0.014 C 
BRANCH  21  22
HETATM   22  C   UNL     1     -23.032 -14.892  -1.796  1.00  0.00     0.001 C 
BRANCH  22  23
HETATM   23  C   UNL     1     -23.365 -14.789  -3.293  1.00  0.00     0.000 C 
BRANCH  23  24
HETATM   24  C   UNL     1     -22.286 -15.380  -4.202  1.00  0.00    -0.000 C 
BRANCH  24  25
HETATM   25  C   UNL     1     -22.582 -15.142  -5.683  1.00  0.00    -0.005 C 
HETATM   26  C   UNL     1     -23.176 -13.757  -5.899  1.00  0.00     0.005 C 
ENDBRANCH  24  25
ENDBRANCH  23  24
ENDBRANCH  22  23
ENDBRANCH  21  22
ENDBRANCH  12  21
ENDBRANCH  10  12
ENDBRANCH   9  10
ENDBRANCH   8   9
ENDBRANCH   7   8
BRANCH   7  27
HETATM   27  O   UNL     1     -19.828 -10.905  -1.053  1.00  0.00    -0.310 OA
BRANCH  27  28
HETATM   28  C   UNL     1     -19.765 -12.175  -1.574  1.00  0.00     0.263 C 
HETATM   29  O   UNL     1     -20.582 -12.637  -2.359  1.00  0.00    -0.265 OA
BRANCH  28  30
HETATM   30  C   UNL     1     -18.590 -12.969  -1.015  1.00  0.00     0.085 C 
BRANCH  30  31
HETATM   31  C   UNL     1     -18.390 -14.191  -1.930  1.00  0.00     0.014 C 
BRANCH  31  32
HETATM   32  C   UNL     1     -16.923 -14.508  -2.208  1.00  0.00     0.001 C 
BRANCH  32  33
HETATM   33  C   UNL     1     -16.685 -16.011  -2.303  1.00  0.00     0.000 C 
BRANCH  33  34
HETATM   34  C   UNL     1     -15.803 -16.313  -3.510  1.00  0.00    -0.000 C 
BRANCH  34  35
HETATM   35  C   UNL     1     -16.204 -15.471  -4.714  1.00  0.00    -0.005 C 
HETATM   36  C   UNL     1     -15.241 -15.696  -5.865  1.00  0.00     0.005 C 
ENDBRANCH  34  35
ENDBRANCH  33  34
ENDBRANCH  32  33
ENDBRANCH  31  32
ENDBRANCH  30  31
BRANCH  30  37
HETATM   37  C   UNL     1     -17.306 -12.109  -0.968  1.00  0.00     0.014 C 
BRANCH  37  38
HETATM   38  C   UNL     1     -16.860 -11.731   0.442  1.00  0.00     0.001 C 
BRANCH  38  39
HETATM   39  C   UNL     1     -15.544 -12.427   0.795  1.00  0.00     0.000 C 
BRANCH  39  40
HETATM   40  C   UNL     1     -15.699 -13.247   2.071  1.00  0.00     0.000 C 
BRANCH  40  41
HETATM   41  C   UNL     1     -16.601 -14.456   1.847  1.00  0.00     0.000 C 
BRANCH  41  42
HETATM   42  C   UNL     1     -15.989 -15.708   2.471  1.00  0.00    -0.000 C 
BRANCH  42  43
HETATM   43  C   UNL     1     -14.775 -15.357   3.326  1.00  0.00    -0.005 C 
HETATM   44  C   UNL     1     -15.005 -15.728   4.782  1.00  0.00     0.005 C 
ENDBRANCH  42  43
ENDBRANCH  41  42
ENDBRANCH  40  41
ENDBRANCH  39  40
ENDBRANCH  38  39
ENDBRANCH  37  38
ENDBRANCH  30  37
ENDBRANCH  28  30
ENDBRANCH  27  28
ENDBRANCH   7  27
ENDBRANCH   1   7
BRANCH   2  45
HETATM   45  O   UNL     1     -20.246 -10.114  -4.640  1.00  0.00    -0.277 OA
BRANCH  45  46
HETATM   46  C   UNL     1     -18.877 -10.270  -4.554  1.00  0.00     0.268 C 
HETATM   47  O   UNL     1     -18.101  -9.436  -4.116  1.00  0.00    -0.264 OA
BRANCH  46  48
HETATM   48  C   UNL     1     -18.489 -11.657  -5.042  1.00  0.00     0.086 C 
BRANCH  48  49
HETATM   49  C   UNL     1     -19.713 -12.397  -5.620  1.00  0.00     0.014 C 
BRANCH  49  50
HETATM   50  C   UNL     1     -19.966 -12.163  -7.117  1.00  0.00     0.001 C 
BRANCH  50  51
HETATM   51  C   UNL     1     -20.020 -13.451  -7.934  1.00  0.00     0.000 C 
BRANCH  51  52
HETATM   52  C   UNL     1     -18.885 -13.566  -8.954  1.00  0.00    -0.000 C 
BRANCH  52  53
HETATM   53  C   UNL     1     -18.191 -14.911  -8.785  1.00  0.00    -0.005 C 
HETATM   54  C   UNL     1     -18.718 -15.661  -7.590  1.00  0.00     0.005 C 
ENDBRANCH  52  53
ENDBRANCH  51  52
ENDBRANCH  50  51
ENDBRANCH  49  50
ENDBRANCH  48  49
BRANCH  48  55
HETATM   55  C   UNL     1     -17.286 -11.707  -6.013  1.00  0.00     0.014 C 
BRANCH  55  56
HETATM   56  C   UNL     1     -15.832 -11.974  -5.546  1.00  0.00     0.001 C 
BRANCH  56  57
HETATM   57  C   UNL     1     -15.295 -11.454  -4.181  1.00  0.00     0.000 C 
BRANCH  57  58
HETATM   58  C   UNL     1     -14.464 -12.407  -3.358  1.00  0.00     0.000 C 
BRANCH  58  59
HETATM   59  C   UNL     1     -12.944 -13.588  -3.393  1.00  0.00     0.000 C 
BRANCH  59  60
HETATM   60  C   UNL     1     -12.645 -14.877  -2.046  1.00  0.00    -0.000 C 
BRANCH  60  61
HETATM   61  C   UNL     1     -13.470 -14.740  -0.850  1.00  0.00    -0.005 C 
HETATM   62  C   UNL     1     -12.508 -14.672   0.335  1.00  0.00     0.005 C 
ENDBRANCH  60  61
ENDBRANCH  59  60
ENDBRANCH  58  59
ENDBRANCH  57  58
ENDBRANCH  56  57
ENDBRANCH  55  56
ENDBRANCH  48  55
ENDBRANCH  46  48
ENDBRANCH  45  46
ENDBRANCH   2  45
BRANCH   3  63
HETATM   63  O   UNL     1     -21.423  -7.518  -5.722  1.00  0.00    -0.270 OA
BRANCH  63  64
HETATM   64  C   UNL     1     -20.283  -6.895  -6.221  1.00  0.00     0.268 C 
HETATM   65  O   UNL     1     -19.206  -7.322  -6.193  1.00  0.00    -0.264 OA
BRANCH  64  66
HETATM   66  C   UNL     1     -20.739  -5.628  -7.012  1.00  0.00     0.086 C 
BRANCH  66  67
HETATM   67  C   UNL     1     -21.846  -4.823  -6.320  1.00  0.00     0.014 C 
BRANCH  67  68
HETATM   68  C   UNL     1     -23.179  -4.620  -7.106  1.00  0.00     0.001 C 
BRANCH  68  69
HETATM   69  C   UNL     1     -23.012  -4.064  -8.511  1.00  0.00     0.000 C 
BRANCH  69  70
HETATM   70  C   UNL     1     -24.260  -3.389  -9.079  1.00  0.00    -0.000 C 
BRANCH  70  71
HETATM   71  C   UNL     1     -24.589  -3.999 -10.429  1.00  0.00    -0.005 C 
HETATM   72  C   UNL     1     -23.805  -5.263 -10.688  1.00  0.00     0.005 C 
ENDBRANCH  70  71
ENDBRANCH  69  70
ENDBRANCH  68  69
ENDBRANCH  67  68
ENDBRANCH  66  67
BRANCH  66  73
HETATM   73  C   UNL     1     -19.531  -4.762  -7.426  1.00  0.00     0.014 C 
BRANCH  73  74
HETATM   74  C   UNL     1     -19.478  -4.035  -8.817  1.00  0.00     0.001 C 
BRANCH  74  75
HETATM   75  C   UNL     1     -20.009  -4.706 -10.155  1.00  0.00     0.000 C 
BRANCH  75  76
HETATM   76  C   UNL     1     -20.367  -3.687 -11.216  1.00  0.00     0.000 C 
BRANCH  76  77
HETATM   77  C   UNL     1     -21.843  -2.607 -11.867  1.00  0.00     0.000 C 
BRANCH  77  78
HETATM   78  C   UNL     1     -22.764  -2.976 -13.481  1.00  0.00    -0.000 C 
BRANCH  78  79
HETATM   79  C   UNL     1     -24.003  -2.171 -13.703  1.00  0.00    -0.005 C 
HETATM   80  C   UNL     1     -23.765  -1.241 -14.886  1.00  0.00     0.005 C 
ENDBRANCH  78  79
ENDBRANCH  77  78
ENDBRANCH  76  77
ENDBRANCH  75  76
ENDBRANCH  74  75
ENDBRANCH  73  74
ENDBRANCH  66  73
ENDBRANCH  64  66
ENDBRANCH  63  64
ENDBRANCH   3  63
TORSDOF 62
ENDMDL
MODEL 4
REMARK VINA RESULT:      -6.5      1.892      4.746
REMARK WARNING: 32 MAX_TORS EXCEEDED!!!
REMARK  62 active torsions:
REMARK  status: ('A' for Active; 'I' for Inactive)
REMARK    1  A    between atoms: C_2  and  C_3 
REMARK    2  A    between atoms: C_3  and  C_4 
REMARK    3  A    between atoms: C_4  and  C_5 
REMARK    4  A    between atoms: C_5  and  C_6 
REMARK    5  A    between atoms: C_6  and  C_7 
REMARK    6  A    between atoms: C_7  and  C_8 
REMARK    7  A    between atoms: C_8  and  C_9 
REMARK    8  A    between atoms: C_9  and  C_10 
REMARK    9  A    between atoms: C_9  and  C_16 
REMARK   10  A    between atoms: C_10  and  C_11 
REMARK   11  A    between atoms: C_11  and  C_12 
REMARK   12  A    between atoms: C_12  and  C_13 
REMARK   13  A    between atoms: C_13  and  C_14 
REMARK   14  A    between atoms: C_16  and  O_18 
REMARK   15  A    between atoms: O_18  and  C_19 
REMARK   16  A    between atoms: C_19  and  C_20 
REMARK   17  A    between atoms: C_20  and  C_21 
REMARK   18  A    between atoms: C_20  and  O_63 
REMARK   19  A    between atoms: C_22  and  O_45 
REMARK   20  A    between atoms: C_23  and  O_27 
REMARK   21  A    between atoms: O_27  and  C_28 
REMARK   22  A    between atoms: C_28  and  C_30 
REMARK   23  A    between atoms: C_30  and  C_31 
REMARK   24  A    between atoms: C_30  and  C_37 
REMARK   25  A    between atoms: C_31  and  C_32 
REMARK   26  A    between atoms: C_32  and  C_33 
REMARK   27  A    between atoms: C_33  and  C_34 
REMARK   28  A    between atoms: C_34  and  C_35 
REMARK   29  A    between atoms: C_37  and  C_38 
REMARK   30  A    between atoms: C_38  and  C_39 
REMARK   31  A    between atoms: C_39  and  C_40 
REMARK   32  A    between atoms: C_40  and  C_41 
REMARK   33  A    between atoms: C_41  and  C_42 
REMARK   34  A    between atoms: C_42  and  C_43 
REMARK   35  A    between atoms: O_45  and  C_46 
REMARK   36  A    between atoms: C_46  and  C_48 
REMARK   37  A    between atoms: C_48  and  C_49 
REMARK   38  A    between atoms: C_48  and  C_55 
REMARK   39  A    between atoms: C_49  and  C_50 
REMARK   40  A    between atoms: C_50  and  C_51 
REMARK   41  A    between atoms: C_51  and  C_52 
REMARK   42  A    between atoms: C_52  and  C_53 
REMARK   43  A    between atoms: C_55  and  C_56 
REMARK   44  A    between atoms: C_56  and  C_57 
REMARK   45  A    between atoms: C_57  and  C_58 
REMARK   46  A    between atoms: C_58  and  C_59 
REMARK   47  A    between atoms: C_59  and  C_60 
REMARK   48  A    between atoms: C_60  and  C_61 
REMARK   49  A    between atoms: O_63  and  C_64 
REMARK   50  A    between atoms: C_64  and  C_66 
REMARK   51  A    between atoms: C_66  and  C_67 
REMARK   52  A    between atoms: C_66  and  C_73 
REMARK   53  A    between atoms: C_67  and  C_68 
REMARK   54  A    between atoms: C_68  and  C_69 
REMARK   55  A    between atoms: C_69  and  C_70 
REMARK   56  A    between atoms: C_70  and  C_71 
REMARK   57  A    between atoms: C_73  and  C_74 
REMARK   58  A    between atoms: C_74  and  C_75 
REMARK   59  A    between atoms: C_75  and  C_76 
REMARK   60  A    between atoms: C_76  and  C_77 
REMARK   61  A    between atoms: C_77  and  C_78 
REMARK   62  A    between atoms: C_78  and  C_79 
ROOT
HETATM    1  C   UNL     1     -19.163 -11.654  -3.203  1.00  0.00     0.224 C 
HETATM    2  C   UNL     1     -19.325 -11.028  -4.549  1.00  0.00     0.129 C 
HETATM    3  C   UNL     1     -20.434 -10.296  -4.602  1.00  0.00     0.186 C 
HETATM    4  C   UNL     1     -21.206 -10.613  -3.390  1.00  0.00     0.321 C 
HETATM    5  O   UNL     1     -22.333 -10.242  -3.144  1.00  0.00    -0.257 OA
HETATM    6  O   UNL     1     -20.467 -11.479  -2.622  1.00  0.00    -0.301 OA
ENDROOT
BRANCH   1   7
HETATM    7  C   UNL     1     -18.689 -13.116  -2.984  1.00  0.00     0.192 C 
BRANCH   7   8
HETATM    8  C   UNL     1     -17.144 -13.245  -2.980  1.00  0.00     0.214 C 
BRANCH   8   9
HETATM    9  O   UNL     1     -16.558 -13.368  -1.647  1.00  0.00    -0.319 OA
BRANCH   9  10
HETATM   10  C   UNL     1     -16.917 -14.479  -0.931  1.00  0.00     0.263 C 
HETATM   11  O   UNL     1     -16.882 -15.609  -1.396  1.00  0.00    -0.265 OA
BRANCH  10  12
HETATM   12  C   UNL     1     -17.505 -14.154   0.455  1.00  0.00     0.085 C 
BRANCH  12  13
HETATM   13  C   UNL     1     -16.969 -12.767   0.909  1.00  0.00     0.014 C 
BRANCH  13  14
HETATM   14  C   UNL     1     -15.696 -12.750   1.756  1.00  0.00     0.001 C 
BRANCH  14  15
HETATM   15  C   UNL     1     -15.347 -14.069   2.441  1.00  0.00     0.000 C 
BRANCH  15  16
HETATM   16  C   UNL     1     -14.189 -14.718   1.680  1.00  0.00     0.000 C 
BRANCH  16  17
HETATM   17  C   UNL     1     -13.284 -13.695   1.011  1.00  0.00     0.000 C 
BRANCH  17  18
HETATM   18  C   UNL     1     -12.087 -14.387   0.359  1.00  0.00    -0.000 C 
BRANCH  18  19
HETATM   19  C   UNL     1     -10.858 -14.296   1.258  1.00  0.00    -0.005 C 
HETATM   20  C   UNL     1     -10.280 -12.893   1.269  1.00  0.00     0.005 C 
ENDBRANCH  18  19
ENDBRANCH  17  18
ENDBRANCH  16  17
ENDBRANCH  15  16
ENDBRANCH  14  15
ENDBRANCH  13  14
ENDBRANCH  12  13
BRANCH  12  21
HETATM   21  C   UNL     1     -19.047 -14.256   0.544  1.00  0.00     0.014 C 
BRANCH  21  22
HETATM   22  C   UNL     1     -19.560 -15.444   1.370  1.00  0.00     0.001 C 
BRANCH  22  23
HETATM   23  C   UNL     1     -21.086 -15.618   1.433  1.00  0.00     0.000 C 
BRANCH  23  24
HETATM   24  C   UNL     1     -21.596 -16.054   2.808  1.00  0.00    -0.000 C 
BRANCH  24  25
HETATM   25  C   UNL     1     -23.115 -15.933   2.928  1.00  0.00    -0.005 C 
HETATM   26  C   UNL     1     -23.547 -14.474   2.875  1.00  0.00     0.005 C 
ENDBRANCH  24  25
ENDBRANCH  23  24
ENDBRANCH  22  23
ENDBRANCH  21  22
ENDBRANCH  12  21
ENDBRANCH  10  12
ENDBRANCH   9  10
ENDBRANCH   8   9
ENDBRANCH   7   8
BRANCH   7  27
HETATM   27  O   UNL     1     -19.311 -14.030  -3.933  1.00  0.00    -0.310 OA
BRANCH  27  28
HETATM   28  C   UNL     1     -20.315 -14.810  -3.412  1.00  0.00     0.263 C 
HETATM   29  O   UNL     1     -20.188 -15.528  -2.429  1.00  0.00    -0.265 OA
BRANCH  28  30
HETATM   30  C   UNL     1     -21.595 -14.726  -4.236  1.00  0.00     0.085 C 
BRANCH  30  31
HETATM   31  C   UNL     1     -22.646 -14.007  -3.371  1.00  0.00     0.014 C 
BRANCH  31  32
HETATM   32  C   UNL     1     -23.542 -14.962  -2.586  1.00  0.00     0.001 C 
BRANCH  32  33
HETATM   33  C   UNL     1     -23.751 -14.481  -1.154  1.00  0.00     0.000 C 
BRANCH  33  34
HETATM   34  C   UNL     1     -22.760 -13.364  -0.841  1.00  0.00    -0.000 C 
BRANCH  34  35
HETATM   35  C   UNL     1     -23.363 -12.340   0.110  1.00  0.00    -0.005 C 
HETATM   36  C   UNL     1     -24.209 -11.337  -0.655  1.00  0.00     0.005 C 
ENDBRANCH  34  35
ENDBRANCH  33  34
ENDBRANCH  32  33
ENDBRANCH  31  32
ENDBRANCH  30  31
BRANCH  30  37
HETATM   37  C   UNL     1     -21.360 -13.958  -5.557  1.00  0.00     0.014 C 
BRANCH  37  38
HETATM   38  C   UNL     1     -22.173 -14.482  -6.737  1.00  0.00     0.001 C 
BRANCH  38  39
HETATM   39  C   UNL     1     -22.307 -16.004  -6.663  1.00  0.00     0.000 C 
BRANCH  39  40
HETATM   40  C   UNL     1     -23.765 -16.421  -6.826  1.00  0.00     0.000 C 
BRANCH  40  41
HETATM   41  C   UNL     1     -24.710 -15.341  -6.309  1.00  0.00     0.000 C 
BRANCH  41  42
HETATM   42  C   UNL     1     -25.771 -15.947  -5.393  1.00  0.00    -0.000 C 
BRANCH  42  43
HETATM   43  C   UNL     1     -26.997 -16.386  -6.189  1.00  0.00    -0.005 C 
HETATM   44  C   UNL     1     -27.954 -15.226  -6.403  1.00  0.00     0.005 C 
ENDBRANCH  42  43
ENDBRANCH  41  42
ENDBRANCH  40  41
ENDBRANCH  39  40
ENDBRANCH  38  39
ENDBRANCH  37  38
ENDBRANCH  30  37
ENDBRANCH  28  30
ENDBRANCH  27  28
ENDBRANCH   7  27
ENDBRANCH   1   7
BRANCH   2  45
HETATM   45  O   UNL     1     -18.268 -11.012  -5.463  1.00  0.00    -0.277 OA
BRANCH  45  46
HETATM   46  C   UNL     1     -18.417 -11.778  -6.601  1.00  0.00     0.268 C 
HETATM   47  O   UNL     1     -19.237 -11.574  -7.482  1.00  0.00    -0.264 OA
BRANCH  46  48
HETATM   48  C   UNL     1     -17.372 -12.883  -6.615  1.00  0.00     0.086 C 
BRANCH  48  49
HETATM   49  C   UNL     1     -17.759 -13.991  -7.615  1.00  0.00     0.014 C 
BRANCH  49  50
HETATM   50  C   UNL     1     -18.241 -15.302  -6.978  1.00  0.00     0.001 C 
BRANCH  50  51
HETATM   51  C   UNL     1     -17.757 -16.551  -7.712  1.00  0.00     0.000 C 
BRANCH  51  52
HETATM   52  C   UNL     1     -18.589 -16.881  -8.952  1.00  0.00    -0.000 C 
BRANCH  52  53
HETATM   53  C   UNL     1     -17.673 -16.960 -10.167  1.00  0.00    -0.005 C 
HETATM   54  C   UNL     1     -18.101 -16.002 -11.247  1.00  0.00     0.005 C 
ENDBRANCH  52  53
ENDBRANCH  51  52
ENDBRANCH  50  51
ENDBRANCH  49  50
ENDBRANCH  48  49
BRANCH  48  55
HETATM   55  C   UNL     1     -15.913 -12.413  -6.825  1.00  0.00     0.014 C 
BRANCH  55  56
HETATM   56  C   UNL     1     -15.135 -11.575  -5.779  1.00  0.00     0.001 C 
BRANCH  56  57
HETATM   57  C   UNL     1     -13.696 -11.955  -5.323  1.00  0.00     0.000 C 
BRANCH  57  58
HETATM   58  C   UNL     1     -13.568 -12.934  -4.183  1.00  0.00     0.000 C 
BRANCH  58  59
HETATM   59  C   UNL     1     -13.811 -14.772  -3.666  1.00  0.00     0.000 C 
BRANCH  59  60
HETATM   60  C   UNL     1     -14.518 -16.062  -4.850  1.00  0.00    -0.000 C 
BRANCH  60  61
HETATM   61  C   UNL     1     -14.433 -15.728  -6.268  1.00  0.00    -0.005 C 
HETATM   62  C   UNL     1     -13.052 -16.181  -6.737  1.00  0.00     0.005 C 
ENDBRANCH  60  61
ENDBRANCH  59  60
ENDBRANCH  58  59
ENDBRANCH  57  58
ENDBRANCH  56  57
ENDBRANCH  55  56
ENDBRANCH  48  55
ENDBRANCH  46  48
ENDBRANCH  45  46
ENDBRANCH   2  45
BRANCH   3  63
HETATM   63  O   UNL     1     -20.858  -9.411  -5.602  1.00  0.00    -0.270 OA
BRANCH  63  64
HETATM   64  C   UNL     1     -20.262  -8.157  -5.505  1.00  0.00     0.268 C 
HETATM   65  O   UNL     1     -19.261  -7.839  -5.993  1.00  0.00    -0.264 OA
BRANCH  64  66
HETATM   66  C   UNL     1     -21.278  -7.198  -4.805  1.00  0.00     0.086 C 
BRANCH  66  67
HETATM   67  C   UNL     1     -20.894  -6.819  -3.370  1.00  0.00     0.014 C 
BRANCH  67  68
HETATM   68  C   UNL     1     -21.982  -6.111  -2.503  1.00  0.00     0.001 C 
BRANCH  68  69
HETATM   69  C   UNL     1     -22.295  -6.803  -1.186  1.00  0.00     0.000 C 
BRANCH  69  70
HETATM   70  C   UNL     1     -21.280  -7.868  -0.771  1.00  0.00    -0.000 C 
BRANCH  70  71
HETATM   71  C   UNL     1     -21.856  -8.695   0.363  1.00  0.00    -0.005 C 
HETATM   72  C   UNL     1     -23.144  -8.112   0.894  1.00  0.00     0.005 C 
ENDBRANCH  70  71
ENDBRANCH  69  70
ENDBRANCH  68  69
ENDBRANCH  67  68
ENDBRANCH  66  67
BRANCH  66  73
HETATM   73  C   UNL     1     -21.594  -5.975  -5.690  1.00  0.00     0.014 C 
BRANCH  73  74
HETATM   74  C   UNL     1     -20.599  -4.767  -5.813  1.00  0.00     0.001 C 
BRANCH  74  75
HETATM   75  C   UNL     1     -19.649  -4.565  -7.069  1.00  0.00     0.000 C 
BRANCH  75  76
HETATM   76  C   UNL     1     -20.407  -4.561  -8.379  1.00  0.00     0.000 C 
BRANCH  76  77
HETATM   77  C   UNL     1     -22.198  -4.710  -9.113  1.00  0.00     0.000 C 
BRANCH  77  78
HETATM   78  C   UNL     1     -22.890  -3.515 -10.411  1.00  0.00    -0.000 C 
BRANCH  78  79
HETATM   79  C   UNL     1     -21.897  -3.023 -11.413  1.00  0.00    -0.005 C 
HETATM   80  C   UNL     1     -22.505  -3.169 -12.803  1.00  0.00     0.005 C 
ENDBRANCH  78  79
ENDBRANCH  77  78
ENDBRANCH  76  77
ENDBRANCH  75  76
ENDBRANCH  74  75
ENDBRANCH  73  74
ENDBRANCH  66  73
ENDBRANCH  64  66
ENDBRANCH  63  64
ENDBRANCH   3  63
TORSDOF 62
ENDMDL
MODEL 5
REMARK VINA RESULT:      -6.5      1.525     10.697
REMARK WARNING: 32 MAX_TORS EXCEEDED!!!
REMARK  62 active torsions:
REMARK  status: ('A' for Active; 'I' for Inactive)
REMARK    1  A    between atoms: C_2  and  C_3 
REMARK    2  A    between atoms: C_3  and  C_4 
REMARK    3  A    between atoms: C_4  and  C_5 
REMARK    4  A    between atoms: C_5  and  C_6 
REMARK    5  A    between atoms: C_6  and  C_7 
REMARK    6  A    between atoms: C_7  and  C_8 
REMARK    7  A    between atoms: C_8  and  C_9 
REMARK    8  A    between atoms: C_9  and  C_10 
REMARK    9  A    between atoms: C_9  and  C_16 
REMARK   10  A    between atoms: C_10  and  C_11 
REMARK   11  A    between atoms: C_11  and  C_12 
REMARK   12  A    between atoms: C_12  and  C_13 
REMARK   13  A    between atoms: C_13  and  C_14 
REMARK   14  A    between atoms: C_16  and  O_18 
REMARK   15  A    between atoms: O_18  and  C_19 
REMARK   16  A    between atoms: C_19  and  C_20 
REMARK   17  A    between atoms: C_20  and  C_21 
REMARK   18  A    between atoms: C_20  and  O_63 
REMARK   19  A    between atoms: C_22  and  O_45 
REMARK   20  A    between atoms: C_23  and  O_27 
REMARK   21  A    between atoms: O_27  and  C_28 
REMARK   22  A    between atoms: C_28  and  C_30 
REMARK   23  A    between atoms: C_30  and  C_31 
REMARK   24  A    between atoms: C_30  and  C_37 
REMARK   25  A    between atoms: C_31  and  C_32 
REMARK   26  A    between atoms: C_32  and  C_33 
REMARK   27  A    between atoms: C_33  and  C_34 
REMARK   28  A    between atoms: C_34  and  C_35 
REMARK   29  A    between atoms: C_37  and  C_38 
REMARK   30  A    between atoms: C_38  and  C_39 
REMARK   31  A    between atoms: C_39  and  C_40 
REMARK   32  A    between atoms: C_40  and  C_41 
REMARK   33  A    between atoms: C_41  and  C_42 
REMARK   34  A    between atoms: C_42  and  C_43 
REMARK   35  A    between atoms: O_45  and  C_46 
REMARK   36  A    between atoms: C_46  and  C_48 
REMARK   37  A    between atoms: C_48  and  C_49 
REMARK   38  A    between atoms: C_48  and  C_55 
REMARK   39  A    between atoms: C_49  and  C_50 
REMARK   40  A    between atoms: C_50  and  C_51 
REMARK   41  A    between atoms: C_51  and  C_52 
REMARK   42  A    between atoms: C_52  and  C_53 
REMARK   43  A    between atoms: C_55  and  C_56 
REMARK   44  A    between atoms: C_56  and  C_57 
REMARK   45  A    between atoms: C_57  and  C_58 
REMARK   46  A    between atoms: C_58  and  C_59 
REMARK   47  A    between atoms: C_59  and  C_60 
REMARK   48  A    between atoms: C_60  and  C_61 
REMARK   49  A    between atoms: O_63  and  C_64 
REMARK   50  A    between atoms: C_64  and  C_66 
REMARK   51  A    between atoms: C_66  and  C_67 
REMARK   52  A    between atoms: C_66  and  C_73 
REMARK   53  A    between atoms: C_67  and  C_68 
REMARK   54  A    between atoms: C_68  and  C_69 
REMARK   55  A    between atoms: C_69  and  C_70 
REMARK   56  A    between atoms: C_70  and  C_71 
REMARK   57  A    between atoms: C_73  and  C_74 
REMARK   58  A    between atoms: C_74  and  C_75 
REMARK   59  A    between atoms: C_75  and  C_76 
REMARK   60  A    between atoms: C_76  and  C_77 
REMARK   61  A    between atoms: C_77  and  C_78 
REMARK   62  A    between atoms: C_78  and  C_79 
ROOT
HETATM    1  C   UNL     1     -18.880 -11.287  -2.775  1.00  0.00     0.224 C 
HETATM    2  C   UNL     1     -17.919 -12.393  -2.487  1.00  0.00     0.129 C 
HETATM    3  C   UNL     1     -16.726 -11.909  -2.152  1.00  0.00     0.186 C 
HETATM    4  C   UNL     1     -16.752 -10.471  -2.459  1.00  0.00     0.321 C 
HETATM    5  O   UNL     1     -15.808  -9.713  -2.411  1.00  0.00    -0.257 OA
HETATM    6  O   UNL     1     -18.012 -10.147  -2.901  1.00  0.00    -0.301 OA
ENDROOT
BRANCH   1   7
HETATM    7  C   UNL     1     -19.888 -11.305  -3.955  1.00  0.00     0.192 C 
BRANCH   7   8
HETATM    8  C   UNL     1     -19.716 -10.091  -4.903  1.00  0.00     0.214 C 
BRANCH   8   9
HETATM    9  O   UNL     1     -20.702  -9.031  -4.702  1.00  0.00    -0.319 OA
BRANCH   9  10
HETATM   10  C   UNL     1     -20.470  -7.858  -5.369  1.00  0.00     0.263 C 
HETATM   11  O   UNL     1     -19.463  -7.660  -6.035  1.00  0.00    -0.265 OA
BRANCH  10  12
HETATM   12  C   UNL     1     -21.519  -6.769  -5.081  1.00  0.00     0.085 C 
BRANCH  12  13
HETATM   13  C   UNL     1     -21.142  -6.054  -3.753  1.00  0.00     0.014 C 
BRANCH  13  14
HETATM   14  C   UNL     1     -22.047  -6.297  -2.544  1.00  0.00     0.001 C 
BRANCH  14  15
HETATM   15  C   UNL     1     -21.559  -7.363  -1.565  1.00  0.00     0.000 C 
BRANCH  15  16
HETATM   16  C   UNL     1     -22.536  -7.422  -0.389  1.00  0.00     0.000 C 
BRANCH  16  17
HETATM   17  C   UNL     1     -22.114  -8.428   0.672  1.00  0.00     0.000 C 
BRANCH  17  18
HETATM   18  C   UNL     1     -20.987  -9.316   0.145  1.00  0.00    -0.000 C 
BRANCH  18  19
HETATM   19  C   UNL     1     -20.610 -10.374   1.177  1.00  0.00    -0.005 C 
HETATM   20  C   UNL     1     -19.746 -11.463   0.568  1.00  0.00     0.005 C 
ENDBRANCH  18  19
ENDBRANCH  17  18
ENDBRANCH  16  17
ENDBRANCH  15  16
ENDBRANCH  14  15
ENDBRANCH  13  14
ENDBRANCH  12  13
BRANCH  12  21
HETATM   21  C   UNL     1     -21.758  -5.777  -6.245  1.00  0.00     0.014 C 
BRANCH  21  22
HETATM   22  C   UNL     1     -20.890  -4.512  -6.194  1.00  0.00     0.001 C 
BRANCH  22  23
HETATM   23  C   UNL     1     -20.870  -3.651  -7.467  1.00  0.00     0.000 C 
BRANCH  23  24
HETATM   24  C   UNL     1     -20.466  -4.425  -8.723  1.00  0.00    -0.000 C 
BRANCH  24  25
HETATM   25  C   UNL     1     -21.524  -4.337  -9.823  1.00  0.00    -0.005 C 
HETATM   26  C   UNL     1     -22.815  -3.739  -9.284  1.00  0.00     0.005 C 
ENDBRANCH  24  25
ENDBRANCH  23  24
ENDBRANCH  22  23
ENDBRANCH  21  22
ENDBRANCH  12  21
ENDBRANCH  10  12
ENDBRANCH   9  10
ENDBRANCH   8   9
ENDBRANCH   7   8
BRANCH   7  27
HETATM   27  O   UNL     1     -21.261 -11.442  -3.487  1.00  0.00    -0.310 OA
BRANCH  27  28
HETATM   28  C   UNL     1     -21.961 -12.483  -4.047  1.00  0.00     0.263 C 
HETATM   29  O   UNL     1     -22.071 -12.670  -5.251  1.00  0.00    -0.265 OA
BRANCH  28  30
HETATM   30  C   UNL     1     -22.642 -13.351  -2.994  1.00  0.00     0.085 C 
BRANCH  30  31
HETATM   31  C   UNL     1     -21.989 -14.744  -3.061  1.00  0.00     0.014 C 
BRANCH  31  32
HETATM   32  C   UNL     1     -21.841 -15.412  -1.697  1.00  0.00     0.001 C 
BRANCH  32  33
HETATM   33  C   UNL     1     -22.829 -16.561  -1.527  1.00  0.00     0.000 C 
BRANCH  33  34
HETATM   34  C   UNL     1     -23.210 -16.693  -0.056  1.00  0.00    -0.000 C 
BRANCH  34  35
HETATM   35  C   UNL     1     -24.717 -16.597   0.136  1.00  0.00    -0.005 C 
HETATM   36  C   UNL     1     -25.309 -15.565  -0.808  1.00  0.00     0.005 C 
ENDBRANCH  34  35
ENDBRANCH  33  34
ENDBRANCH  32  33
ENDBRANCH  31  32
ENDBRANCH  30  31
BRANCH  30  37
HETATM   37  C   UNL     1     -22.482 -12.744  -1.581  1.00  0.00     0.014 C 
BRANCH  37  38
HETATM   38  C   UNL     1     -23.693 -11.949  -1.103  1.00  0.00     0.001 C 
BRANCH  38  39
HETATM   39  C   UNL     1     -23.808 -12.008   0.422  1.00  0.00     0.000 C 
BRANCH  39  40
HETATM   40  C   UNL     1     -22.942 -13.132   0.980  1.00  0.00     0.000 C 
BRANCH  40  41
HETATM   41  C   UNL     1     -23.589 -13.776   2.202  1.00  0.00     0.000 C 
BRANCH  41  42
HETATM   42  C   UNL     1     -22.564 -14.587   2.991  1.00  0.00    -0.000 C 
BRANCH  42  43
HETATM   43  C   UNL     1     -23.199 -15.838   3.591  1.00  0.00    -0.005 C 
HETATM   44  C   UNL     1     -24.173 -15.479   4.701  1.00  0.00     0.005 C 
ENDBRANCH  42  43
ENDBRANCH  41  42
ENDBRANCH  40  41
ENDBRANCH  39  40
ENDBRANCH  38  39
ENDBRANCH  37  38
ENDBRANCH  30  37
ENDBRANCH  28  30
ENDBRANCH  27  28
ENDBRANCH   7  27
ENDBRANCH   1   7
BRANCH   2  45
HETATM   45  O   UNL     1     -18.368 -13.705  -2.319  1.00  0.00    -0.277 OA
BRANCH  45  46
HETATM   46  C   UNL     1     -17.668 -14.692  -2.984  1.00  0.00     0.268 C 
HETATM   47  O   UNL     1     -17.035 -15.587  -2.447  1.00  0.00    -0.264 OA
BRANCH  46  48
HETATM   48  C   UNL     1     -17.848 -14.524  -4.484  1.00  0.00     0.086 C 
BRANCH  48  49
HETATM   49  C   UNL     1     -16.712 -15.227  -5.256  1.00  0.00     0.014 C 
BRANCH  49  50
HETATM   50  C   UNL     1     -16.037 -14.373  -6.339  1.00  0.00     0.001 C 
BRANCH  50  51
HETATM   51  C   UNL     1     -15.696 -12.959  -5.876  1.00  0.00     0.000 C 
BRANCH  51  52
HETATM   52  C   UNL     1     -14.371 -12.443  -6.442  1.00  0.00    -0.000 C 
BRANCH  52  53
HETATM   53  C   UNL     1     -13.451 -12.052  -5.292  1.00  0.00    -0.005 C 
HETATM   54  C   UNL     1     -13.518 -13.049  -4.165  1.00  0.00     0.005 C 
ENDBRANCH  52  53
ENDBRANCH  51  52
ENDBRANCH  50  51
ENDBRANCH  49  50
ENDBRANCH  48  49
BRANCH  48  55
HETATM   55  C   UNL     1     -19.238 -14.923  -5.034  1.00  0.00     0.014 C 
BRANCH  55  56
HETATM   56  C   UNL     1     -19.659 -16.394  -5.282  1.00  0.00     0.001 C 
BRANCH  56  57
HETATM   57  C   UNL     1     -20.216 -16.873  -6.654  1.00  0.00     0.000 C 
BRANCH  57  58
HETATM   58  C   UNL     1     -19.263 -16.880  -7.823  1.00  0.00     0.000 C 
BRANCH  58  59
HETATM   59  C   UNL     1     -18.139 -15.778  -8.931  1.00  0.00     0.000 C 
BRANCH  59  60
HETATM   60  C   UNL     1     -18.554 -13.972  -9.298  1.00  0.00    -0.000 C 
BRANCH  60  61
HETATM   61  C   UNL     1     -19.551 -13.365  -8.422  1.00  0.00    -0.005 C 
HETATM   62  C   UNL     1     -18.841 -12.242  -7.670  1.00  0.00     0.005 C 
ENDBRANCH  60  61
ENDBRANCH  59  60
ENDBRANCH  58  59
ENDBRANCH  57  58
ENDBRANCH  56  57
ENDBRANCH  55  56
ENDBRANCH  48  55
ENDBRANCH  46  48
ENDBRANCH  45  46
ENDBRANCH   2  45
BRANCH   3  63
HETATM   63  O   UNL     1     -15.613 -12.590  -1.639  1.00  0.00    -0.270 OA
BRANCH  63  64
HETATM   64  C   UNL     1     -15.520 -12.509  -0.253  1.00  0.00     0.268 C 
HETATM   65  O   UNL     1     -15.912 -11.641   0.407  1.00  0.00    -0.264 OA
BRANCH  64  66
HETATM   66  C   UNL     1     -14.989 -13.881   0.271  1.00  0.00     0.086 C 
BRANCH  66  67
HETATM   67  C   UNL     1     -13.679 -14.337  -0.383  1.00  0.00     0.014 C 
BRANCH  67  68
HETATM   68  C   UNL     1     -12.539 -14.824   0.565  1.00  0.00     0.001 C 
BRANCH  68  69
HETATM   69  C   UNL     1     -11.391 -13.842   0.739  1.00  0.00     0.000 C 
BRANCH  69  70
HETATM   70  C   UNL     1     -10.078 -14.476   1.198  1.00  0.00    -0.000 C 
BRANCH  70  71
HETATM   71  C   UNL     1     -10.359 -15.443   2.333  1.00  0.00    -0.005 C 
HETATM   72  C   UNL     1      -9.679 -16.776   2.126  1.00  0.00     0.005 C 
ENDBRANCH  70  71
ENDBRANCH  69  70
ENDBRANCH  68  69
ENDBRANCH  67  68
ENDBRANCH  66  67
BRANCH  66  73
HETATM   73  C   UNL     1     -14.937 -13.910   1.812  1.00  0.00     0.014 C 
BRANCH  73  74
HETATM   74  C   UNL     1     -15.352 -15.187   2.627  1.00  0.00     0.001 C 
BRANCH  74  75
HETATM   75  C   UNL     1     -15.193 -15.284   4.204  1.00  0.00     0.000 C 
BRANCH  75  76
HETATM   76  C   UNL     1     -13.788 -15.658   4.627  1.00  0.00     0.000 C 
BRANCH  76  77
HETATM   77  C   UNL     1     -12.595 -15.649   6.159  1.00  0.00     0.000 C 
BRANCH  77  78
HETATM   78  C   UNL     1     -10.747 -15.253   6.031  1.00  0.00    -0.000 C 
BRANCH  78  79
HETATM   79  C   UNL     1     -10.309 -14.025   6.760  1.00  0.00    -0.005 C 
HETATM   80  C   UNL     1      -9.277 -13.301   5.904  1.00  0.00     0.005 C 
ENDBRANCH  78  79
ENDBRANCH  77  78
ENDBRANCH  76  77
ENDBRANCH  75  76
ENDBRANCH  74  75
ENDBRANCH  73  74
ENDBRANCH  66  73
ENDBRANCH  64  66
ENDBRANCH  63  64
ENDBRANCH   3  63
TORSDOF 62
ENDMDL
MODEL 6
REMARK VINA RESULT:      -6.4      2.123     10.993
REMARK WARNING: 32 MAX_TORS EXCEEDED!!!
REMARK  62 active torsions:
REMARK  status: ('A' for Active; 'I' for Inactive)
REMARK    1  A    between atoms: C_2  and  C_3 
REMARK    2  A    between atoms: C_3  and  C_4 
REMARK    3  A    between atoms: C_4  and  C_5 
REMARK    4  A    between atoms: C_5  and  C_6 
REMARK    5  A    between atoms: C_6  and  C_7 
REMARK    6  A    between atoms: C_7  and  C_8 
REMARK    7  A    between atoms: C_8  and  C_9 
REMARK    8  A    between atoms: C_9  and  C_10 
REMARK    9  A    between atoms: C_9  and  C_16 
REMARK   10  A    between atoms: C_10  and  C_11 
REMARK   11  A    between atoms: C_11  and  C_12 
REMARK   12  A    between atoms: C_12  and  C_13 
REMARK   13  A    between atoms: C_13  and  C_14 
REMARK   14  A    between atoms: C_16  and  O_18 
REMARK   15  A    between atoms: O_18  and  C_19 
REMARK   16  A    between atoms: C_19  and  C_20 
REMARK   17  A    between atoms: C_20  and  C_21 
REMARK   18  A    between atoms: C_20  and  O_63 
REMARK   19  A    between atoms: C_22  and  O_45 
REMARK   20  A    between atoms: C_23  and  O_27 
REMARK   21  A    between atoms: O_27  and  C_28 
REMARK   22  A    between atoms: C_28  and  C_30 
REMARK   23  A    between atoms: C_30  and  C_31 
REMARK   24  A    between atoms: C_30  and  C_37 
REMARK   25  A    between atoms: C_31  and  C_32 
REMARK   26  A    between atoms: C_32  and  C_33 
REMARK   27  A    between atoms: C_33  and  C_34 
REMARK   28  A    between atoms: C_34  and  C_35 
REMARK   29  A    between atoms: C_37  and  C_38 
REMARK   30  A    between atoms: C_38  and  C_39 
REMARK   31  A    between atoms: C_39  and  C_40 
REMARK   32  A    between atoms: C_40  and  C_41 
REMARK   33  A    between atoms: C_41  and  C_42 
REMARK   34  A    between atoms: C_42  and  C_43 
REMARK   35  A    between atoms: O_45  and  C_46 
REMARK   36  A    between atoms: C_46  and  C_48 
REMARK   37  A    between atoms: C_48  and  C_49 
REMARK   38  A    between atoms: C_48  and  C_55 
REMARK   39  A    between atoms: C_49  and  C_50 
REMARK   40  A    between atoms: C_50  and  C_51 
REMARK   41  A    between atoms: C_51  and  C_52 
REMARK   42  A    between atoms: C_52  and  C_53 
REMARK   43  A    between atoms: C_55  and  C_56 
REMARK   44  A    between atoms: C_56  and  C_57 
REMARK   45  A    between atoms: C_57  and  C_58 
REMARK   46  A    between atoms: C_58  and  C_59 
REMARK   47  A    between atoms: C_59  and  C_60 
REMARK   48  A    between atoms: C_60  and  C_61 
REMARK   49  A    between atoms: O_63  and  C_64 
REMARK   50  A    between atoms: C_64  and  C_66 
REMARK   51  A    between atoms: C_66  and  C_67 
REMARK   52  A    between atoms: C_66  and  C_73 
REMARK   53  A    between atoms: C_67  and  C_68 
REMARK   54  A    between atoms: C_68  and  C_69 
REMARK   55  A    between atoms: C_69  and  C_70 
REMARK   56  A    between atoms: C_70  and  C_71 
REMARK   57  A    between atoms: C_73  and  C_74 
REMARK   58  A    between atoms: C_74  and  C_75 
REMARK   59  A    between atoms: C_75  and  C_76 
REMARK   60  A    between atoms: C_76  and  C_77 
REMARK   61  A    between atoms: C_77  and  C_78 
REMARK   62  A    between atoms: C_78  and  C_79 
ROOT
HETATM    1  C   UNL     1     -18.558 -11.313  -5.350  1.00  0.00     0.224 C 
HETATM    2  C   UNL     1     -19.513 -12.425  -5.065  1.00  0.00     0.129 C 
HETATM    3  C   UNL     1     -19.938 -12.986  -6.194  1.00  0.00     0.186 C 
HETATM    4  C   UNL     1     -19.503 -12.109  -7.290  1.00  0.00     0.321 C 
HETATM    5  O   UNL     1     -19.811 -12.217  -8.457  1.00  0.00    -0.257 OA
HETATM    6  O   UNL     1     -18.758 -11.086  -6.756  1.00  0.00    -0.301 OA
ENDROOT
BRANCH   1   7
HETATM    7  C   UNL     1     -18.567  -9.955  -4.598  1.00  0.00     0.192 C 
BRANCH   7   8
HETATM    8  C   UNL     1     -18.704  -8.746  -5.556  1.00  0.00     0.214 C 
BRANCH   8   9
HETATM    9  O   UNL     1     -19.998  -8.069  -5.484  1.00  0.00    -0.319 OA
BRANCH   9  10
HETATM   10  C   UNL     1     -20.109  -6.905  -6.194  1.00  0.00     0.263 C 
HETATM   11  O   UNL     1     -19.411  -6.649  -7.165  1.00  0.00    -0.265 OA
BRANCH  10  12
HETATM   12  C   UNL     1     -21.089  -5.894  -5.569  1.00  0.00     0.085 C 
BRANCH  12  13
HETATM   13  C   UNL     1     -20.734  -5.725  -4.065  1.00  0.00     0.014 C 
BRANCH  13  14
HETATM   14  C   UNL     1     -21.709  -6.312  -3.044  1.00  0.00     0.001 C 
BRANCH  14  15
HETATM   15  C   UNL     1     -21.514  -7.794  -2.729  1.00  0.00     0.000 C 
BRANCH  15  16
HETATM   16  C   UNL     1     -21.001  -7.919  -1.292  1.00  0.00     0.000 C 
BRANCH  16  17
HETATM   17  C   UNL     1     -22.119  -7.839  -0.264  1.00  0.00     0.000 C 
BRANCH  17  18
HETATM   18  C   UNL     1     -22.421  -9.225   0.305  1.00  0.00    -0.000 C 
BRANCH  18  19
HETATM   19  C   UNL     1     -21.284 -10.193  -0.008  1.00  0.00    -0.005 C 
HETATM   20  C   UNL     1     -20.489 -10.539   1.238  1.00  0.00     0.005 C 
ENDBRANCH  18  19
ENDBRANCH  17  18
ENDBRANCH  16  17
ENDBRANCH  15  16
ENDBRANCH  14  15
ENDBRANCH  13  14
ENDBRANCH  12  13
BRANCH  12  21
HETATM   21  C   UNL     1     -21.187  -4.541  -6.315  1.00  0.00     0.014 C 
BRANCH  21  22
HETATM   22  C   UNL     1     -22.307  -4.469  -7.361  1.00  0.00     0.001 C 
BRANCH  22  23
HETATM   23  C   UNL     1     -21.914  -3.914  -8.739  1.00  0.00     0.000 C 
BRANCH  23  24
HETATM   24  C   UNL     1     -22.850  -4.355  -9.867  1.00  0.00    -0.000 C 
BRANCH  24  25
HETATM   25  C   UNL     1     -22.784  -3.420 -11.074  1.00  0.00    -0.005 C 
HETATM   26  C   UNL     1     -24.165  -3.224 -11.683  1.00  0.00     0.005 C 
ENDBRANCH  24  25
ENDBRANCH  23  24
ENDBRANCH  22  23
ENDBRANCH  21  22
ENDBRANCH  12  21
ENDBRANCH  10  12
ENDBRANCH   9  10
ENDBRANCH   8   9
ENDBRANCH   7   8
BRANCH   7  27
HETATM   27  O   UNL     1     -17.416  -9.824  -3.714  1.00  0.00    -0.310 OA
BRANCH  27  28
HETATM   28  C   UNL     1     -16.274 -10.447  -4.155  1.00  0.00     0.263 C 
HETATM   29  O   UNL     1     -15.638 -10.101  -5.142  1.00  0.00    -0.265 OA
BRANCH  28  30
HETATM   30  C   UNL     1     -15.919 -11.664  -3.308  1.00  0.00     0.085 C 
BRANCH  30  31
HETATM   31  C   UNL     1     -14.881 -12.481  -4.098  1.00  0.00     0.014 C 
BRANCH  31  32
HETATM   32  C   UNL     1     -13.584 -12.722  -3.329  1.00  0.00     0.001 C 
BRANCH  32  33
HETATM   33  C   UNL     1     -13.009 -14.103  -3.622  1.00  0.00     0.000 C 
BRANCH  33  34
HETATM   34  C   UNL     1     -13.914 -14.834  -4.608  1.00  0.00    -0.000 C 
BRANCH  34  35
HETATM   35  C   UNL     1     -13.342 -16.195  -4.980  1.00  0.00    -0.005 C 
HETATM   36  C   UNL     1     -13.153 -17.049  -3.738  1.00  0.00     0.005 C 
ENDBRANCH  34  35
ENDBRANCH  33  34
ENDBRANCH  32  33
ENDBRANCH  31  32
ENDBRANCH  30  31
BRANCH  30  37
HETATM   37  C   UNL     1     -15.347 -11.241  -1.934  1.00  0.00     0.014 C 
BRANCH  37  38
HETATM   38  C   UNL     1     -16.293 -11.488  -0.763  1.00  0.00     0.001 C 
BRANCH  38  39
HETATM   39  C   UNL     1     -15.514 -11.950   0.470  1.00  0.00     0.000 C 
BRANCH  39  40
HETATM   40  C   UNL     1     -16.388 -12.832   1.356  1.00  0.00     0.000 C 
BRANCH  40  41
HETATM   41  C   UNL     1     -15.574 -13.472   2.475  1.00  0.00     0.000 C 
BRANCH  41  42
HETATM   42  C   UNL     1     -16.016 -14.915   2.705  1.00  0.00    -0.000 C 
BRANCH  42  43
HETATM   43  C   UNL     1     -17.366 -15.187   2.047  1.00  0.00    -0.005 C 
HETATM   44  C   UNL     1     -18.075 -16.354   2.713  1.00  0.00     0.005 C 
ENDBRANCH  42  43
ENDBRANCH  41  42
ENDBRANCH  40  41
ENDBRANCH  39  40
ENDBRANCH  38  39
ENDBRANCH  37  38
ENDBRANCH  30  37
ENDBRANCH  28  30
ENDBRANCH  27  28
ENDBRANCH   7  27
ENDBRANCH   1   7
BRANCH   2  45
HETATM   45  O   UNL     1     -19.650 -12.937  -3.772  1.00  0.00    -0.277 OA
BRANCH  45  46
HETATM   46  C   UNL     1     -18.812 -13.977  -3.423  1.00  0.00     0.268 C 
HETATM   47  O   UNL     1     -18.449 -14.869  -4.173  1.00  0.00    -0.264 OA
BRANCH  46  48
HETATM   48  C   UNL     1     -18.372 -13.815  -1.976  1.00  0.00     0.086 C 
BRANCH  48  49
HETATM   49  C   UNL     1     -19.571 -13.459  -1.074  1.00  0.00     0.014 C 
BRANCH  49  50
HETATM   50  C   UNL     1     -20.171 -14.638  -0.296  1.00  0.00     0.001 C 
BRANCH  50  51
HETATM   51  C   UNL     1     -20.858 -14.224   1.003  1.00  0.00     0.000 C 
BRANCH  51  52
HETATM   52  C   UNL     1     -22.237 -14.862   1.186  1.00  0.00    -0.000 C 
BRANCH  52  53
HETATM   53  C   UNL     1     -23.094 -13.965   2.070  1.00  0.00    -0.005 C 
HETATM   54  C   UNL     1     -23.738 -14.741   3.188  1.00  0.00     0.005 C 
ENDBRANCH  52  53
ENDBRANCH  51  52
ENDBRANCH  50  51
ENDBRANCH  49  50
ENDBRANCH  48  49
BRANCH  48  55
HETATM   55  C   UNL     1     -17.555 -14.993  -1.395  1.00  0.00     0.014 C 
BRANCH  55  56
HETATM   56  C   UNL     1     -16.020 -15.122  -1.561  1.00  0.00     0.001 C 
BRANCH  56  57
HETATM   57  C   UNL     1     -15.173 -16.089  -0.683  1.00  0.00     0.000 C 
BRANCH  57  58
HETATM   58  C   UNL     1     -13.763 -15.668  -0.355  1.00  0.00     0.000 C 
BRANCH  58  59
HETATM   59  C   UNL     1     -12.646 -14.172   0.113  1.00  0.00     0.000 C 
BRANCH  59  60
HETATM   60  C   UNL     1     -11.259 -14.315   1.387  1.00  0.00    -0.000 C 
BRANCH  60  61
HETATM   61  C   UNL     1     -10.239 -13.273   1.326  1.00  0.00    -0.005 C 
HETATM   62  C   UNL     1      -8.920 -13.976   1.016  1.00  0.00     0.005 C 
ENDBRANCH  60  61
ENDBRANCH  59  60
ENDBRANCH  58  59
ENDBRANCH  57  58
ENDBRANCH  56  57
ENDBRANCH  55  56
ENDBRANCH  48  55
ENDBRANCH  46  48
ENDBRANCH  45  46
ENDBRANCH   2  45
BRANCH   3  63
HETATM   63  O   UNL     1     -20.688 -14.158  -6.366  1.00  0.00    -0.270 OA
BRANCH  63  64
HETATM   64  C   UNL     1     -22.044 -13.976  -6.111  1.00  0.00     0.268 C 
HETATM   65  O   UNL     1     -22.650 -13.007  -6.305  1.00  0.00    -0.264 OA
BRANCH  64  66
HETATM   66  C   UNL     1     -22.647 -15.363  -5.722  1.00  0.00     0.086 C 
BRANCH  66  67
HETATM   67  C   UNL     1     -23.260 -16.131  -6.899  1.00  0.00     0.014 C 
BRANCH  67  68
HETATM   68  C   UNL     1     -24.698 -16.707  -6.704  1.00  0.00     0.001 C 
BRANCH  68  69
HETATM   69  C   UNL     1     -25.651 -15.798  -5.945  1.00  0.00     0.000 C 
BRANCH  69  70
HETATM   70  C   UNL     1     -26.893 -16.499  -5.394  1.00  0.00    -0.000 C 
BRANCH  70  71
HETATM   71  C   UNL     1     -27.999 -16.448  -6.432  1.00  0.00    -0.005 C 
HETATM   72  C   UNL     1     -28.703 -15.113  -6.448  1.00  0.00     0.005 C 
ENDBRANCH  70  71
ENDBRANCH  69  70
ENDBRANCH  68  69
ENDBRANCH  67  68
ENDBRANCH  66  67
BRANCH  66  73
HETATM   73  C   UNL     1     -21.639 -16.204  -4.911  1.00  0.00     0.014 C 
BRANCH  73  74
HETATM   74  C   UNL     1     -21.758 -16.355  -3.353  1.00  0.00     0.001 C 
BRANCH  74  75
HETATM   75  C   UNL     1     -23.085 -16.859  -2.640  1.00  0.00     0.000 C 
BRANCH  75  76
HETATM   76  C   UNL     1     -24.113 -15.761  -2.476  1.00  0.00     0.000 C 
BRANCH  76  77
HETATM   77  C   UNL     1     -24.616 -14.294  -1.307  1.00  0.00     0.000 C 
BRANCH  77  78
HETATM   78  C   UNL     1     -23.782 -12.594  -1.360  1.00  0.00    -0.000 C 
BRANCH  78  79
HETATM   79  C   UNL     1     -22.670 -12.462  -2.349  1.00  0.00    -0.005 C 
HETATM   80  C   UNL     1     -22.930 -11.227  -3.202  1.00  0.00     0.005 C 
ENDBRANCH  78  79
ENDBRANCH  77  78
ENDBRANCH  76  77
ENDBRANCH  75  76
ENDBRANCH  74  75
ENDBRANCH  73  74
ENDBRANCH  66  73
ENDBRANCH  64  66
ENDBRANCH  63  64
ENDBRANCH   3  63
TORSDOF 62
ENDMDL
MODEL 7
REMARK VINA RESULT:      -6.4      2.227      8.154
REMARK WARNING: 32 MAX_TORS EXCEEDED!!!
REMARK  62 active torsions:
REMARK  status: ('A' for Active; 'I' for Inactive)
REMARK    1  A    between atoms: C_2  and  C_3 
REMARK    2  A    between atoms: C_3  and  C_4 
REMARK    3  A    between atoms: C_4  and  C_5 
REMARK    4  A    between atoms: C_5  and  C_6 
REMARK    5  A    between atoms: C_6  and  C_7 
REMARK    6  A    between atoms: C_7  and  C_8 
REMARK    7  A    between atoms: C_8  and  C_9 
REMARK    8  A    between atoms: C_9  and  C_10 
REMARK    9  A    between atoms: C_9  and  C_16 
REMARK   10  A    between atoms: C_10  and  C_11 
REMARK   11  A    between atoms: C_11  and  C_12 
REMARK   12  A    between atoms: C_12  and  C_13 
REMARK   13  A    between atoms: C_13  and  C_14 
REMARK   14  A    between atoms: C_16  and  O_18 
REMARK   15  A    between atoms: O_18  and  C_19 
REMARK   16  A    between atoms: C_19  and  C_20 
REMARK   17  A    between atoms: C_20  and  C_21 
REMARK   18  A    between atoms: C_20  and  O_63 
REMARK   19  A    between atoms: C_22  and  O_45 
REMARK   20  A    between atoms: C_23  and  O_27 
REMARK   21  A    between atoms: O_27  and  C_28 
REMARK   22  A    between atoms: C_28  and  C_30 
REMARK   23  A    between atoms: C_30  and  C_31 
REMARK   24  A    between atoms: C_30  and  C_37 
REMARK   25  A    between atoms: C_31  and  C_32 
REMARK   26  A    between atoms: C_32  and  C_33 
REMARK   27  A    between atoms: C_33  and  C_34 
REMARK   28  A    between atoms: C_34  and  C_35 
REMARK   29  A    between atoms: C_37  and  C_38 
REMARK   30  A    between atoms: C_38  and  C_39 
REMARK   31  A    between atoms: C_39  and  C_40 
REMARK   32  A    between atoms: C_40  and  C_41 
REMARK   33  A    between atoms: C_41  and  C_42 
REMARK   34  A    between atoms: C_42  and  C_43 
REMARK   35  A    between atoms: O_45  and  C_46 
REMARK   36  A    between atoms: C_46  and  C_48 
REMARK   37  A    between atoms: C_48  and  C_49 
REMARK   38  A    between atoms: C_48  and  C_55 
REMARK   39  A    between atoms: C_49  and  C_50 
REMARK   40  A    between atoms: C_50  and  C_51 
REMARK   41  A    between atoms: C_51  and  C_52 
REMARK   42  A    between atoms: C_52  and  C_53 
REMARK   43  A    between atoms: C_55  and  C_56 
REMARK   44  A    between atoms: C_56  and  C_57 
REMARK   45  A    between atoms: C_57  and  C_58 
REMARK   46  A    between atoms: C_58  and  C_59 
REMARK   47  A    between atoms: C_59  and  C_60 
REMARK   48  A    between atoms: C_60  and  C_61 
REMARK   49  A    between atoms: O_63  and  C_64 
REMARK   50  A    between atoms: C_64  and  C_66 
REMARK   51  A    between atoms: C_66  and  C_67 
REMARK   52  A    between atoms: C_66  and  C_73 
REMARK   53  A    between atoms: C_67  and  C_68 
REMARK   54  A    between atoms: C_68  and  C_69 
REMARK   55  A    between atoms: C_69  and  C_70 
REMARK   56  A    between atoms: C_70  and  C_71 
REMARK   57  A    between atoms: C_73  and  C_74 
REMARK   58  A    between atoms: C_74  and  C_75 
REMARK   59  A    between atoms: C_75  and  C_76 
REMARK   60  A    between atoms: C_76  and  C_77 
REMARK   61  A    between atoms: C_77  and  C_78 
REMARK   62  A    between atoms: C_78  and  C_79 
ROOT
HETATM    1  C   UNL     1     -19.966  -9.424  -2.535  1.00  0.00     0.224 C 
HETATM    2  C   UNL     1     -20.436  -9.393  -3.952  1.00  0.00     0.129 C 
HETATM    3  C   UNL     1     -20.903  -8.189  -4.270  1.00  0.00     0.186 C 
HETATM    4  C   UNL     1     -21.019  -7.436  -3.012  1.00  0.00     0.321 C 
HETATM    5  O   UNL     1     -21.528  -6.345  -2.878  1.00  0.00    -0.257 OA
HETATM    6  O   UNL     1     -20.534  -8.219  -1.994  1.00  0.00    -0.301 OA
ENDROOT
BRANCH   1   7
HETATM    7  C   UNL     1     -20.233 -10.606  -1.565  1.00  0.00     0.192 C 
BRANCH   7   8
HETATM    8  C   UNL     1     -21.478 -10.372  -0.672  1.00  0.00     0.214 C 
BRANCH   8   9
HETATM    9  O   UNL     1     -22.744 -10.739  -1.302  1.00  0.00    -0.319 OA
BRANCH   9  10
HETATM   10  C   UNL     1     -23.650 -11.384  -0.505  1.00  0.00     0.263 C 
HETATM   11  O   UNL     1     -24.584 -10.811   0.039  1.00  0.00    -0.265 OA
BRANCH  10  12
HETATM   12  C   UNL     1     -23.298 -12.860  -0.241  1.00  0.00     0.085 C 
BRANCH  12  13
HETATM   13  C   UNL     1     -23.234 -13.088   1.295  1.00  0.00     0.014 C 
BRANCH  13  14
HETATM   14  C   UNL     1     -22.007 -13.816   1.846  1.00  0.00     0.001 C 
BRANCH  14  15
HETATM   15  C   UNL     1     -22.266 -14.716   3.053  1.00  0.00     0.000 C 
BRANCH  15  16
HETATM   16  C   UNL     1     -23.778 -14.905   3.199  1.00  0.00     0.000 C 
BRANCH  16  17
HETATM   17  C   UNL     1     -24.169 -15.445   4.567  1.00  0.00     0.000 C 
BRANCH  17  18
HETATM   18  C   UNL     1     -25.678 -15.682   4.634  1.00  0.00    -0.000 C 
BRANCH  18  19
HETATM   19  C   UNL     1     -26.194 -15.455   6.051  1.00  0.00    -0.005 C 
HETATM   20  C   UNL     1     -27.139 -14.268   6.116  1.00  0.00     0.005 C 
ENDBRANCH  18  19
ENDBRANCH  17  18
ENDBRANCH  16  17
ENDBRANCH  15  16
ENDBRANCH  14  15
ENDBRANCH  13  14
ENDBRANCH  12  13
BRANCH  12  21
HETATM   21  C   UNL     1     -24.212 -13.882  -0.959  1.00  0.00     0.014 C 
BRANCH  21  22
HETATM   22  C   UNL     1     -23.738 -14.286  -2.362  1.00  0.00     0.001 C 
BRANCH  22  23
HETATM   23  C   UNL     1     -23.097 -15.678  -2.487  1.00  0.00     0.000 C 
BRANCH  23  24
HETATM   24  C   UNL     1     -21.568 -15.652  -2.448  1.00  0.00    -0.000 C 
BRANCH  24  25
HETATM   25  C   UNL     1     -20.995 -16.703  -1.498  1.00  0.00    -0.005 C 
HETATM   26  C   UNL     1     -21.796 -16.757  -0.205  1.00  0.00     0.005 C 
ENDBRANCH  24  25
ENDBRANCH  23  24
ENDBRANCH  22  23
ENDBRANCH  21  22
ENDBRANCH  12  21
ENDBRANCH  10  12
ENDBRANCH   9  10
ENDBRANCH   8   9
ENDBRANCH   7   8
BRANCH   7  27
HETATM   27  O   UNL     1     -19.050 -10.933  -0.778  1.00  0.00    -0.310 OA
BRANCH  27  28
HETATM   28  C   UNL     1     -18.585 -12.216  -0.940  1.00  0.00     0.263 C 
HETATM   29  O   UNL     1     -19.303 -13.193  -1.100  1.00  0.00    -0.265 OA
BRANCH  28  30
HETATM   30  C   UNL     1     -17.065 -12.293  -0.837  1.00  0.00     0.085 C 
BRANCH  30  31
HETATM   31  C   UNL     1     -16.493 -11.136  -1.675  1.00  0.00     0.014 C 
BRANCH  31  32
HETATM   32  C   UNL     1     -15.342 -11.557  -2.586  1.00  0.00     0.001 C 
BRANCH  32  33
HETATM   33  C   UNL     1     -15.493 -13.004  -3.042  1.00  0.00     0.000 C 
BRANCH  33  34
HETATM   34  C   UNL     1     -14.118 -13.590  -3.345  1.00  0.00    -0.000 C 
BRANCH  34  35
HETATM   35  C   UNL     1     -13.347 -12.716  -4.325  1.00  0.00    -0.005 C 
HETATM   36  C   UNL     1     -13.591 -13.174  -5.752  1.00  0.00     0.005 C 
ENDBRANCH  34  35
ENDBRANCH  33  34
ENDBRANCH  32  33
ENDBRANCH  31  32
ENDBRANCH  30  31
BRANCH  30  37
HETATM   37  C   UNL     1     -16.599 -12.183   0.633  1.00  0.00     0.014 C 
BRANCH  37  38
HETATM   38  C   UNL     1     -15.099 -12.385   0.829  1.00  0.00     0.001 C 
BRANCH  38  39
HETATM   39  C   UNL     1     -14.762 -13.876   0.895  1.00  0.00     0.000 C 
BRANCH  39  40
HETATM   40  C   UNL     1     -13.431 -14.154   0.202  1.00  0.00     0.000 C 
BRANCH  40  41
HETATM   41  C   UNL     1     -12.307 -14.339   1.217  1.00  0.00     0.000 C 
BRANCH  41  42
HETATM   42  C   UNL     1     -11.071 -14.935   0.548  1.00  0.00    -0.000 C 
BRANCH  42  43
HETATM   43  C   UNL     1      -9.810 -14.175   0.950  1.00  0.00    -0.005 C 
HETATM   44  C   UNL     1     -10.139 -12.754   1.376  1.00  0.00     0.005 C 
ENDBRANCH  42  43
ENDBRANCH  41  42
ENDBRANCH  40  41
ENDBRANCH  39  40
ENDBRANCH  38  39
ENDBRANCH  37  38
ENDBRANCH  30  37
ENDBRANCH  28  30
ENDBRANCH  27  28
ENDBRANCH   7  27
ENDBRANCH   1   7
BRANCH   2  45
HETATM   45  O   UNL     1     -20.115 -10.427  -4.836  1.00  0.00    -0.277 OA
BRANCH  45  46
HETATM   46  C   UNL     1     -18.772 -10.668  -5.050  1.00  0.00     0.268 C 
HETATM   47  O   UNL     1     -17.874  -9.866  -4.849  1.00  0.00    -0.264 OA
BRANCH  46  48
HETATM   48  C   UNL     1     -18.580 -12.100  -5.526  1.00  0.00     0.086 C 
BRANCH  48  49
HETATM   49  C   UNL     1     -17.168 -12.297  -6.114  1.00  0.00     0.014 C 
BRANCH  49  50
HETATM   50  C   UNL     1     -17.124 -13.011  -7.473  1.00  0.00     0.001 C 
BRANCH  50  51
HETATM   51  C   UNL     1     -18.304 -12.668  -8.379  1.00  0.00     0.000 C 
BRANCH  51  52
HETATM   52  C   UNL     1     -19.261 -13.843  -8.593  1.00  0.00    -0.000 C 
BRANCH  52  53
HETATM   53  C   UNL     1     -18.459 -15.135  -8.685  1.00  0.00    -0.005 C 
HETATM   54  C   UNL     1     -18.065 -15.443 -10.106  1.00  0.00     0.005 C 
ENDBRANCH  52  53
ENDBRANCH  51  52
ENDBRANCH  50  51
ENDBRANCH  49  50
ENDBRANCH  48  49
BRANCH  48  55
HETATM   55  C   UNL     1     -18.919 -13.195  -4.487  1.00  0.00     0.014 C 
BRANCH  55  56
HETATM   56  C   UNL     1     -18.886 -14.709  -4.812  1.00  0.00     0.001 C 
BRANCH  56  57
HETATM   57  C   UNL     1     -17.669 -15.607  -4.441  1.00  0.00     0.000 C 
BRANCH  57  58
HETATM   58  C   UNL     1     -17.632 -16.176  -3.045  1.00  0.00     0.000 C 
BRANCH  58  59
HETATM   59  C   UNL     1     -16.968 -15.898  -1.259  1.00  0.00     0.000 C 
BRANCH  59  60
HETATM   60  C   UNL     1     -17.910 -16.494   0.265  1.00  0.00    -0.000 C 
BRANCH  60  61
HETATM   61  C   UNL     1     -18.280 -15.456   1.222  1.00  0.00    -0.005 C 
HETATM   62  C   UNL     1     -18.837 -16.176   2.448  1.00  0.00     0.005 C 
ENDBRANCH  60  61
ENDBRANCH  59  60
ENDBRANCH  58  59
ENDBRANCH  57  58
ENDBRANCH  56  57
ENDBRANCH  55  56
ENDBRANCH  48  55
ENDBRANCH  46  48
ENDBRANCH  45  46
ENDBRANCH   2  45
BRANCH   3  63
HETATM   63  O   UNL     1     -21.266  -7.690  -5.529  1.00  0.00    -0.270 OA
BRANCH  63  64
HETATM   64  C   UNL     1     -20.220  -7.038  -6.175  1.00  0.00     0.268 C 
HETATM   65  O   UNL     1     -19.171  -7.480  -6.391  1.00  0.00    -0.264 OA
BRANCH  64  66
HETATM   66  C   UNL     1     -20.775  -5.693  -6.745  1.00  0.00     0.086 C 
BRANCH  66  67
HETATM   67  C   UNL     1     -21.955  -5.118  -5.953  1.00  0.00     0.014 C 
BRANCH  67  68
HETATM   68  C   UNL     1     -23.321  -4.992  -6.697  1.00  0.00     0.001 C 
BRANCH  68  69
HETATM   69  C   UNL     1     -23.271  -4.196  -7.991  1.00  0.00     0.000 C 
BRANCH  69  70
HETATM   70  C   UNL     1     -23.365  -5.043  -9.261  1.00  0.00    -0.000 C 
BRANCH  70  71
HETATM   71  C   UNL     1     -24.422  -4.456 -10.177  1.00  0.00    -0.005 C 
HETATM   72  C   UNL     1     -24.990  -3.165  -9.637  1.00  0.00     0.005 C 
ENDBRANCH  70  71
ENDBRANCH  69  70
ENDBRANCH  68  69
ENDBRANCH  67  68
ENDBRANCH  66  67
BRANCH  66  73
HETATM   73  C   UNL     1     -19.642  -4.671  -6.970  1.00  0.00     0.014 C 
BRANCH  73  74
HETATM   74  C   UNL     1     -19.294  -4.129  -8.402  1.00  0.00     0.001 C 
BRANCH  74  75
HETATM   75  C   UNL     1     -19.817  -4.825  -9.731  1.00  0.00     0.000 C 
BRANCH  75  76
HETATM   76  C   UNL     1     -20.397  -3.835 -10.718  1.00  0.00     0.000 C 
BRANCH  76  77
HETATM   77  C   UNL     1     -21.596  -3.712 -12.240  1.00  0.00     0.000 C 
BRANCH  77  78
HETATM   78  C   UNL     1     -22.802  -2.273 -12.496  1.00  0.00    -0.000 C 
BRANCH  78  79
HETATM   79  C   UNL     1     -23.864  -2.510 -13.520  1.00  0.00    -0.005 C 
HETATM   80  C   UNL     1     -23.533  -1.682 -14.755  1.00  0.00     0.005 C 
ENDBRANCH  78  79
ENDBRANCH  77  78
ENDBRANCH  76  77
ENDBRANCH  75  76
ENDBRANCH  74  75
ENDBRANCH  73  74
ENDBRANCH  66  73
ENDBRANCH  64  66
ENDBRANCH  63  64
ENDBRANCH   3  63
TORSDOF 62
ENDMDL
MODEL 8
REMARK VINA RESULT:      -6.3      1.865     11.558
REMARK WARNING: 32 MAX_TORS EXCEEDED!!!
REMARK  62 active torsions:
REMARK  status: ('A' for Active; 'I' for Inactive)
REMARK    1  A    between atoms: C_2  and  C_3 
REMARK    2  A    between atoms: C_3  and  C_4 
REMARK    3  A    between atoms: C_4  and  C_5 
REMARK    4  A    between atoms: C_5  and  C_6 
REMARK    5  A    between atoms: C_6  and  C_7 
REMARK    6  A    between atoms: C_7  and  C_8 
REMARK    7  A    between atoms: C_8  and  C_9 
REMARK    8  A    between atoms: C_9  and  C_10 
REMARK    9  A    between atoms: C_9  and  C_16 
REMARK   10  A    between atoms: C_10  and  C_11 
REMARK   11  A    between atoms: C_11  and  C_12 
REMARK   12  A    between atoms: C_12  and  C_13 
REMARK   13  A    between atoms: C_13  and  C_14 
REMARK   14  A    between atoms: C_16  and  O_18 
REMARK   15  A    between atoms: O_18  and  C_19 
REMARK   16  A    between atoms: C_19  and  C_20 
REMARK   17  A    between atoms: C_20  and  C_21 
REMARK   18  A    between atoms: C_20  and  O_63 
REMARK   19  A    between atoms: C_22  and  O_45 
REMARK   20  A    between atoms: C_23  and  O_27 
REMARK   21  A    between atoms: O_27  and  C_28 
REMARK   22  A    between atoms: C_28  and  C_30 
REMARK   23  A    between atoms: C_30  and  C_31 
REMARK   24  A    between atoms: C_30  and  C_37 
REMARK   25  A    between atoms: C_31  and  C_32 
REMARK   26  A    between atoms: C_32  and  C_33 
REMARK   27  A    between atoms: C_33  and  C_34 
REMARK   28  A    between atoms: C_34  and  C_35 
REMARK   29  A    between atoms: C_37  and  C_38 
REMARK   30  A    between atoms: C_38  and  C_39 
REMARK   31  A    between atoms: C_39  and  C_40 
REMARK   32  A    between atoms: C_40  and  C_41 
REMARK   33  A    between atoms: C_41  and  C_42 
REMARK   34  A    between atoms: C_42  and  C_43 
REMARK   35  A    between atoms: O_45  and  C_46 
REMARK   36  A    between atoms: C_46  and  C_48 
REMARK   37  A    between atoms: C_48  and  C_49 
REMARK   38  A    between atoms: C_48  and  C_55 
REMARK   39  A    between atoms: C_49  and  C_50 
REMARK   40  A    between atoms: C_50  and  C_51 
REMARK   41  A    between atoms: C_51  and  C_52 
REMARK   42  A    between atoms: C_52  and  C_53 
REMARK   43  A    between atoms: C_55  and  C_56 
REMARK   44  A    between atoms: C_56  and  C_57 
REMARK   45  A    between atoms: C_57  and  C_58 
REMARK   46  A    between atoms: C_58  and  C_59 
REMARK   47  A    between atoms: C_59  and  C_60 
REMARK   48  A    between atoms: C_60  and  C_61 
REMARK   49  A    between atoms: O_63  and  C_64 
REMARK   50  A    between atoms: C_64  and  C_66 
REMARK   51  A    between atoms: C_66  and  C_67 
REMARK   52  A    between atoms: C_66  and  C_73 
REMARK   53  A    between atoms: C_67  and  C_68 
REMARK   54  A    between atoms: C_68  and  C_69 
REMARK   55  A    between atoms: C_69  and  C_70 
REMARK   56  A    between atoms: C_70  and  C_71 
REMARK   57  A    between atoms: C_73  and  C_74 
REMARK   58  A    between atoms: C_74  and  C_75 
REMARK   59  A    between atoms: C_75  and  C_76 
REMARK   60  A    between atoms: C_76  and  C_77 
REMARK   61  A    between atoms: C_77  and  C_78 
REMARK   62  A    between atoms: C_78  and  C_79 
ROOT
HETATM    1  C   UNL     1     -19.081 -10.276  -2.965  1.00  0.00     0.224 C 
HETATM    2  C   UNL     1     -18.234 -11.502  -2.864  1.00  0.00     0.129 C 
HETATM    3  C   UNL     1     -16.969 -11.183  -2.601  1.00  0.00     0.186 C 
HETATM    4  C   UNL     1     -16.855  -9.728  -2.779  1.00  0.00     0.321 C 
HETATM    5  O   UNL     1     -15.828  -9.084  -2.753  1.00  0.00    -0.257 OA
HETATM    6  O   UNL     1     -18.100  -9.229  -3.072  1.00  0.00    -0.301 OA
ENDROOT
BRANCH   1   7
HETATM    7  C   UNL     1     -20.178 -10.073  -4.044  1.00  0.00     0.192 C 
BRANCH   7   8
HETATM    8  C   UNL     1     -19.996  -8.752  -4.835  1.00  0.00     0.214 C 
BRANCH   8   9
HETATM    9  O   UNL     1     -21.214  -7.952  -4.950  1.00  0.00    -0.319 OA
BRANCH   9  10
HETATM   10  C   UNL     1     -21.190  -6.727  -4.339  1.00  0.00     0.263 C 
HETATM   11  O   UNL     1     -21.129  -6.591  -3.125  1.00  0.00    -0.265 OA
BRANCH  10  12
HETATM   12  C   UNL     1     -21.394  -5.550  -5.311  1.00  0.00     0.085 C 
BRANCH  12  13
HETATM   13  C   UNL     1     -20.003  -5.088  -5.830  1.00  0.00     0.014 C 
BRANCH  13  14
HETATM   14  C   UNL     1     -19.599  -5.526  -7.239  1.00  0.00     0.001 C 
BRANCH  14  15
HETATM   15  C   UNL     1     -19.516  -4.406  -8.274  1.00  0.00     0.000 C 
BRANCH  15  16
HETATM   16  C   UNL     1     -20.261  -4.855  -9.533  1.00  0.00     0.000 C 
BRANCH  16  17
HETATM   17  C   UNL     1     -19.894  -4.028 -10.756  1.00  0.00     0.000 C 
BRANCH  17  18
HETATM   18  C   UNL     1     -21.044  -3.095 -11.134  1.00  0.00    -0.000 C 
BRANCH  18  19
HETATM   19  C   UNL     1     -21.747  -3.593 -12.393  1.00  0.00    -0.005 C 
HETATM   20  C   UNL     1     -22.863  -2.654 -12.815  1.00  0.00     0.005 C 
ENDBRANCH  18  19
ENDBRANCH  17  18
ENDBRANCH  16  17
ENDBRANCH  15  16
ENDBRANCH  14  15
ENDBRANCH  13  14
ENDBRANCH  12  13
BRANCH  12  21
HETATM   21  C   UNL     1     -22.397  -5.824  -6.457  1.00  0.00     0.014 C 
BRANCH  21  22
HETATM   22  C   UNL     1     -23.226  -4.604  -6.884  1.00  0.00     0.001 C 
BRANCH  22  23
HETATM   23  C   UNL     1     -22.990  -4.088  -8.312  1.00  0.00     0.000 C 
BRANCH  23  24
HETATM   24  C   UNL     1     -24.208  -3.389  -8.920  1.00  0.00    -0.000 C 
BRANCH  24  25
HETATM   25  C   UNL     1     -24.726  -4.108 -10.165  1.00  0.00    -0.005 C 
HETATM   26  C   UNL     1     -23.919  -5.370 -10.436  1.00  0.00     0.005 C 
ENDBRANCH  24  25
ENDBRANCH  23  24
ENDBRANCH  22  23
ENDBRANCH  21  22
ENDBRANCH  12  21
ENDBRANCH  10  12
ENDBRANCH   9  10
ENDBRANCH   8   9
ENDBRANCH   7   8
BRANCH   7  27
HETATM   27  O   UNL     1     -21.516 -10.191  -3.479  1.00  0.00    -0.310 OA
BRANCH  27  28
HETATM   28  C   UNL     1     -22.141 -11.390  -3.721  1.00  0.00     0.263 C 
HETATM   29  O   UNL     1     -22.610 -11.716  -4.803  1.00  0.00    -0.265 OA
BRANCH  28  30
HETATM   30  C   UNL     1     -22.239 -12.251  -2.466  1.00  0.00     0.085 C 
BRANCH  30  31
HETATM   31  C   UNL     1     -23.582 -11.919  -1.790  1.00  0.00     0.014 C 
BRANCH  31  32
HETATM   32  C   UNL     1     -23.429 -11.366  -0.375  1.00  0.00     0.001 C 
BRANCH  32  33
HETATM   33  C   UNL     1     -22.970  -9.912  -0.391  1.00  0.00     0.000 C 
BRANCH  33  34
HETATM   34  C   UNL     1     -21.689  -9.772   0.425  1.00  0.00    -0.000 C 
BRANCH  34  35
HETATM   35  C   UNL     1     -21.558  -8.374   1.014  1.00  0.00    -0.005 C 
HETATM   36  C   UNL     1     -22.289  -7.361   0.150  1.00  0.00     0.005 C 
ENDBRANCH  34  35
ENDBRANCH  33  34
ENDBRANCH  32  33
ENDBRANCH  31  32
ENDBRANCH  30  31
BRANCH  30  37
HETATM   37  C   UNL     1     -22.163 -13.756  -2.813  1.00  0.00     0.014 C 
BRANCH  37  38
HETATM   38  C   UNL     1     -22.694 -14.676  -1.718  1.00  0.00     0.001 C 
BRANCH  38  39
HETATM   39  C   UNL     1     -21.539 -15.349  -0.973  1.00  0.00     0.000 C 
BRANCH  39  40
HETATM   40  C   UNL     1     -21.124 -14.516   0.235  1.00  0.00     0.000 C 
BRANCH  40  41
HETATM   41  C   UNL     1     -21.568 -15.171   1.539  1.00  0.00     0.000 C 
BRANCH  41  42
HETATM   42  C   UNL     1     -22.172 -14.136   2.484  1.00  0.00    -0.000 C 
BRANCH  42  43
HETATM   43  C   UNL     1     -23.690 -14.275   2.553  1.00  0.00    -0.005 C 
HETATM   44  C   UNL     1     -24.149 -15.579   1.922  1.00  0.00     0.005 C 
ENDBRANCH  42  43
ENDBRANCH  41  42
ENDBRANCH  40  41
ENDBRANCH  39  40
ENDBRANCH  38  39
ENDBRANCH  37  38
ENDBRANCH  30  37
ENDBRANCH  28  30
ENDBRANCH  27  28
ENDBRANCH   7  27
ENDBRANCH   1   7
BRANCH   2  45
HETATM   45  O   UNL     1     -18.815 -12.768  -2.769  1.00  0.00    -0.277 OA
BRANCH  45  46
HETATM   46  C   UNL     1     -18.704 -13.589  -3.873  1.00  0.00     0.268 C 
HETATM   47  O   UNL     1     -19.015 -13.280  -5.013  1.00  0.00    -0.264 OA
BRANCH  46  48
HETATM   48  C   UNL     1     -18.088 -14.917  -3.462  1.00  0.00     0.086 C 
BRANCH  48  49
HETATM   49  C   UNL     1     -18.122 -15.087  -1.930  1.00  0.00     0.014 C 
BRANCH  49  50
HETATM   50  C   UNL     1     -17.506 -16.393  -1.406  1.00  0.00     0.001 C 
BRANCH  50  51
HETATM   51  C   UNL     1     -17.581 -16.536   0.112  1.00  0.00     0.000 C 
BRANCH  51  52
HETATM   52  C   UNL     1     -17.708 -15.195   0.838  1.00  0.00    -0.000 C 
BRANCH  52  53
HETATM   53  C   UNL     1     -17.225 -15.352   2.274  1.00  0.00    -0.005 C 
HETATM   54  C   UNL     1     -17.730 -16.629   2.892  1.00  0.00     0.005 C 
ENDBRANCH  52  53
ENDBRANCH  51  52
ENDBRANCH  50  51
ENDBRANCH  49  50
ENDBRANCH  48  49
BRANCH  48  55
HETATM   55  C   UNL     1     -18.655 -16.163  -4.183  1.00  0.00     0.014 C 
BRANCH  55  56
HETATM   56  C   UNL     1     -20.169 -16.490  -4.243  1.00  0.00     0.001 C 
BRANCH  56  57
HETATM   57  C   UNL     1     -20.926 -16.651  -5.593  1.00  0.00     0.000 C 
BRANCH  57  58
HETATM   58  C   UNL     1     -20.096 -16.666  -6.853  1.00  0.00     0.000 C 
BRANCH  58  59
HETATM   59  C   UNL     1     -18.516 -15.959  -7.694  1.00  0.00     0.000 C 
BRANCH  59  60
HETATM   60  C   UNL     1     -18.594 -14.552  -8.951  1.00  0.00    -0.000 C 
BRANCH  60  61
HETATM   61  C   UNL     1     -19.456 -13.431  -8.589  1.00  0.00    -0.005 C 
HETATM   62  C   UNL     1     -18.531 -12.259  -8.269  1.00  0.00     0.005 C 
ENDBRANCH  60  61
ENDBRANCH  59  60
ENDBRANCH  58  59
ENDBRANCH  57  58
ENDBRANCH  56  57
ENDBRANCH  55  56
ENDBRANCH  48  55
ENDBRANCH  46  48
ENDBRANCH  45  46
ENDBRANCH   2  45
BRANCH   3  63
HETATM   63  O   UNL     1     -15.904 -12.026  -2.254  1.00  0.00    -0.270 OA
BRANCH  63  64
HETATM   64  C   UNL     1     -15.872 -12.329  -0.896  1.00  0.00     0.268 C 
HETATM   65  O   UNL     1     -16.530 -11.843  -0.074  1.00  0.00    -0.264 OA
BRANCH  64  66
HETATM   66  C   UNL     1     -14.956 -13.579  -0.707  1.00  0.00     0.086 C 
BRANCH  66  67
HETATM   67  C   UNL     1     -13.994 -13.833  -1.874  1.00  0.00     0.014 C 
BRANCH  67  68
HETATM   68  C   UNL     1     -14.374 -14.965  -2.880  1.00  0.00     0.001 C 
BRANCH  68  69
HETATM   69  C   UNL     1     -13.284 -15.322  -3.878  1.00  0.00     0.000 C 
BRANCH  69  70
HETATM   70  C   UNL     1     -13.579 -14.900  -5.317  1.00  0.00    -0.000 C 
BRANCH  70  71
HETATM   71  C   UNL     1     -15.021 -15.234  -5.652  1.00  0.00    -0.005 C 
HETATM   72  C   UNL     1     -15.739 -14.073  -6.297  1.00  0.00     0.005 C 
ENDBRANCH  70  71
ENDBRANCH  69  70
ENDBRANCH  68  69
ENDBRANCH  67  68
ENDBRANCH  66  67
BRANCH  66  73
HETATM   73  C   UNL     1     -14.249 -13.553   0.664  1.00  0.00     0.014 C 
BRANCH  73  74
HETATM   74  C   UNL     1     -13.591 -14.841   1.277  1.00  0.00     0.001 C 
BRANCH  74  75
HETATM   75  C   UNL     1     -12.111 -15.297   0.922  1.00  0.00     0.000 C 
BRANCH  75  76
HETATM   76  C   UNL     1     -11.179 -14.126   0.694  1.00  0.00     0.000 C 
BRANCH  76  77
HETATM   77  C   UNL     1      -9.423 -13.449   1.171  1.00  0.00     0.000 C 
BRANCH  77  78
HETATM   78  C   UNL     1      -8.111 -14.498   2.048  1.00  0.00    -0.000 C 
BRANCH  78  79
HETATM   79  C   UNL     1      -8.602 -15.270   3.229  1.00  0.00    -0.005 C 
HETATM   80  C   UNL     1      -8.138 -14.558   4.494  1.00  0.00     0.005 C 
ENDBRANCH  78  79
ENDBRANCH  77  78
ENDBRANCH  76  77
ENDBRANCH  75  76
ENDBRANCH  74  75
ENDBRANCH  73  74
ENDBRANCH  66  73
ENDBRANCH  64  66
ENDBRANCH  63  64
ENDBRANCH   3  63
TORSDOF 62
ENDMDL
MODEL 9
REMARK VINA RESULT:      -6.1      2.068      8.393
REMARK WARNING: 32 MAX_TORS EXCEEDED!!!
REMARK  62 active torsions:
REMARK  status: ('A' for Active; 'I' for Inactive)
REMARK    1  A    between atoms: C_2  and  C_3 
REMARK    2  A    between atoms: C_3  and  C_4 
REMARK    3  A    between atoms: C_4  and  C_5 
REMARK    4  A    between atoms: C_5  and  C_6 
REMARK    5  A    between atoms: C_6  and  C_7 
REMARK    6  A    between atoms: C_7  and  C_8 
REMARK    7  A    between atoms: C_8  and  C_9 
REMARK    8  A    between atoms: C_9  and  C_10 
REMARK    9  A    between atoms: C_9  and  C_16 
REMARK   10  A    between atoms: C_10  and  C_11 
REMARK   11  A    between atoms: C_11  and  C_12 
REMARK   12  A    between atoms: C_12  and  C_13 
REMARK   13  A    between atoms: C_13  and  C_14 
REMARK   14  A    between atoms: C_16  and  O_18 
REMARK   15  A    between atoms: O_18  and  C_19 
REMARK   16  A    between atoms: C_19  and  C_20 
REMARK   17  A    between atoms: C_20  and  C_21 
REMARK   18  A    between atoms: C_20  and  O_63 
REMARK   19  A    between atoms: C_22  and  O_45 
REMARK   20  A    between atoms: C_23  and  O_27 
REMARK   21  A    between atoms: O_27  and  C_28 
REMARK   22  A    between atoms: C_28  and  C_30 
REMARK   23  A    between atoms: C_30  and  C_31 
REMARK   24  A    between atoms: C_30  and  C_37 
REMARK   25  A    between atoms: C_31  and  C_32 
REMARK   26  A    between atoms: C_32  and  C_33 
REMARK   27  A    between atoms: C_33  and  C_34 
REMARK   28  A    between atoms: C_34  and  C_35 
REMARK   29  A    between atoms: C_37  and  C_38 
REMARK   30  A    between atoms: C_38  and  C_39 
REMARK   31  A    between atoms: C_39  and  C_40 
REMARK   32  A    between atoms: C_40  and  C_41 
REMARK   33  A    between atoms: C_41  and  C_42 
REMARK   34  A    between atoms: C_42  and  C_43 
REMARK   35  A    between atoms: O_45  and  C_46 
REMARK   36  A    between atoms: C_46  and  C_48 
REMARK   37  A    between atoms: C_48  and  C_49 
REMARK   38  A    between atoms: C_48  and  C_55 
REMARK   39  A    between atoms: C_49  and  C_50 
REMARK   40  A    between atoms: C_50  and  C_51 
REMARK   41  A    between atoms: C_51  and  C_52 
REMARK   42  A    between atoms: C_52  and  C_53 
REMARK   43  A    between atoms: C_55  and  C_56 
REMARK   44  A    between atoms: C_56  and  C_57 
REMARK   45  A    between atoms: C_57  and  C_58 
REMARK   46  A    between atoms: C_58  and  C_59 
REMARK   47  A    between atoms: C_59  and  C_60 
REMARK   48  A    between atoms: C_60  and  C_61 
REMARK   49  A    between atoms: O_63  and  C_64 
REMARK   50  A    between atoms: C_64  and  C_66 
REMARK   51  A    between atoms: C_66  and  C_67 
REMARK   52  A    between atoms: C_66  and  C_73 
REMARK   53  A    between atoms: C_67  and  C_68 
REMARK   54  A    between atoms: C_68  and  C_69 
REMARK   55  A    between atoms: C_69  and  C_70 
REMARK   56  A    between atoms: C_70  and  C_71 
REMARK   57  A    between atoms: C_73  and  C_74 
REMARK   58  A    between atoms: C_74  and  C_75 
REMARK   59  A    between atoms: C_75  and  C_76 
REMARK   60  A    between atoms: C_76  and  C_77 
REMARK   61  A    between atoms: C_77  and  C_78 
REMARK   62  A    between atoms: C_78  and  C_79 
ROOT
HETATM    1  C   UNL     1     -19.682  -9.589  -2.290  1.00  0.00     0.224 C 
HETATM    2  C   UNL     1     -20.341  -9.561  -3.630  1.00  0.00     0.129 C 
HETATM    3  C   UNL     1     -20.767  -8.335  -3.923  1.00  0.00     0.186 C 
HETATM    4  C   UNL     1     -20.657  -7.544  -2.688  1.00  0.00     0.321 C 
HETATM    5  O   UNL     1     -21.070  -6.417  -2.523  1.00  0.00    -0.257 OA
HETATM    6  O   UNL     1     -20.088  -8.334  -1.718  1.00  0.00    -0.301 OA
ENDROOT
BRANCH   1   7
HETATM    7  C   UNL     1     -19.889 -10.724  -1.252  1.00  0.00     0.192 C 
BRANCH   7   8
HETATM    8  C   UNL     1     -20.992 -10.388  -0.216  1.00  0.00     0.214 C 
BRANCH   8   9
HETATM    9  O   UNL     1     -22.290 -10.068  -0.806  1.00  0.00    -0.319 OA
BRANCH   9  10
HETATM   10  C   UNL     1     -23.355 -10.796  -0.349  1.00  0.00     0.263 C 
HETATM   11  O   UNL     1     -24.339 -10.284   0.166  1.00  0.00    -0.265 OA
BRANCH  10  12
HETATM   12  C   UNL     1     -23.132 -12.319  -0.413  1.00  0.00     0.085 C 
BRANCH  12  13
HETATM   13  C   UNL     1     -23.400 -12.918   0.997  1.00  0.00     0.014 C 
BRANCH  13  14
HETATM   14  C   UNL     1     -22.218 -13.564   1.721  1.00  0.00     0.001 C 
BRANCH  14  15
HETATM   15  C   UNL     1     -22.545 -14.831   2.509  1.00  0.00     0.000 C 
BRANCH  15  16
HETATM   16  C   UNL     1     -23.911 -14.647   3.174  1.00  0.00     0.000 C 
BRANCH  16  17
HETATM   17  C   UNL     1     -23.995 -15.327   4.532  1.00  0.00     0.000 C 
BRANCH  17  18
HETATM   18  C   UNL     1     -25.419 -15.817   4.795  1.00  0.00    -0.000 C 
BRANCH  18  19
HETATM   19  C   UNL     1     -25.882 -15.399   6.187  1.00  0.00    -0.005 C 
HETATM   20  C   UNL     1     -26.961 -14.334   6.118  1.00  0.00     0.005 C 
ENDBRANCH  18  19
ENDBRANCH  17  18
ENDBRANCH  16  17
ENDBRANCH  15  16
ENDBRANCH  14  15
ENDBRANCH  13  14
ENDBRANCH  12  13
BRANCH  12  21
HETATM   21  C   UNL     1     -23.923 -13.043  -1.529  1.00  0.00     0.014 C 
BRANCH  21  22
HETATM   22  C   UNL     1     -23.812 -14.574  -1.499  1.00  0.00     0.001 C 
BRANCH  22  23
HETATM   23  C   UNL     1     -23.108 -15.226  -2.699  1.00  0.00     0.000 C 
BRANCH  23  24
HETATM   24  C   UNL     1     -24.053 -16.012  -3.611  1.00  0.00    -0.000 C 
BRANCH  24  25
HETATM   25  C   UNL     1     -24.035 -15.493  -5.049  1.00  0.00    -0.005 C 
HETATM   26  C   UNL     1     -23.159 -14.254  -5.165  1.00  0.00     0.005 C 
ENDBRANCH  24  25
ENDBRANCH  23  24
ENDBRANCH  22  23
ENDBRANCH  21  22
ENDBRANCH  12  21
ENDBRANCH  10  12
ENDBRANCH   9  10
ENDBRANCH   8   9
ENDBRANCH   7   8
BRANCH   7  27
HETATM   27  O   UNL     1     -18.636 -11.103  -0.612  1.00  0.00    -0.310 OA
BRANCH  27  28
HETATM   28  C   UNL     1     -18.370 -12.451  -0.614  1.00  0.00     0.263 C 
HETATM   29  O   UNL     1     -19.224 -13.321  -0.514  1.00  0.00    -0.265 OA
BRANCH  28  30
HETATM   30  C   UNL     1     -16.875 -12.741  -0.695  1.00  0.00     0.085 C 
BRANCH  30  31
HETATM   31  C   UNL     1     -16.184 -11.446  -1.156  1.00  0.00     0.014 C 
BRANCH  31  32
HETATM   32  C   UNL     1     -15.563 -11.550  -2.547  1.00  0.00     0.001 C 
BRANCH  32  33
HETATM   33  C   UNL     1     -15.157 -12.984  -2.870  1.00  0.00     0.000 C 
BRANCH  33  34
HETATM   34  C   UNL     1     -13.714 -13.007  -3.363  1.00  0.00    -0.000 C 
BRANCH  34  35
HETATM   35  C   UNL     1     -13.498 -12.007  -4.491  1.00  0.00    -0.005 C 
HETATM   36  C   UNL     1     -13.782 -12.653  -5.836  1.00  0.00     0.005 C 
ENDBRANCH  34  35
ENDBRANCH  33  34
ENDBRANCH  32  33
ENDBRANCH  31  32
ENDBRANCH  30  31
BRANCH  30  37
HETATM   37  C   UNL     1     -16.319 -13.197   0.674  1.00  0.00     0.014 C 
BRANCH  37  38
HETATM   38  C   UNL     1     -14.826 -12.943   0.857  1.00  0.00     0.001 C 
BRANCH  38  39
HETATM   39  C   UNL     1     -14.009 -14.100   0.278  1.00  0.00     0.000 C 
BRANCH  39  40
HETATM   40  C   UNL     1     -12.803 -14.398   1.163  1.00  0.00     0.000 C 
BRANCH  40  41
HETATM   41  C   UNL     1     -11.495 -14.170   0.413  1.00  0.00     0.000 C 
BRANCH  41  42
HETATM   42  C   UNL     1     -10.578 -13.236   1.199  1.00  0.00    -0.000 C 
BRANCH  42  43
HETATM   43  C   UNL     1      -9.326 -13.967   1.673  1.00  0.00    -0.005 C 
HETATM   44  C   UNL     1      -9.107 -13.770   3.163  1.00  0.00     0.005 C 
ENDBRANCH  42  43
ENDBRANCH  41  42
ENDBRANCH  40  41
ENDBRANCH  39  40
ENDBRANCH  38  39
ENDBRANCH  37  38
ENDBRANCH  30  37
ENDBRANCH  28  30
ENDBRANCH  27  28
ENDBRANCH   7  27
ENDBRANCH   1   7
BRANCH   2  45
HETATM   45  O   UNL     1     -20.215 -10.636  -4.513  1.00  0.00    -0.277 OA
BRANCH  45  46
HETATM   46  C   UNL     1     -18.931 -11.039  -4.823  1.00  0.00     0.268 C 
HETATM   47  O   UNL     1     -17.957 -10.305  -4.874  1.00  0.00    -0.264 OA
BRANCH  46  48
HETATM   48  C   UNL     1     -18.907 -12.544  -5.041  1.00  0.00     0.086 C 
BRANCH  48  49
HETATM   49  C   UNL     1     -17.461 -13.048  -5.228  1.00  0.00     0.014 C 
BRANCH  49  50
HETATM   50  C   UNL     1     -17.259 -14.028  -6.393  1.00  0.00     0.001 C 
BRANCH  50  51
HETATM   51  C   UNL     1     -17.203 -13.347  -7.758  1.00  0.00     0.000 C 
BRANCH  51  52
HETATM   52  C   UNL     1     -18.159 -13.966  -8.780  1.00  0.00    -0.000 C 
BRANCH  52  53
HETATM   53  C   UNL     1     -19.359 -13.047  -8.967  1.00  0.00    -0.005 C 
HETATM   54  C   UNL     1     -20.466 -13.376  -8.000  1.00  0.00     0.005 C 
ENDBRANCH  52  53
ENDBRANCH  51  52
ENDBRANCH  50  51
ENDBRANCH  49  50
ENDBRANCH  48  49
BRANCH  48  55
HETATM   55  C   UNL     1     -19.666 -13.380  -3.984  1.00  0.00     0.014 C 
BRANCH  55  56
HETATM   56  C   UNL     1     -19.636 -14.929  -3.948  1.00  0.00     0.001 C 
BRANCH  56  57
HETATM   57  C   UNL     1     -18.958 -15.714  -2.788  1.00  0.00     0.000 C 
BRANCH  57  58
HETATM   58  C   UNL     1     -17.454 -15.818  -2.809  1.00  0.00     0.000 C 
BRANCH  58  59
HETATM   59  C   UNL     1     -15.972 -17.009  -3.109  1.00  0.00     0.000 C 
BRANCH  59  60
HETATM   60  C   UNL     1     -14.548 -16.566  -4.268  1.00  0.00    -0.000 C 
BRANCH  60  61
HETATM   61  C   UNL     1     -14.633 -17.127  -5.613  1.00  0.00    -0.005 C 
HETATM   62  C   UNL     1     -13.872 -16.172  -6.529  1.00  0.00     0.005 C 
ENDBRANCH  60  61
ENDBRANCH  59  60
ENDBRANCH  58  59
ENDBRANCH  57  58
ENDBRANCH  56  57
ENDBRANCH  55  56
ENDBRANCH  48  55
ENDBRANCH  46  48
ENDBRANCH  45  46
ENDBRANCH   2  45
BRANCH   3  63
HETATM   63  O   UNL     1     -21.267  -7.844  -5.136  1.00  0.00    -0.270 OA
BRANCH  63  64
HETATM   64  C   UNL     1     -20.295  -7.212  -5.907  1.00  0.00     0.268 C 
HETATM   65  O   UNL     1     -19.274  -7.663  -6.220  1.00  0.00    -0.264 OA
BRANCH  64  66
HETATM   66  C   UNL     1     -20.907  -5.883  -6.452  1.00  0.00     0.086 C 
BRANCH  66  67
HETATM   67  C   UNL     1     -22.193  -5.447  -5.739  1.00  0.00     0.014 C 
BRANCH  67  68
HETATM   68  C   UNL     1     -23.420  -5.089  -6.635  1.00  0.00     0.001 C 
BRANCH  68  69
HETATM   69  C   UNL     1     -23.091  -4.256  -7.864  1.00  0.00     0.000 C 
BRANCH  69  70
HETATM   70  C   UNL     1     -23.237  -5.000  -9.191  1.00  0.00    -0.000 C 
BRANCH  70  71
HETATM   71  C   UNL     1     -24.536  -4.586  -9.857  1.00  0.00    -0.005 C 
HETATM   72  C   UNL     1     -24.864  -3.133  -9.609  1.00  0.00     0.005 C 
ENDBRANCH  70  71
ENDBRANCH  69  70
ENDBRANCH  68  69
ENDBRANCH  67  68
ENDBRANCH  66  67
BRANCH  66  73
HETATM   73  C   UNL     1     -19.846  -4.765  -6.522  1.00  0.00     0.014 C 
BRANCH  73  74
HETATM   74  C   UNL     1     -19.303  -4.229  -7.894  1.00  0.00     0.001 C 
BRANCH  74  75
HETATM   75  C   UNL     1     -19.607  -4.950  -9.276  1.00  0.00     0.000 C 
BRANCH  75  76
HETATM   76  C   UNL     1     -20.235  -4.021 -10.293  1.00  0.00     0.000 C 
BRANCH  76  77
HETATM   77  C   UNL     1     -21.386  -4.012 -11.856  1.00  0.00     0.000 C 
BRANCH  77  78
HETATM   78  C   UNL     1     -22.536  -2.570 -12.288  1.00  0.00    -0.000 C 
BRANCH  78  79
HETATM   79  C   UNL     1     -23.604  -2.886 -13.284  1.00  0.00    -0.005 C 
HETATM   80  C   UNL     1     -23.120  -2.448 -14.662  1.00  0.00     0.005 C 
ENDBRANCH  78  79
ENDBRANCH  77  78
ENDBRANCH  76  77
ENDBRANCH  75  76
ENDBRANCH  74  75
ENDBRANCH  73  74
ENDBRANCH  66  73
ENDBRANCH  64  66
ENDBRANCH  63  64
ENDBRANCH   3  63
TORSDOF 62
ENDMDL
