MODEL 1
REMARK VINA RESULT:      -9.0      0.000      0.000
REMARK  8 active torsions:
REMARK  status: ('A' for Active; 'I' for Inactive)
REMARK    1  A    between atoms: C_2  and  C_3 
REMARK    2  A    between atoms: C_3  and  O_5 
REMARK    3  A    between atoms: O_5  and  C_6 
REMARK    4  A    between atoms: C_6  and  C_7 
REMARK    5  A    between atoms: C_8  and  C_10 
REMARK    6  A    between atoms: C_11  and  C_12 
REMARK    7  A    between atoms: C_13  and  C_15 
REMARK    8  A    between atoms: C_16  and  C_17 
ROOT
HETATM    1  C   UNL     1     -22.051  -6.018  -5.600  1.00  0.00     0.007 C 
HETATM    2  C   UNL     1     -21.192  -5.115  -6.134  1.00  0.00    -0.062 C 
HETATM    3  C   UNL     1     -19.872  -4.720  -5.502  1.00  0.00     0.048 C 
ENDROOT
BRANCH   2   4
HETATM    4  C   UNL     1     -21.528  -4.430  -7.394  1.00  0.00     0.007 C 
HETATM    5  C   UNL     1     -21.931  -5.031  -8.532  1.00  0.00     0.009 C 
BRANCH   5   6
HETATM    6  C   UNL     1     -22.211  -4.352  -9.798  1.00  0.00    -0.048 C 
HETATM    7  C   UNL     1     -21.214  -3.963 -10.632  1.00  0.00    -0.077 C 
HETATM    8  C   UNL     1     -21.471  -3.198 -11.913  1.00  0.00     0.034 C 
HETATM    9  C   UNL     1     -19.746  -4.264 -10.434  1.00  0.00     0.044 C 
HETATM   10  C   UNL     1     -22.887  -2.658 -12.049  1.00  0.00     0.005 C 
HETATM   11  C   UNL     1     -23.887  -3.727 -11.645  1.00  0.00     0.014 C 
HETATM   12  C   UNL     1     -23.709  -4.173 -10.165  1.00  0.00    -0.020 C 
HETATM   13  C   UNL     1     -24.520  -5.484 -10.022  1.00  0.00     0.020 C 
HETATM   14  C   UNL     1     -24.345  -3.113  -9.240  1.00  0.00     0.020 C 
ENDBRANCH   5   6
ENDBRANCH   2   4
BRANCH   1  15
HETATM   15  C   UNL     1     -21.830  -6.750  -4.364  1.00  0.00     0.001 C 
HETATM   16  C   UNL     1     -21.760  -6.251  -3.120  1.00  0.00     0.006 C 
BRANCH  16  17
HETATM   17  C   UNL     1     -21.550  -7.079  -1.920  1.00  0.00    -0.064 C 
HETATM   18  C   UNL     1     -22.428  -7.039  -0.896  1.00  0.00     0.006 C 
HETATM   19  C   UNL     1     -20.336  -7.980  -1.890  1.00  0.00     0.048 C 
BRANCH  18  20
HETATM   20  C   UNL     1     -22.349  -7.846   0.373  1.00  0.00     0.206 C 
BRANCH  20  21
HETATM   21  O   UNL     1     -23.293  -8.928   0.345  1.00  0.00    -0.318 OA
BRANCH  21  22
HETATM   22  C   UNL     1     -22.760 -10.149   0.060  1.00  0.00     0.258 C 
HETATM   23  O   UNL     1     -21.674 -10.548   0.456  1.00  0.00    -0.265 OA
BRANCH  22  24
HETATM   24  C   UNL     1     -23.702 -10.921  -0.826  1.00  0.00     0.106 C 
HETATM   25  C   UNL     1     -23.121 -11.087  -2.220  1.00  0.00     0.015 C 
ENDBRANCH  22  24
ENDBRANCH  21  22
ENDBRANCH  20  21
ENDBRANCH  18  20
ENDBRANCH  16  17
ENDBRANCH   1  15
TORSDOF 8
ENDMDL
MODEL 2
REMARK VINA RESULT:      -8.3      4.140     10.377
REMARK  8 active torsions:
REMARK  status: ('A' for Active; 'I' for Inactive)
REMARK    1  A    between atoms: C_2  and  C_3 
REMARK    2  A    between atoms: C_3  and  O_5 
REMARK    3  A    between atoms: O_5  and  C_6 
REMARK    4  A    between atoms: C_6  and  C_7 
REMARK    5  A    between atoms: C_8  and  C_10 
REMARK    6  A    between atoms: C_11  and  C_12 
REMARK    7  A    between atoms: C_13  and  C_15 
REMARK    8  A    between atoms: C_16  and  C_17 
ROOT
HETATM    1  C   UNL     1     -21.217  -7.575  -5.465  1.00  0.00     0.007 C 
HETATM    2  C   UNL     1     -21.372  -7.449  -4.125  1.00  0.00    -0.062 C 
HETATM    3  C   UNL     1     -21.680  -6.141  -3.423  1.00  0.00     0.048 C 
ENDROOT
BRANCH   2   4
HETATM    4  C   UNL     1     -21.218  -8.624  -3.249  1.00  0.00     0.007 C 
HETATM    5  C   UNL     1     -20.609  -8.633  -2.045  1.00  0.00     0.009 C 
BRANCH   5   6
HETATM    6  C   UNL     1     -20.410  -9.814  -1.203  1.00  0.00    -0.048 C 
HETATM    7  C   UNL     1     -19.447 -10.729  -1.479  1.00  0.00    -0.077 C 
HETATM    8  C   UNL     1     -19.264 -11.994  -0.667  1.00  0.00     0.034 C 
HETATM    9  C   UNL     1     -18.417 -10.605  -2.578  1.00  0.00     0.044 C 
HETATM   10  C   UNL     1     -20.406 -12.294   0.293  1.00  0.00     0.005 C 
HETATM   11  C   UNL     1     -20.810 -11.028   1.027  1.00  0.00     0.014 C 
HETATM   12  C   UNL     1     -21.308  -9.917   0.059  1.00  0.00    -0.020 C 
HETATM   13  C   UNL     1     -21.323  -8.611   0.890  1.00  0.00     0.020 C 
HETATM   14  C   UNL     1     -22.759 -10.232  -0.364  1.00  0.00     0.020 C 
ENDBRANCH   5   6
ENDBRANCH   2   4
BRANCH   1  15
HETATM   15  C   UNL     1     -21.339  -6.490  -6.425  1.00  0.00     0.001 C 
HETATM   16  C   UNL     1     -20.347  -5.826  -7.040  1.00  0.00     0.006 C 
BRANCH  16  17
HETATM   17  C   UNL     1     -20.570  -4.747  -8.016  1.00  0.00    -0.064 C 
HETATM   18  C   UNL     1     -20.229  -4.912  -9.311  1.00  0.00     0.006 C 
HETATM   19  C   UNL     1     -21.207  -3.468  -7.519  1.00  0.00     0.048 C 
BRANCH  18  20
HETATM   20  C   UNL     1     -20.424  -3.906 -10.415  1.00  0.00     0.206 C 
BRANCH  20  21
HETATM   21  O   UNL     1     -21.413  -4.363 -11.349  1.00  0.00    -0.318 OA
BRANCH  21  22
HETATM   22  C   UNL     1     -22.569  -3.642 -11.361  1.00  0.00     0.258 C 
HETATM   23  O   UNL     1     -22.707  -2.549 -11.892  1.00  0.00    -0.265 OA
BRANCH  22  24
HETATM   24  C   UNL     1     -23.641  -4.387 -10.610  1.00  0.00     0.106 C 
HETATM   25  C   UNL     1     -24.299  -3.489  -9.575  1.00  0.00     0.015 C 
ENDBRANCH  22  24
ENDBRANCH  21  22
ENDBRANCH  20  21
ENDBRANCH  18  20
ENDBRANCH  16  17
ENDBRANCH   1  15
TORSDOF 8
ENDMDL
MODEL 3
REMARK VINA RESULT:      -7.5     15.812     17.238
REMARK  8 active torsions:
REMARK  status: ('A' for Active; 'I' for Inactive)
REMARK    1  A    between atoms: C_2  and  C_3 
REMARK    2  A    between atoms: C_3  and  O_5 
REMARK    3  A    between atoms: O_5  and  C_6 
REMARK    4  A    between atoms: C_6  and  C_7 
REMARK    5  A    between atoms: C_8  and  C_10 
REMARK    6  A    between atoms: C_11  and  C_12 
REMARK    7  A    between atoms: C_13  and  C_15 
REMARK    8  A    between atoms: C_16  and  C_17 
ROOT
HETATM    1  C   UNL     1     -21.775   8.820   1.597  1.00  0.00     0.007 C 
HETATM    2  C   UNL     1     -23.102   8.950   1.353  1.00  0.00    -0.062 C 
HETATM    3  C   UNL     1     -24.107   9.461   2.366  1.00  0.00     0.048 C 
ENDROOT
BRANCH   2   4
HETATM    4  C   UNL     1     -23.654   8.563   0.043  1.00  0.00     0.007 C 
HETATM    5  C   UNL     1     -24.856   7.987  -0.164  1.00  0.00     0.009 C 
BRANCH   5   6
HETATM    6  C   UNL     1     -25.378   7.553  -1.461  1.00  0.00    -0.048 C 
HETATM    7  C   UNL     1     -24.873   6.471  -2.105  1.00  0.00    -0.077 C 
HETATM    8  C   UNL     1     -25.346   6.041  -3.477  1.00  0.00     0.034 C 
HETATM    9  C   UNL     1     -23.827   5.535  -1.545  1.00  0.00     0.044 C 
HETATM   10  C   UNL     1     -26.215   7.066  -4.191  1.00  0.00     0.005 C 
HETATM   11  C   UNL     1     -27.244   7.631  -3.227  1.00  0.00     0.014 C 
HETATM   12  C   UNL     1     -26.586   8.354  -2.018  1.00  0.00    -0.020 C 
HETATM   13  C   UNL     1     -27.714   8.536  -0.973  1.00  0.00     0.020 C 
HETATM   14  C   UNL     1     -26.116   9.755  -2.465  1.00  0.00     0.020 C 
ENDBRANCH   5   6
ENDBRANCH   2   4
BRANCH   1  15
HETATM   15  C   UNL     1     -21.119   9.163   2.848  1.00  0.00     0.001 C 
HETATM   16  C   UNL     1     -20.241   8.420   3.541  1.00  0.00     0.006 C 
BRANCH  16  17
HETATM   17  C   UNL     1     -19.612   8.862   4.797  1.00  0.00    -0.064 C 
HETATM   18  C   UNL     1     -18.286   9.102   4.853  1.00  0.00     0.006 C 
HETATM   19  C   UNL     1     -20.505   9.053   6.003  1.00  0.00     0.048 C 
BRANCH  18  20
HETATM   20  C   UNL     1     -17.519   9.579   6.058  1.00  0.00     0.206 C 
BRANCH  20  21
HETATM   21  O   UNL     1     -16.216  10.046   5.679  1.00  0.00    -0.318 OA
BRANCH  21  22
HETATM   22  C   UNL     1     -15.189   9.214   6.008  1.00  0.00     0.258 C 
HETATM   23  O   UNL     1     -15.043   8.680   7.099  1.00  0.00    -0.265 OA
BRANCH  22  24
HETATM   24  C   UNL     1     -14.258   9.065   4.834  1.00  0.00     0.106 C 
HETATM   25  C   UNL     1     -14.722   7.949   3.914  1.00  0.00     0.015 C 
ENDBRANCH  22  24
ENDBRANCH  21  22
ENDBRANCH  20  21
ENDBRANCH  18  20
ENDBRANCH  16  17
ENDBRANCH   1  15
TORSDOF 8
ENDMDL
MODEL 4
REMARK VINA RESULT:      -7.3      3.994     10.532
REMARK  8 active torsions:
REMARK  status: ('A' for Active; 'I' for Inactive)
REMARK    1  A    between atoms: C_2  and  C_3 
REMARK    2  A    between atoms: C_3  and  O_5 
REMARK    3  A    between atoms: O_5  and  C_6 
REMARK    4  A    between atoms: C_6  and  C_7 
REMARK    5  A    between atoms: C_8  and  C_10 
REMARK    6  A    between atoms: C_11  and  C_12 
REMARK    7  A    between atoms: C_13  and  C_15 
REMARK    8  A    between atoms: C_16  and  C_17 
ROOT
HETATM    1  C   UNL     1     -20.472  -7.223  -5.383  1.00  0.00     0.007 C 
HETATM    2  C   UNL     1     -21.197  -7.297  -4.241  1.00  0.00    -0.062 C 
HETATM    3  C   UNL     1     -22.479  -6.527  -3.996  1.00  0.00     0.048 C 
ENDROOT
BRANCH   2   4
HETATM    4  C   UNL     1     -20.740  -8.148  -3.128  1.00  0.00     0.007 C 
HETATM    5  C   UNL     1     -21.494  -9.051  -2.469  1.00  0.00     0.009 C 
BRANCH   5   6
HETATM    6  C   UNL     1     -21.052  -9.856  -1.328  1.00  0.00    -0.048 C 
HETATM    7  C   UNL     1     -21.190  -9.415  -0.052  1.00  0.00    -0.077 C 
HETATM    8  C   UNL     1     -20.680 -10.195   1.142  1.00  0.00     0.034 C 
HETATM    9  C   UNL     1     -21.892  -8.142   0.358  1.00  0.00     0.044 C 
HETATM   10  C   UNL     1     -19.761 -11.355   0.787  1.00  0.00     0.005 C 
HETATM   11  C   UNL     1     -20.342 -12.136  -0.378  1.00  0.00     0.014 C 
HETATM   12  C   UNL     1     -20.490 -11.265  -1.658  1.00  0.00    -0.020 C 
HETATM   13  C   UNL     1     -21.412 -12.068  -2.608  1.00  0.00     0.020 C 
HETATM   14  C   UNL     1     -19.110 -11.126  -2.334  1.00  0.00     0.020 C 
ENDBRANCH   5   6
ENDBRANCH   2   4
BRANCH   1  15
HETATM   15  C   UNL     1     -20.819  -6.417  -6.542  1.00  0.00     0.001 C 
HETATM   16  C   UNL     1     -20.828  -5.078  -6.633  1.00  0.00     0.006 C 
BRANCH  16  17
HETATM   17  C   UNL     1     -21.178  -4.347  -7.862  1.00  0.00    -0.064 C 
HETATM   18  C   UNL     1     -22.470  -4.153  -8.200  1.00  0.00     0.006 C 
HETATM   19  C   UNL     1     -20.047  -3.813  -8.711  1.00  0.00     0.048 C 
BRANCH  18  20
HETATM   20  C   UNL     1     -22.969  -3.406  -9.409  1.00  0.00     0.206 C 
BRANCH  20  21
HETATM   21  O   UNL     1     -23.027  -4.272 -10.553  1.00  0.00    -0.318 OA
BRANCH  21  22
HETATM   22  C   UNL     1     -22.352  -3.825 -11.648  1.00  0.00     0.258 C 
HETATM   23  O   UNL     1     -21.262  -4.239 -12.015  1.00  0.00    -0.265 OA
BRANCH  22  24
HETATM   24  C   UNL     1     -23.144  -2.738 -12.325  1.00  0.00     0.106 C 
HETATM   25  C   UNL     1     -23.021  -2.840 -13.836  1.00  0.00     0.015 C 
ENDBRANCH  22  24
ENDBRANCH  21  22
ENDBRANCH  20  21
ENDBRANCH  18  20
ENDBRANCH  16  17
ENDBRANCH   1  15
TORSDOF 8
ENDMDL
MODEL 5
REMARK VINA RESULT:      -7.3     15.808     17.316
REMARK  8 active torsions:
REMARK  status: ('A' for Active; 'I' for Inactive)
REMARK    1  A    between atoms: C_2  and  C_3 
REMARK    2  A    between atoms: C_3  and  O_5 
REMARK    3  A    between atoms: O_5  and  C_6 
REMARK    4  A    between atoms: C_6  and  C_7 
REMARK    5  A    between atoms: C_8  and  C_10 
REMARK    6  A    between atoms: C_11  and  C_12 
REMARK    7  A    between atoms: C_13  and  C_15 
REMARK    8  A    between atoms: C_16  and  C_17 
ROOT
HETATM    1  C   UNL     1     -22.219   9.022   1.745  1.00  0.00     0.007 C 
HETATM    2  C   UNL     1     -23.547   9.263   1.615  1.00  0.00    -0.062 C 
HETATM    3  C   UNL     1     -24.440   9.734   2.745  1.00  0.00     0.048 C 
ENDROOT
BRANCH   2   4
HETATM    4  C   UNL     1     -24.214   9.048   0.319  1.00  0.00     0.007 C 
HETATM    5  C   UNL     1     -24.700   7.871  -0.128  1.00  0.00     0.009 C 
BRANCH   5   6
HETATM    6  C   UNL     1     -25.312   7.650  -1.440  1.00  0.00    -0.048 C 
HETATM    7  C   UNL     1     -26.563   8.091  -1.723  1.00  0.00    -0.077 C 
HETATM    8  C   UNL     1     -27.247   7.817  -3.046  1.00  0.00     0.034 C 
HETATM    9  C   UNL     1     -27.418   8.935  -0.806  1.00  0.00     0.044 C 
HETATM   10  C   UNL     1     -26.546   6.780  -3.912  1.00  0.00     0.005 C 
HETATM   11  C   UNL     1     -25.051   7.046  -3.924  1.00  0.00     0.014 C 
HETATM   12  C   UNL     1     -24.423   6.953  -2.505  1.00  0.00    -0.020 C 
HETATM   13  C   UNL     1     -23.019   7.596  -2.624  1.00  0.00     0.020 C 
HETATM   14  C   UNL     1     -24.238   5.467  -2.132  1.00  0.00     0.020 C 
ENDBRANCH   5   6
ENDBRANCH   2   4
BRANCH   1  15
HETATM   15  C   UNL     1     -21.456   9.193   2.970  1.00  0.00     0.001 C 
HETATM   16  C   UNL     1     -20.242   8.695   3.253  1.00  0.00     0.006 C 
BRANCH  16  17
HETATM   17  C   UNL     1     -19.536   8.939   4.522  1.00  0.00    -0.064 C 
HETATM   18  C   UNL     1     -18.197   9.096   4.544  1.00  0.00     0.006 C 
HETATM   19  C   UNL     1     -20.366   9.023   5.784  1.00  0.00     0.048 C 
BRANCH  18  20
HETATM   20  C   UNL     1     -17.355   9.374   5.761  1.00  0.00     0.206 C 
BRANCH  20  21
HETATM   21  O   UNL     1     -16.064   9.873   5.382  1.00  0.00    -0.318 OA
BRANCH  21  22
HETATM   22  C   UNL     1     -15.007   9.147   5.843  1.00  0.00     0.258 C 
HETATM   23  O   UNL     1     -14.903   8.708   6.979  1.00  0.00    -0.265 OA
BRANCH  22  24
HETATM   24  C   UNL     1     -13.987   8.982   4.748  1.00  0.00     0.106 C 
HETATM   25  C   UNL     1     -14.500   8.045   3.668  1.00  0.00     0.015 C 
ENDBRANCH  22  24
ENDBRANCH  21  22
ENDBRANCH  20  21
ENDBRANCH  18  20
ENDBRANCH  16  17
ENDBRANCH   1  15
TORSDOF 8
ENDMDL
MODEL 6
REMARK VINA RESULT:      -7.3      4.814      8.651
REMARK  8 active torsions:
REMARK  status: ('A' for Active; 'I' for Inactive)
REMARK    1  A    between atoms: C_2  and  C_3 
REMARK    2  A    between atoms: C_3  and  O_5 
REMARK    3  A    between atoms: O_5  and  C_6 
REMARK    4  A    between atoms: C_6  and  C_7 
REMARK    5  A    between atoms: C_8  and  C_10 
REMARK    6  A    between atoms: C_11  and  C_12 
REMARK    7  A    between atoms: C_13  and  C_15 
REMARK    8  A    between atoms: C_16  and  C_17 
ROOT
HETATM    1  C   UNL     1     -23.195 -11.747  -0.067  1.00  0.00     0.007 C 
HETATM    2  C   UNL     1     -22.165 -10.881  -0.230  1.00  0.00    -0.062 C 
HETATM    3  C   UNL     1     -21.049 -10.688   0.777  1.00  0.00     0.048 C 
ENDROOT
BRANCH   2   4
HETATM    4  C   UNL     1     -22.094 -10.035  -1.434  1.00  0.00     0.007 C 
HETATM    5  C   UNL     1     -21.095  -9.180  -1.736  1.00  0.00     0.009 C 
BRANCH   5   6
HETATM    6  C   UNL     1     -21.054  -8.300  -2.906  1.00  0.00    -0.048 C 
HETATM    7  C   UNL     1     -21.594  -7.056  -2.879  1.00  0.00    -0.077 C 
HETATM    8  C   UNL     1     -21.628  -6.153  -4.093  1.00  0.00     0.034 C 
HETATM    9  C   UNL     1     -22.185  -6.389  -1.658  1.00  0.00     0.044 C 
HETATM   10  C   UNL     1     -21.271  -6.845  -5.401  1.00  0.00     0.005 C 
HETATM   11  C   UNL     1     -20.050  -7.726  -5.201  1.00  0.00     0.014 C 
HETATM   12  C   UNL     1     -20.294  -8.843  -4.146  1.00  0.00    -0.020 C 
HETATM   13  C   UNL     1     -18.893  -9.398  -3.792  1.00  0.00     0.020 C 
HETATM   14  C   UNL     1     -21.110  -9.980  -4.797  1.00  0.00     0.020 C 
ENDBRANCH   5   6
ENDBRANCH   2   4
BRANCH   1  15
HETATM   15  C   UNL     1     -23.374 -12.626   1.076  1.00  0.00     0.001 C 
HETATM   16  C   UNL     1     -22.671 -13.729   1.378  1.00  0.00     0.006 C 
BRANCH  16  17
HETATM   17  C   UNL     1     -22.916 -14.549   2.575  1.00  0.00    -0.064 C 
HETATM   18  C   UNL     1     -24.158 -14.658   3.090  1.00  0.00     0.006 C 
HETATM   19  C   UNL     1     -21.737 -15.272   3.188  1.00  0.00     0.048 C 
BRANCH  18  20
HETATM   20  C   UNL     1     -24.554 -15.479   4.289  1.00  0.00     0.206 C 
BRANCH  20  21
HETATM   21  O   UNL     1     -25.623 -14.846   5.008  1.00  0.00    -0.318 OA
BRANCH  21  22
HETATM   22  C   UNL     1     -26.715 -15.630   5.224  1.00  0.00     0.258 C 
HETATM   23  O   UNL     1     -26.825 -16.792   4.860  1.00  0.00    -0.265 OA
BRANCH  22  24
HETATM   24  C   UNL     1     -27.768 -14.846   5.961  1.00  0.00     0.106 C 
HETATM   25  C   UNL     1     -29.160 -15.231   5.489  1.00  0.00     0.015 C 
ENDBRANCH  22  24
ENDBRANCH  21  22
ENDBRANCH  20  21
ENDBRANCH  18  20
ENDBRANCH  16  17
ENDBRANCH   1  15
TORSDOF 8
ENDMDL
MODEL 7
REMARK VINA RESULT:      -7.3      4.440     10.299
REMARK  8 active torsions:
REMARK  status: ('A' for Active; 'I' for Inactive)
REMARK    1  A    between atoms: C_2  and  C_3 
REMARK    2  A    between atoms: C_3  and  O_5 
REMARK    3  A    between atoms: O_5  and  C_6 
REMARK    4  A    between atoms: C_6  and  C_7 
REMARK    5  A    between atoms: C_8  and  C_10 
REMARK    6  A    between atoms: C_11  and  C_12 
REMARK    7  A    between atoms: C_13  and  C_15 
REMARK    8  A    between atoms: C_16  and  C_17 
ROOT
HETATM    1  C   UNL     1     -20.098  -7.153  -5.628  1.00  0.00     0.007 C 
HETATM    2  C   UNL     1     -20.441  -7.715  -4.444  1.00  0.00    -0.062 C 
HETATM    3  C   UNL     1     -21.505  -7.162  -3.517  1.00  0.00     0.048 C 
ENDROOT
BRANCH   2   4
HETATM    4  C   UNL     1     -19.750  -8.927  -3.973  1.00  0.00     0.007 C 
HETATM    5  C   UNL     1     -19.243  -9.113  -2.736  1.00  0.00     0.009 C 
BRANCH   5   6
HETATM    6  C   UNL     1     -18.508 -10.298  -2.289  1.00  0.00    -0.048 C 
HETATM    7  C   UNL     1     -17.167 -10.409  -2.460  1.00  0.00    -0.077 C 
HETATM    8  C   UNL     1     -16.392 -11.650  -2.070  1.00  0.00     0.034 C 
HETATM    9  C   UNL     1     -16.266  -9.325  -3.007  1.00  0.00     0.044 C 
HETATM   10  C   UNL     1     -17.262 -12.855  -1.741  1.00  0.00     0.005 C 
HETATM   11  C   UNL     1     -18.419 -12.429  -0.854  1.00  0.00     0.014 C 
HETATM   12  C   UNL     1     -19.337 -11.379  -1.544  1.00  0.00    -0.020 C 
HETATM   13  C   UNL     1     -20.217 -10.786  -0.417  1.00  0.00     0.020 C 
HETATM   14  C   UNL     1     -20.263 -12.102  -2.545  1.00  0.00     0.020 C 
ENDBRANCH   5   6
ENDBRANCH   2   4
BRANCH   1  15
HETATM   15  C   UNL     1     -20.704  -5.958  -6.192  1.00  0.00     0.001 C 
HETATM   16  C   UNL     1     -21.431  -5.863  -7.317  1.00  0.00     0.006 C 
BRANCH  16  17
HETATM   17  C   UNL     1     -22.022  -4.604  -7.801  1.00  0.00    -0.064 C 
HETATM   18  C   UNL     1     -23.138  -4.617  -8.558  1.00  0.00     0.006 C 
HETATM   19  C   UNL     1     -21.345  -3.310  -7.405  1.00  0.00     0.048 C 
BRANCH  18  20
HETATM   20  C   UNL     1     -23.859  -3.409  -9.098  1.00  0.00     0.206 C 
BRANCH  20  21
HETATM   21  O   UNL     1     -24.477  -3.708 -10.359  1.00  0.00    -0.318 OA
BRANCH  21  22
HETATM   22  C   UNL     1     -23.615  -4.057 -11.354  1.00  0.00     0.258 C 
HETATM   23  O   UNL     1     -23.579  -5.153 -11.896  1.00  0.00    -0.265 OA
BRANCH  22  24
HETATM   24  C   UNL     1     -22.706  -2.899 -11.670  1.00  0.00     0.106 C 
HETATM   25  C   UNL     1     -21.250  -3.283 -11.469  1.00  0.00     0.015 C 
ENDBRANCH  22  24
ENDBRANCH  21  22
ENDBRANCH  20  21
ENDBRANCH  18  20
ENDBRANCH  16  17
ENDBRANCH   1  15
TORSDOF 8
ENDMDL
MODEL 8
REMARK VINA RESULT:      -7.1     16.940     19.568
REMARK  8 active torsions:
REMARK  status: ('A' for Active; 'I' for Inactive)
REMARK    1  A    between atoms: C_2  and  C_3 
REMARK    2  A    between atoms: C_3  and  O_5 
REMARK    3  A    between atoms: O_5  and  C_6 
REMARK    4  A    between atoms: C_6  and  C_7 
REMARK    5  A    between atoms: C_8  and  C_10 
REMARK    6  A    between atoms: C_11  and  C_12 
REMARK    7  A    between atoms: C_13  and  C_15 
REMARK    8  A    between atoms: C_16  and  C_17 
ROOT
HETATM    1  C   UNL     1     -20.436   9.341   2.977  1.00  0.00     0.007 C 
HETATM    2  C   UNL     1     -19.217   9.874   2.719  1.00  0.00    -0.062 C 
HETATM    3  C   UNL     1     -18.921  10.794   1.551  1.00  0.00     0.048 C 
ENDROOT
BRANCH   2   4
HETATM    4  C   UNL     1     -18.069   9.551   3.585  1.00  0.00     0.007 C 
HETATM    5  C   UNL     1     -16.976  10.321   3.761  1.00  0.00     0.009 C 
BRANCH   5   6
HETATM    6  C   UNL     1     -15.814   9.971   4.580  1.00  0.00    -0.048 C 
HETATM    7  C   UNL     1     -14.733   9.348   4.049  1.00  0.00    -0.077 C 
HETATM    8  C   UNL     1     -13.547   8.913   4.884  1.00  0.00     0.034 C 
HETATM    9  C   UNL     1     -14.536   9.044   2.581  1.00  0.00     0.044 C 
HETATM   10  C   UNL     1     -13.783   8.971   6.387  1.00  0.00     0.005 C 
HETATM   11  C   UNL     1     -14.471  10.274   6.751  1.00  0.00     0.014 C 
HETATM   12  C   UNL     1     -15.860  10.421   6.065  1.00  0.00    -0.020 C 
HETATM   13  C   UNL     1     -16.252  11.910   6.227  1.00  0.00     0.020 C 
HETATM   14  C   UNL     1     -16.892   9.568   6.833  1.00  0.00     0.020 C 
ENDBRANCH   5   6
ENDBRANCH   2   4
BRANCH   1  15
HETATM   15  C   UNL     1     -21.636   9.583   2.193  1.00  0.00     0.001 C 
HETATM   16  C   UNL     1     -22.318   8.697   1.449  1.00  0.00     0.006 C 
BRANCH  16  17
HETATM   17  C   UNL     1     -23.540   9.033   0.700  1.00  0.00    -0.064 C 
HETATM   18  C   UNL     1     -23.482   9.309  -0.620  1.00  0.00     0.006 C 
HETATM   19  C   UNL     1     -24.850   9.039   1.455  1.00  0.00     0.048 C 
BRANCH  18  20
HETATM   20  C   UNL     1     -24.650   9.641  -1.510  1.00  0.00     0.206 C 
BRANCH  20  21
HETATM   21  O   UNL     1     -25.282   8.444  -1.987  1.00  0.00    -0.318 OA
BRANCH  21  22
HETATM   22  C   UNL     1     -24.580   7.761  -2.933  1.00  0.00     0.258 C 
HETATM   23  O   UNL     1     -23.971   8.276  -3.860  1.00  0.00    -0.265 OA
BRANCH  22  24
HETATM   24  C   UNL     1     -24.680   6.281  -2.673  1.00  0.00     0.106 C 
HETATM   25  C   UNL     1     -23.870   5.891  -1.448  1.00  0.00     0.015 C 
ENDBRANCH  22  24
ENDBRANCH  21  22
ENDBRANCH  20  21
ENDBRANCH  18  20
ENDBRANCH  16  17
ENDBRANCH   1  15
TORSDOF 8
ENDMDL
MODEL 9
REMARK VINA RESULT:      -7.0      3.905     10.421
REMARK  8 active torsions:
REMARK  status: ('A' for Active; 'I' for Inactive)
REMARK    1  A    between atoms: C_2  and  C_3 
REMARK    2  A    between atoms: C_3  and  O_5 
REMARK    3  A    between atoms: O_5  and  C_6 
REMARK    4  A    between atoms: C_6  and  C_7 
REMARK    5  A    between atoms: C_8  and  C_10 
REMARK    6  A    between atoms: C_11  and  C_12 
REMARK    7  A    between atoms: C_13  and  C_15 
REMARK    8  A    between atoms: C_16  and  C_17 
ROOT
HETATM    1  C   UNL     1     -20.811  -7.162  -4.226  1.00  0.00     0.007 C 
HETATM    2  C   UNL     1     -21.426  -7.209  -3.018  1.00  0.00    -0.062 C 
HETATM    3  C   UNL     1     -22.360  -6.137  -2.497  1.00  0.00     0.048 C 
ENDROOT
BRANCH   2   4
HETATM    4  C   UNL     1     -21.184  -8.344  -2.110  1.00  0.00     0.007 C 
HETATM    5  C   UNL     1     -21.562  -9.620  -2.329  1.00  0.00     0.009 C 
BRANCH   5   6
HETATM    6  C   UNL     1     -21.368 -10.735  -1.399  1.00  0.00    -0.048 C 
HETATM    7  C   UNL     1     -22.307 -11.060  -0.476  1.00  0.00    -0.077 C 
HETATM    8  C   UNL     1     -22.105 -12.163   0.543  1.00  0.00     0.034 C 
HETATM    9  C   UNL     1     -23.671 -10.421  -0.357  1.00  0.00     0.044 C 
HETATM   10  C   UNL     1     -20.676 -12.679   0.633  1.00  0.00     0.005 C 
HETATM   11  C   UNL     1     -20.113 -12.885  -0.762  1.00  0.00     0.014 C 
HETATM   12  C   UNL     1     -20.069 -11.565  -1.583  1.00  0.00    -0.020 C 
HETATM   13  C   UNL     1     -19.835 -11.992  -3.052  1.00  0.00     0.020 C 
HETATM   14  C   UNL     1     -18.853 -10.729  -1.127  1.00  0.00     0.020 C 
ENDBRANCH   5   6
ENDBRANCH   2   4
BRANCH   1  15
HETATM   15  C   UNL     1     -20.967  -6.095  -5.200  1.00  0.00     0.001 C 
HETATM   16  C   UNL     1     -21.938  -5.962  -6.119  1.00  0.00     0.006 C 
BRANCH  16  17
HETATM   17  C   UNL     1     -22.022  -4.831  -7.057  1.00  0.00    -0.064 C 
HETATM   18  C   UNL     1     -23.120  -4.654  -7.821  1.00  0.00     0.006 C 
HETATM   19  C   UNL     1     -20.851  -3.876  -7.117  1.00  0.00     0.048 C 
BRANCH  18  20
HETATM   20  C   UNL     1     -23.349  -3.532  -8.800  1.00  0.00     0.206 C 
BRANCH  20  21
HETATM   21  O   UNL     1     -24.081  -3.998  -9.943  1.00  0.00    -0.318 OA
BRANCH  21  22
HETATM   22  C   UNL     1     -23.338  -4.173 -11.071  1.00  0.00     0.258 C 
HETATM   23  O   UNL     1     -23.519  -5.055 -11.898  1.00  0.00    -0.265 OA
BRANCH  22  24
HETATM   24  C   UNL     1     -22.254  -3.130 -11.134  1.00  0.00     0.106 C 
HETATM   25  C   UNL     1     -20.880  -3.770 -11.036  1.00  0.00     0.015 C 
ENDBRANCH  22  24
ENDBRANCH  21  22
ENDBRANCH  20  21
ENDBRANCH  18  20
ENDBRANCH  16  17
ENDBRANCH   1  15
TORSDOF 8
ENDMDL
