MODEL 1
REMARK VINA RESULT:      -6.9      0.000      0.000
REMARK  19 active torsions:
REMARK  status: ('A' for Active; 'I' for Inactive)
REMARK    1  A    between atoms: C_2  and  C_3 
REMARK    2  A    between atoms: C_3  and  C_4 
REMARK    3  A    between atoms: C_4  and  C_5 
REMARK    4  A    between atoms: C_5  and  C_6 
REMARK    5  A    between atoms: C_6  and  C_7 
REMARK    6  A    between atoms: C_7  and  C_8 
REMARK    7  A    between atoms: C_8  and  C_9 
REMARK    8  A    between atoms: C_10  and  C_11 
REMARK    9  A    between atoms: C_11  and  C_12 
REMARK   10  A    between atoms: C_12  and  C_13 
REMARK   11  A    between atoms: C_13  and  C_14 
REMARK   12  A    between atoms: C_14  and  C_15 
REMARK   13  A    between atoms: C_15  and  C_16 
REMARK   14  A    between atoms: C_16  and  C_17 
REMARK   15  A    between atoms: C_17  and  C_18 
REMARK   16  A    between atoms: C_18  and  O_20 
REMARK   17  A    between atoms: O_20  and  C_21 
REMARK   18  A    between atoms: C_21  and  C_22 
REMARK   19  A    between atoms: C_22  and  C_23 
ROOT
HETATM    1  C   UNL     1     -21.092  -6.592  -4.821  1.00  0.00     0.004 C 
ENDROOT
BRANCH   1   2
HETATM    2  C   UNL     1     -21.189  -6.035  -3.408  1.00  0.00     0.027 C 
BRANCH   2   3
HETATM    3  C   UNL     1     -21.618  -7.097  -2.455  1.00  0.00    -0.031 C 
HETATM    4  C   UNL     1     -22.204  -6.814  -1.282  1.00  0.00    -0.031 C 
BRANCH   4   5
HETATM    5  C   UNL     1     -22.636  -7.876  -0.328  1.00  0.00     0.027 C 
BRANCH   5   6
HETATM    6  C   UNL     1     -21.809  -7.814   0.948  1.00  0.00     0.004 C 
BRANCH   6   7
HETATM    7  C   UNL     1     -21.083  -9.134   1.168  1.00  0.00     0.000 C 
BRANCH   7   8
HETATM    8  C   UNL     1     -21.687 -10.218   0.290  1.00  0.00     0.000 C 
BRANCH   8   9
HETATM    9  C   UNL     1     -21.280 -11.593   0.797  1.00  0.00     0.000 C 
BRANCH   9  10
HETATM   10  C   UNL     1     -22.171 -12.667   0.188  1.00  0.00    -0.000 C 
BRANCH  10  11
HETATM   11  C   UNL     1     -23.232 -13.112   1.184  1.00  0.00    -0.005 C 
HETATM   12  C   UNL     1     -22.635 -14.059   2.208  1.00  0.00     0.005 C 
ENDBRANCH  10  11
ENDBRANCH   9  10
ENDBRANCH   8   9
ENDBRANCH   7   8
ENDBRANCH   6   7
ENDBRANCH   5   6
ENDBRANCH   4   5
ENDBRANCH   2   3
ENDBRANCH   1   2
BRANCH   1  13
HETATM   13  C   UNL     1     -22.112  -5.913  -5.727  1.00  0.00     0.000 C 
BRANCH  13  14
HETATM   14  C   UNL     1     -21.447  -4.823  -6.556  1.00  0.00     0.000 C 
BRANCH  14  15
HETATM   15  C   UNL     1     -21.871  -4.924  -8.020  1.00  0.00     0.000 C 
BRANCH  15  16
HETATM   16  C   UNL     1     -23.136  -4.109  -8.262  1.00  0.00     0.010 C 
BRANCH  16  17
HETATM   17  C   UNL     1     -23.899  -4.572  -9.500  1.00  0.00     0.111 C 
BRANCH  17  18
HETATM   18  C   UNL     1     -24.746  -3.438 -10.045  1.00  0.00     0.258 C 
HETATM   19  O   UNL     1     -25.866  -3.148  -9.671  1.00  0.00    -0.265 OA
BRANCH  18  20
HETATM   20  O   UNL     1     -24.112  -2.863 -11.110  1.00  0.00    -0.321 OA
BRANCH  20  21
HETATM   21  C   UNL     1     -23.574  -3.813 -12.038  1.00  0.00     0.178 C 
BRANCH  21  22
HETATM   22  C   UNL     1     -22.225  -3.374 -12.588  1.00  0.00     0.026 C 
BRANCH  22  23
HETATM   23  C   UNL     1     -21.262  -2.980 -11.463  1.00  0.00    -0.002 C 
HETATM   24  C   UNL     1     -20.314  -4.116 -11.120  1.00  0.00     0.005 C 
ENDBRANCH  22  23
ENDBRANCH  21  22
ENDBRANCH  20  21
ENDBRANCH  18  20
ENDBRANCH  17  18
ENDBRANCH  16  17
ENDBRANCH  15  16
ENDBRANCH  14  15
ENDBRANCH  13  14
ENDBRANCH   1  13
TORSDOF 19
ENDMDL
MODEL 2
REMARK VINA RESULT:      -6.8      1.833      2.857
REMARK  19 active torsions:
REMARK  status: ('A' for Active; 'I' for Inactive)
REMARK    1  A    between atoms: C_2  and  C_3 
REMARK    2  A    between atoms: C_3  and  C_4 
REMARK    3  A    between atoms: C_4  and  C_5 
REMARK    4  A    between atoms: C_5  and  C_6 
REMARK    5  A    between atoms: C_6  and  C_7 
REMARK    6  A    between atoms: C_7  and  C_8 
REMARK    7  A    between atoms: C_8  and  C_9 
REMARK    8  A    between atoms: C_10  and  C_11 
REMARK    9  A    between atoms: C_11  and  C_12 
REMARK   10  A    between atoms: C_12  and  C_13 
REMARK   11  A    between atoms: C_13  and  C_14 
REMARK   12  A    between atoms: C_14  and  C_15 
REMARK   13  A    between atoms: C_15  and  C_16 
REMARK   14  A    between atoms: C_16  and  C_17 
REMARK   15  A    between atoms: C_17  and  C_18 
REMARK   16  A    between atoms: C_18  and  O_20 
REMARK   17  A    between atoms: O_20  and  C_21 
REMARK   18  A    between atoms: C_21  and  C_22 
REMARK   19  A    between atoms: C_22  and  C_23 
ROOT
HETATM    1  C   UNL     1     -21.897  -6.857  -4.369  1.00  0.00     0.004 C 
ENDROOT
BRANCH   1   2
HETATM    2  C   UNL     1     -21.563  -6.181  -3.047  1.00  0.00     0.027 C 
BRANCH   2   3
HETATM    3  C   UNL     1     -22.296  -6.834  -1.926  1.00  0.00    -0.031 C 
HETATM    4  C   UNL     1     -21.666  -7.337  -0.853  1.00  0.00    -0.031 C 
BRANCH   4   5
HETATM    5  C   UNL     1     -22.399  -7.989   0.270  1.00  0.00     0.027 C 
BRANCH   5   6
HETATM    6  C   UNL     1     -22.378  -9.502   0.113  1.00  0.00     0.004 C 
BRANCH   6   7
HETATM    7  C   UNL     1     -23.796 -10.033  -0.046  1.00  0.00     0.000 C 
BRANCH   7   8
HETATM    8  C   UNL     1     -23.789 -11.315  -0.863  1.00  0.00     0.000 C 
BRANCH   8   9
HETATM    9  C   UNL     1     -22.533 -11.387  -1.718  1.00  0.00     0.000 C 
BRANCH   9  10
HETATM   10  C   UNL     1     -22.886 -11.232  -3.191  1.00  0.00    -0.000 C 
BRANCH  10  11
HETATM   11  C   UNL     1     -21.835 -10.398  -3.910  1.00  0.00    -0.005 C 
HETATM   12  C   UNL     1     -20.608 -10.222  -3.035  1.00  0.00     0.005 C 
ENDBRANCH  10  11
ENDBRANCH   9  10
ENDBRANCH   8   9
ENDBRANCH   7   8
ENDBRANCH   6   7
ENDBRANCH   5   6
ENDBRANCH   4   5
ENDBRANCH   2   3
ENDBRANCH   1   2
BRANCH   1  13
HETATM   13  C   UNL     1     -20.638  -7.010  -5.215  1.00  0.00     0.000 C 
BRANCH  13  14
HETATM   14  C   UNL     1     -20.758  -6.204  -6.501  1.00  0.00     0.000 C 
BRANCH  14  15
HETATM   15  C   UNL     1     -20.322  -4.758  -6.275  1.00  0.00     0.000 C 
BRANCH  15  16
HETATM   16  C   UNL     1     -21.238  -3.806  -7.035  1.00  0.00     0.010 C 
BRANCH  16  17
HETATM   17  C   UNL     1     -22.596  -4.429  -7.347  1.00  0.00     0.111 C 
BRANCH  17  18
HETATM   18  C   UNL     1     -23.038  -4.044  -8.746  1.00  0.00     0.258 C 
HETATM   19  O   UNL     1     -24.085  -3.495  -9.032  1.00  0.00    -0.265 OA
BRANCH  18  20
HETATM   20  O   UNL     1     -22.137  -4.517  -9.658  1.00  0.00    -0.321 OA
BRANCH  20  21
HETATM   21  C   UNL     1     -21.709  -3.531 -10.605  1.00  0.00     0.178 C 
BRANCH  21  22
HETATM   22  C   UNL     1     -21.856  -4.016 -12.040  1.00  0.00     0.026 C 
BRANCH  22  23
HETATM   23  C   UNL     1     -22.691  -3.043 -12.877  1.00  0.00    -0.002 C 
HETATM   24  C   UNL     1     -24.158  -3.090 -12.484  1.00  0.00     0.005 C 
ENDBRANCH  22  23
ENDBRANCH  21  22
ENDBRANCH  20  21
ENDBRANCH  18  20
ENDBRANCH  17  18
ENDBRANCH  16  17
ENDBRANCH  15  16
ENDBRANCH  14  15
ENDBRANCH  13  14
ENDBRANCH   1  13
TORSDOF 19
ENDMDL
MODEL 3
REMARK VINA RESULT:      -6.8      1.702      2.397
REMARK  19 active torsions:
REMARK  status: ('A' for Active; 'I' for Inactive)
REMARK    1  A    between atoms: C_2  and  C_3 
REMARK    2  A    between atoms: C_3  and  C_4 
REMARK    3  A    between atoms: C_4  and  C_5 
REMARK    4  A    between atoms: C_5  and  C_6 
REMARK    5  A    between atoms: C_6  and  C_7 
REMARK    6  A    between atoms: C_7  and  C_8 
REMARK    7  A    between atoms: C_8  and  C_9 
REMARK    8  A    between atoms: C_10  and  C_11 
REMARK    9  A    between atoms: C_11  and  C_12 
REMARK   10  A    between atoms: C_12  and  C_13 
REMARK   11  A    between atoms: C_13  and  C_14 
REMARK   12  A    between atoms: C_14  and  C_15 
REMARK   13  A    between atoms: C_15  and  C_16 
REMARK   14  A    between atoms: C_16  and  C_17 
REMARK   15  A    between atoms: C_17  and  C_18 
REMARK   16  A    between atoms: C_18  and  O_20 
REMARK   17  A    between atoms: O_20  and  C_21 
REMARK   18  A    between atoms: C_21  and  C_22 
REMARK   19  A    between atoms: C_22  and  C_23 
ROOT
HETATM    1  C   UNL     1     -20.025  -6.956  -5.772  1.00  0.00     0.004 C 
ENDROOT
BRANCH   1   2
HETATM    2  C   UNL     1     -21.285  -7.791  -5.595  1.00  0.00     0.027 C 
BRANCH   2   3
HETATM    3  C   UNL     1     -22.118  -7.254  -4.482  1.00  0.00    -0.031 C 
HETATM    4  C   UNL     1     -21.578  -6.737  -3.368  1.00  0.00    -0.031 C 
BRANCH   4   5
HETATM    5  C   UNL     1     -22.411  -6.198  -2.254  1.00  0.00     0.027 C 
BRANCH   5   6
HETATM    6  C   UNL     1     -21.840  -6.622  -0.909  1.00  0.00     0.004 C 
BRANCH   6   7
HETATM    7  C   UNL     1     -22.793  -7.585  -0.215  1.00  0.00     0.000 C 
BRANCH   7   8
HETATM    8  C   UNL     1     -22.034  -8.455   0.774  1.00  0.00     0.000 C 
BRANCH   8   9
HETATM    9  C   UNL     1     -21.614  -9.759   0.113  1.00  0.00     0.000 C 
BRANCH   9  10
HETATM   10  C   UNL     1     -22.698 -10.241  -0.841  1.00  0.00    -0.000 C 
BRANCH  10  11
HETATM   11  C   UNL     1     -22.173 -10.287  -2.270  1.00  0.00    -0.005 C 
HETATM   12  C   UNL     1     -20.656 -10.296  -2.277  1.00  0.00     0.005 C 
ENDBRANCH  10  11
ENDBRANCH   9  10
ENDBRANCH   8   9
ENDBRANCH   7   8
ENDBRANCH   6   7
ENDBRANCH   5   6
ENDBRANCH   4   5
ENDBRANCH   2   3
ENDBRANCH   1   2
BRANCH   1  13
HETATM   13  C   UNL     1     -20.216  -5.945  -6.897  1.00  0.00     0.000 C 
BRANCH  13  14
HETATM   14  C   UNL     1     -20.330  -4.536  -6.334  1.00  0.00     0.000 C 
BRANCH  14  15
HETATM   15  C   UNL     1     -21.360  -3.724  -7.117  1.00  0.00     0.000 C 
BRANCH  15  16
HETATM   16  C   UNL     1     -22.251  -4.650  -7.936  1.00  0.00     0.010 C 
BRANCH  16  17
HETATM   17  C   UNL     1     -23.658  -4.087  -8.125  1.00  0.00     0.111 C 
BRANCH  17  18
HETATM   18  C   UNL     1     -24.123  -4.313  -9.551  1.00  0.00     0.258 C 
HETATM   19  O   UNL     1     -25.234  -4.066  -9.981  1.00  0.00    -0.265 OA
BRANCH  18  20
HETATM   20  O   UNL     1     -23.143  -4.951 -10.257  1.00  0.00    -0.321 OA
BRANCH  20  21
HETATM   21  C   UNL     1     -22.795  -4.290 -11.480  1.00  0.00     0.178 C 
BRANCH  21  22
HETATM   22  C   UNL     1     -21.798  -3.162 -11.256  1.00  0.00     0.026 C 
BRANCH  22  23
HETATM   23  C   UNL     1     -20.360  -3.627 -11.501  1.00  0.00    -0.002 C 
HETATM   24  C   UNL     1     -19.929  -4.661 -10.475  1.00  0.00     0.005 C 
ENDBRANCH  22  23
ENDBRANCH  21  22
ENDBRANCH  20  21
ENDBRANCH  18  20
ENDBRANCH  17  18
ENDBRANCH  16  17
ENDBRANCH  15  16
ENDBRANCH  14  15
ENDBRANCH  13  14
ENDBRANCH   1  13
TORSDOF 19
ENDMDL
MODEL 4
REMARK VINA RESULT:      -6.7      1.509      2.468
REMARK  19 active torsions:
REMARK  status: ('A' for Active; 'I' for Inactive)
REMARK    1  A    between atoms: C_2  and  C_3 
REMARK    2  A    between atoms: C_3  and  C_4 
REMARK    3  A    between atoms: C_4  and  C_5 
REMARK    4  A    between atoms: C_5  and  C_6 
REMARK    5  A    between atoms: C_6  and  C_7 
REMARK    6  A    between atoms: C_7  and  C_8 
REMARK    7  A    between atoms: C_8  and  C_9 
REMARK    8  A    between atoms: C_10  and  C_11 
REMARK    9  A    between atoms: C_11  and  C_12 
REMARK   10  A    between atoms: C_12  and  C_13 
REMARK   11  A    between atoms: C_13  and  C_14 
REMARK   12  A    between atoms: C_14  and  C_15 
REMARK   13  A    between atoms: C_15  and  C_16 
REMARK   14  A    between atoms: C_16  and  C_17 
REMARK   15  A    between atoms: C_17  and  C_18 
REMARK   16  A    between atoms: C_18  and  O_20 
REMARK   17  A    between atoms: O_20  and  C_21 
REMARK   18  A    between atoms: C_21  and  C_22 
REMARK   19  A    between atoms: C_22  and  C_23 
ROOT
HETATM    1  C   UNL     1     -21.839  -6.968  -4.324  1.00  0.00     0.004 C 
ENDROOT
BRANCH   1   2
HETATM    2  C   UNL     1     -21.317  -6.052  -3.227  1.00  0.00     0.027 C 
BRANCH   2   3
HETATM    3  C   UNL     1     -22.077  -6.262  -1.963  1.00  0.00    -0.031 C 
HETATM    4  C   UNL     1     -22.015  -7.409  -1.270  1.00  0.00    -0.031 C 
BRANCH   4   5
HETATM    5  C   UNL     1     -22.775  -7.620  -0.004  1.00  0.00     0.027 C 
BRANCH   5   6
HETATM    6  C   UNL     1     -22.049  -8.609   0.895  1.00  0.00     0.004 C 
BRANCH   6   7
HETATM    7  C   UNL     1     -21.140  -9.504   0.064  1.00  0.00     0.000 C 
BRANCH   7   8
HETATM    8  C   UNL     1     -21.453 -10.967   0.332  1.00  0.00     0.000 C 
BRANCH   8   9
HETATM    9  C   UNL     1     -22.762 -11.357  -0.338  1.00  0.00     0.000 C 
BRANCH   9  10
HETATM   10  C   UNL     1     -23.564 -12.283   0.566  1.00  0.00    -0.000 C 
BRANCH  10  11
HETATM   11  C   UNL     1     -22.637 -13.207   1.344  1.00  0.00    -0.005 C 
HETATM   12  C   UNL     1     -23.437 -14.094   2.280  1.00  0.00     0.005 C 
ENDBRANCH  10  11
ENDBRANCH   9  10
ENDBRANCH   8   9
ENDBRANCH   7   8
ENDBRANCH   6   7
ENDBRANCH   5   6
ENDBRANCH   4   5
ENDBRANCH   2   3
ENDBRANCH   1   2
BRANCH   1  13
HETATM   13  C   UNL     1     -21.256  -6.561  -5.672  1.00  0.00     0.000 C 
BRANCH  13  14
HETATM   14  C   UNL     1     -20.582  -5.200  -5.574  1.00  0.00     0.000 C 
BRANCH  14  15
HETATM   15  C   UNL     1     -21.099  -4.262  -6.662  1.00  0.00     0.000 C 
BRANCH  15  16
HETATM   16  C   UNL     1     -20.798  -4.835  -8.042  1.00  0.00     0.010 C 
BRANCH  16  17
HETATM   17  C   UNL     1     -20.107  -3.825  -8.954  1.00  0.00     0.111 C 
BRANCH  17  18
HETATM   18  C   UNL     1     -20.334  -4.192 -10.408  1.00  0.00     0.258 C 
HETATM   19  O   UNL     1     -19.716  -5.035 -11.029  1.00  0.00    -0.265 OA
BRANCH  18  20
HETATM   20  O   UNL     1     -21.258  -3.347 -10.955  1.00  0.00    -0.321 OA
BRANCH  20  21
HETATM   21  C   UNL     1     -22.077  -3.964 -11.956  1.00  0.00     0.178 C 
BRANCH  21  22
HETATM   22  C   UNL     1     -23.363  -4.530 -11.373  1.00  0.00     0.026 C 
BRANCH  22  23
HETATM   23  C   UNL     1     -24.187  -3.445 -10.673  1.00  0.00    -0.002 C 
HETATM   24  C   UNL     1     -24.211  -3.650  -9.168  1.00  0.00     0.005 C 
ENDBRANCH  22  23
ENDBRANCH  21  22
ENDBRANCH  20  21
ENDBRANCH  18  20
ENDBRANCH  17  18
ENDBRANCH  16  17
ENDBRANCH  15  16
ENDBRANCH  14  15
ENDBRANCH  13  14
ENDBRANCH   1  13
TORSDOF 19
ENDMDL
MODEL 5
REMARK VINA RESULT:      -6.6      4.177     10.546
REMARK  19 active torsions:
REMARK  status: ('A' for Active; 'I' for Inactive)
REMARK    1  A    between atoms: C_2  and  C_3 
REMARK    2  A    between atoms: C_3  and  C_4 
REMARK    3  A    between atoms: C_4  and  C_5 
REMARK    4  A    between atoms: C_5  and  C_6 
REMARK    5  A    between atoms: C_6  and  C_7 
REMARK    6  A    between atoms: C_7  and  C_8 
REMARK    7  A    between atoms: C_8  and  C_9 
REMARK    8  A    between atoms: C_10  and  C_11 
REMARK    9  A    between atoms: C_11  and  C_12 
REMARK   10  A    between atoms: C_12  and  C_13 
REMARK   11  A    between atoms: C_13  and  C_14 
REMARK   12  A    between atoms: C_14  and  C_15 
REMARK   13  A    between atoms: C_15  and  C_16 
REMARK   14  A    between atoms: C_16  and  C_17 
REMARK   15  A    between atoms: C_17  and  C_18 
REMARK   16  A    between atoms: C_18  and  O_20 
REMARK   17  A    between atoms: O_20  and  C_21 
REMARK   18  A    between atoms: C_21  and  C_22 
REMARK   19  A    between atoms: C_22  and  C_23 
ROOT
HETATM    1  C   UNL     1     -22.000  -6.327  -3.959  1.00  0.00     0.004 C 
ENDROOT
BRANCH   1   2
HETATM    2  C   UNL     1     -21.392  -7.372  -4.884  1.00  0.00     0.027 C 
BRANCH   2   3
HETATM    3  C   UNL     1     -20.607  -6.718  -5.969  1.00  0.00    -0.031 C 
HETATM    4  C   UNL     1     -20.172  -5.453  -5.876  1.00  0.00    -0.031 C 
BRANCH   4   5
HETATM    5  C   UNL     1     -19.385  -4.797  -6.962  1.00  0.00     0.027 C 
BRANCH   5   6
HETATM    6  C   UNL     1     -20.293  -4.413  -8.120  1.00  0.00     0.004 C 
BRANCH   6   7
HETATM    7  C   UNL     1     -21.474  -3.596  -7.613  1.00  0.00     0.000 C 
BRANCH   7   8
HETATM    8  C   UNL     1     -22.782  -4.262  -8.006  1.00  0.00     0.000 C 
BRANCH   8   9
HETATM    9  C   UNL     1     -23.288  -3.693  -9.323  1.00  0.00     0.000 C 
BRANCH   9  10
HETATM   10  C   UNL     1     -23.300  -4.772 -10.396  1.00  0.00    -0.000 C 
BRANCH  10  11
HETATM   11  C   UNL     1     -22.707  -4.244 -11.695  1.00  0.00    -0.005 C 
HETATM   12  C   UNL     1     -21.342  -3.631 -11.444  1.00  0.00     0.005 C 
ENDBRANCH  10  11
ENDBRANCH   9  10
ENDBRANCH   8   9
ENDBRANCH   7   8
ENDBRANCH   6   7
ENDBRANCH   5   6
ENDBRANCH   4   5
ENDBRANCH   2   3
ENDBRANCH   1   2
BRANCH   1  13
HETATM   13  C   UNL     1     -21.319  -6.369  -2.597  1.00  0.00     0.000 C 
BRANCH  13  14
HETATM   14  C   UNL     1     -22.335  -6.652  -1.499  1.00  0.00     0.000 C 
BRANCH  14  15
HETATM   15  C   UNL     1     -21.760  -7.620  -0.468  1.00  0.00     0.000 C 
BRANCH  15  16
HETATM   16  C   UNL     1     -22.884  -8.370   0.238  1.00  0.00     0.010 C 
BRANCH  16  17
HETATM   17  C   UNL     1     -23.065  -9.787  -0.300  1.00  0.00     0.111 C 
BRANCH  17  18
HETATM   18  C   UNL     1     -21.828 -10.616  -0.013  1.00  0.00     0.258 C 
HETATM   19  O   UNL     1     -21.107 -10.500   0.960  1.00  0.00    -0.265 OA
BRANCH  18  20
HETATM   20  O   UNL     1     -21.570 -11.437  -1.074  1.00  0.00    -0.321 OA
BRANCH  20  21
HETATM   21  C   UNL     1     -21.023 -10.754  -2.208  1.00  0.00     0.178 C 
BRANCH  21  22
HETATM   22  C   UNL     1     -19.511 -10.608  -2.113  1.00  0.00     0.026 C 
BRANCH  22  23
HETATM   23  C   UNL     1     -19.050  -9.229  -2.593  1.00  0.00    -0.002 C 
HETATM   24  C   UNL     1     -18.427  -9.302  -3.977  1.00  0.00     0.005 C 
ENDBRANCH  22  23
ENDBRANCH  21  22
ENDBRANCH  20  21
ENDBRANCH  18  20
ENDBRANCH  17  18
ENDBRANCH  16  17
ENDBRANCH  15  16
ENDBRANCH  14  15
ENDBRANCH  13  14
ENDBRANCH   1  13
TORSDOF 19
ENDMDL
MODEL 6
REMARK VINA RESULT:      -6.6      4.000     11.500
REMARK  19 active torsions:
REMARK  status: ('A' for Active; 'I' for Inactive)
REMARK    1  A    between atoms: C_2  and  C_3 
REMARK    2  A    between atoms: C_3  and  C_4 
REMARK    3  A    between atoms: C_4  and  C_5 
REMARK    4  A    between atoms: C_5  and  C_6 
REMARK    5  A    between atoms: C_6  and  C_7 
REMARK    6  A    between atoms: C_7  and  C_8 
REMARK    7  A    between atoms: C_8  and  C_9 
REMARK    8  A    between atoms: C_10  and  C_11 
REMARK    9  A    between atoms: C_11  and  C_12 
REMARK   10  A    between atoms: C_12  and  C_13 
REMARK   11  A    between atoms: C_13  and  C_14 
REMARK   12  A    between atoms: C_14  and  C_15 
REMARK   13  A    between atoms: C_15  and  C_16 
REMARK   14  A    between atoms: C_16  and  C_17 
REMARK   15  A    between atoms: C_17  and  C_18 
REMARK   16  A    between atoms: C_18  and  O_20 
REMARK   17  A    between atoms: O_20  and  C_21 
REMARK   18  A    between atoms: C_21  and  C_22 
REMARK   19  A    between atoms: C_22  and  C_23 
ROOT
HETATM    1  C   UNL     1     -21.333  -7.984  -4.352  1.00  0.00     0.004 C 
ENDROOT
BRANCH   1   2
HETATM    2  C   UNL     1     -21.889  -6.882  -5.243  1.00  0.00     0.027 C 
BRANCH   2   3
HETATM    3  C   UNL     1     -20.869  -6.449  -6.239  1.00  0.00    -0.031 C 
HETATM    4  C   UNL     1     -20.276  -5.247  -6.182  1.00  0.00    -0.031 C 
BRANCH   4   5
HETATM    5  C   UNL     1     -19.254  -4.813  -7.179  1.00  0.00     0.027 C 
BRANCH   5   6
HETATM    6  C   UNL     1     -19.877  -3.885  -8.211  1.00  0.00     0.004 C 
BRANCH   6   7
HETATM    7  C   UNL     1     -20.665  -4.692  -9.234  1.00  0.00     0.000 C 
BRANCH   7   8
HETATM    8  C   UNL     1     -20.100  -4.470 -10.627  1.00  0.00     0.000 C 
BRANCH   8   9
HETATM    9  C   UNL     1     -21.228  -4.287 -11.630  1.00  0.00     0.000 C 
BRANCH   9  10
HETATM   10  C   UNL     1     -21.817  -2.888 -11.515  1.00  0.00    -0.000 C 
BRANCH  10  11
HETATM   11  C   UNL     1     -23.339  -2.945 -11.511  1.00  0.00    -0.005 C 
HETATM   12  C   UNL     1     -23.816  -4.349 -11.192  1.00  0.00     0.005 C 
ENDBRANCH  10  11
ENDBRANCH   9  10
ENDBRANCH   8   9
ENDBRANCH   7   8
ENDBRANCH   6   7
ENDBRANCH   5   6
ENDBRANCH   4   5
ENDBRANCH   2   3
ENDBRANCH   1   2
BRANCH   1  13
HETATM   13  C   UNL     1     -20.920  -7.412  -3.001  1.00  0.00     0.000 C 
BRANCH  13  14
HETATM   14  C   UNL     1     -21.900  -6.336  -2.555  1.00  0.00     0.000 C 
BRANCH  14  15
HETATM   15  C   UNL     1     -22.403  -6.616  -1.140  1.00  0.00     0.000 C 
BRANCH  15  16
HETATM   16  C   UNL     1     -21.495  -7.624  -0.447  1.00  0.00     0.010 C 
BRANCH  16  17
HETATM   17  C   UNL     1     -22.280  -8.672   0.338  1.00  0.00     0.111 C 
BRANCH  17  18
HETATM   18  C   UNL     1     -21.558 -10.005   0.296  1.00  0.00     0.258 C 
HETATM   19  O   UNL     1     -20.758 -10.403   1.121  1.00  0.00    -0.265 OA
BRANCH  18  20
HETATM   20  O   UNL     1     -21.848 -10.647  -0.875  1.00  0.00    -0.321 OA
BRANCH  20  21
HETATM   21  C   UNL     1     -23.253 -10.796  -1.114  1.00  0.00     0.178 C 
BRANCH  21  22
HETATM   22  C   UNL     1     -23.945 -11.561   0.005  1.00  0.00     0.026 C 
BRANCH  22  23
HETATM   23  C   UNL     1     -23.469 -13.015   0.068  1.00  0.00    -0.002 C 
HETATM   24  C   UNL     1     -23.158 -13.436   1.494  1.00  0.00     0.005 C 
ENDBRANCH  22  23
ENDBRANCH  21  22
ENDBRANCH  20  21
ENDBRANCH  18  20
ENDBRANCH  17  18
ENDBRANCH  16  17
ENDBRANCH  15  16
ENDBRANCH  14  15
ENDBRANCH  13  14
ENDBRANCH   1  13
TORSDOF 19
ENDMDL
MODEL 7
REMARK VINA RESULT:      -6.6      3.948     10.827
REMARK  19 active torsions:
REMARK  status: ('A' for Active; 'I' for Inactive)
REMARK    1  A    between atoms: C_2  and  C_3 
REMARK    2  A    between atoms: C_3  and  C_4 
REMARK    3  A    between atoms: C_4  and  C_5 
REMARK    4  A    between atoms: C_5  and  C_6 
REMARK    5  A    between atoms: C_6  and  C_7 
REMARK    6  A    between atoms: C_7  and  C_8 
REMARK    7  A    between atoms: C_8  and  C_9 
REMARK    8  A    between atoms: C_10  and  C_11 
REMARK    9  A    between atoms: C_11  and  C_12 
REMARK   10  A    between atoms: C_12  and  C_13 
REMARK   11  A    between atoms: C_13  and  C_14 
REMARK   12  A    between atoms: C_14  and  C_15 
REMARK   13  A    between atoms: C_15  and  C_16 
REMARK   14  A    between atoms: C_16  and  C_17 
REMARK   15  A    between atoms: C_17  and  C_18 
REMARK   16  A    between atoms: C_18  and  O_20 
REMARK   17  A    between atoms: O_20  and  C_21 
REMARK   18  A    between atoms: C_21  and  C_22 
REMARK   19  A    between atoms: C_22  and  C_23 
ROOT
HETATM    1  C   UNL     1     -21.621  -7.041  -5.518  1.00  0.00     0.004 C 
ENDROOT
BRANCH   1   2
HETATM    2  C   UNL     1     -20.177  -6.568  -5.617  1.00  0.00     0.027 C 
BRANCH   2   3
HETATM    3  C   UNL     1     -19.928  -5.917  -6.934  1.00  0.00    -0.031 C 
HETATM    4  C   UNL     1     -20.004  -4.588  -7.102  1.00  0.00    -0.031 C 
BRANCH   4   5
HETATM    5  C   UNL     1     -19.754  -3.935  -8.420  1.00  0.00     0.027 C 
BRANCH   5   6
HETATM    6  C   UNL     1     -20.491  -4.672  -9.528  1.00  0.00     0.004 C 
BRANCH   6   7
HETATM    7  C   UNL     1     -20.171  -4.045 -10.878  1.00  0.00     0.000 C 
BRANCH   7   8
HETATM    8  C   UNL     1     -21.326  -3.169 -11.338  1.00  0.00     0.000 C 
BRANCH   8   9
HETATM    9  C   UNL     1     -22.502  -4.031 -11.769  1.00  0.00     0.000 C 
BRANCH   9  10
HETATM   10  C   UNL     1     -23.783  -3.548 -11.104  1.00  0.00    -0.000 C 
BRANCH  10  11
HETATM   11  C   UNL     1     -24.239  -4.535 -10.037  1.00  0.00    -0.005 C 
HETATM   12  C   UNL     1     -23.824  -4.055  -8.659  1.00  0.00     0.005 C 
ENDBRANCH  10  11
ENDBRANCH   9  10
ENDBRANCH   8   9
ENDBRANCH   7   8
ENDBRANCH   6   7
ENDBRANCH   5   6
ENDBRANCH   4   5
ENDBRANCH   2   3
ENDBRANCH   1   2
BRANCH   1  13
HETATM   13  C   UNL     1     -21.931  -7.491  -4.095  1.00  0.00     0.000 C 
BRANCH  13  14
HETATM   14  C   UNL     1     -21.345  -6.514  -3.086  1.00  0.00     0.000 C 
BRANCH  14  15
HETATM   15  C   UNL     1     -22.284  -6.341  -1.894  1.00  0.00     0.000 C 
BRANCH  15  16
HETATM   16  C   UNL     1     -21.823  -7.208  -0.728  1.00  0.00     0.010 C 
BRANCH  16  17
HETATM   17  C   UNL     1     -22.990  -7.864   0.006  1.00  0.00     0.111 C 
BRANCH  17  18
HETATM   18  C   UNL     1     -22.837  -9.373  -0.014  1.00  0.00     0.258 C 
HETATM   19  O   UNL     1     -23.729 -10.172  -0.227  1.00  0.00    -0.265 OA
BRANCH  18  20
HETATM   20  O   UNL     1     -21.568  -9.710   0.364  1.00  0.00    -0.321 OA
BRANCH  20  21
HETATM   21  C   UNL     1     -21.101 -10.933  -0.219  1.00  0.00     0.178 C 
BRANCH  21  22
HETATM   22  C   UNL     1     -19.811 -10.736  -1.002  1.00  0.00     0.026 C 
BRANCH  22  23
HETATM   23  C   UNL     1     -20.059  -9.980  -2.310  1.00  0.00    -0.002 C 
HETATM   24  C   UNL     1     -18.759  -9.482  -2.918  1.00  0.00     0.005 C 
ENDBRANCH  22  23
ENDBRANCH  21  22
ENDBRANCH  20  21
ENDBRANCH  18  20
ENDBRANCH  17  18
ENDBRANCH  16  17
ENDBRANCH  15  16
ENDBRANCH  14  15
ENDBRANCH  13  14
ENDBRANCH   1  13
TORSDOF 19
ENDMDL
MODEL 8
REMARK VINA RESULT:      -6.5      1.945      2.947
REMARK  19 active torsions:
REMARK  status: ('A' for Active; 'I' for Inactive)
REMARK    1  A    between atoms: C_2  and  C_3 
REMARK    2  A    between atoms: C_3  and  C_4 
REMARK    3  A    between atoms: C_4  and  C_5 
REMARK    4  A    between atoms: C_5  and  C_6 
REMARK    5  A    between atoms: C_6  and  C_7 
REMARK    6  A    between atoms: C_7  and  C_8 
REMARK    7  A    between atoms: C_8  and  C_9 
REMARK    8  A    between atoms: C_10  and  C_11 
REMARK    9  A    between atoms: C_11  and  C_12 
REMARK   10  A    between atoms: C_12  and  C_13 
REMARK   11  A    between atoms: C_13  and  C_14 
REMARK   12  A    between atoms: C_14  and  C_15 
REMARK   13  A    between atoms: C_15  and  C_16 
REMARK   14  A    between atoms: C_16  and  C_17 
REMARK   15  A    between atoms: C_17  and  C_18 
REMARK   16  A    between atoms: C_18  and  O_20 
REMARK   17  A    between atoms: O_20  and  C_21 
REMARK   18  A    between atoms: C_21  and  C_22 
REMARK   19  A    between atoms: C_22  and  C_23 
ROOT
HETATM    1  C   UNL     1     -20.322  -6.139  -5.316  1.00  0.00     0.004 C 
ENDROOT
BRANCH   1   2
HETATM    2  C   UNL     1     -21.804  -6.482  -5.314  1.00  0.00     0.027 C 
BRANCH   2   3
HETATM    3  C   UNL     1     -22.282  -6.735  -3.925  1.00  0.00    -0.031 C 
HETATM    4  C   UNL     1     -21.442  -7.024  -2.920  1.00  0.00    -0.031 C 
BRANCH   4   5
HETATM    5  C   UNL     1     -21.919  -7.276  -1.529  1.00  0.00     0.027 C 
BRANCH   5   6
HETATM    6  C   UNL     1     -20.932  -8.157  -0.779  1.00  0.00     0.004 C 
BRANCH   6   7
HETATM    7  C   UNL     1     -21.659  -8.976   0.280  1.00  0.00     0.000 C 
BRANCH   7   8
HETATM    8  C   UNL     1     -23.118  -9.158  -0.106  1.00  0.00     0.000 C 
BRANCH   8   9
HETATM    9  C   UNL     1     -23.496 -10.630  -0.054  1.00  0.00     0.000 C 
BRANCH   9  10
HETATM   10  C   UNL     1     -23.789 -11.151  -1.454  1.00  0.00    -0.000 C 
BRANCH  10  11
HETATM   11  C   UNL     1     -22.495 -11.493  -2.180  1.00  0.00    -0.005 C 
HETATM   12  C   UNL     1     -22.340 -10.634  -3.420  1.00  0.00     0.005 C 
ENDBRANCH  10  11
ENDBRANCH   9  10
ENDBRANCH   8   9
ENDBRANCH   7   8
ENDBRANCH   6   7
ENDBRANCH   5   6
ENDBRANCH   4   5
ENDBRANCH   2   3
ENDBRANCH   1   2
BRANCH   1  13
HETATM   13  C   UNL     1     -20.130  -4.630  -5.415  1.00  0.00     0.000 C 
BRANCH  13  14
HETATM   14  C   UNL     1     -20.677  -4.107  -6.735  1.00  0.00     0.000 C 
BRANCH  14  15
HETATM   15  C   UNL     1     -19.595  -4.121  -7.812  1.00  0.00     0.000 C 
BRANCH  15  16
HETATM   16  C   UNL     1     -20.092  -4.855  -9.051  1.00  0.00     0.010 C 
BRANCH  16  17
HETATM   17  C   UNL     1     -21.485  -4.399  -9.478  1.00  0.00     0.111 C 
BRANCH  17  18
HETATM   18  C   UNL     1     -21.579  -4.354 -10.991  1.00  0.00     0.258 C 
HETATM   19  O   UNL     1     -20.772  -3.830 -11.736  1.00  0.00    -0.265 OA
BRANCH  18  20
HETATM   20  O   UNL     1     -22.773  -4.884 -11.393  1.00  0.00    -0.321 OA
BRANCH  20  21
HETATM   21  C   UNL     1     -23.899  -4.050 -11.096  1.00  0.00     0.178 C 
BRANCH  21  22
HETATM   22  C   UNL     1     -24.038  -2.903 -12.086  1.00  0.00     0.026 C 
BRANCH  22  23
HETATM   23  C   UNL     1     -24.044  -3.409 -13.532  1.00  0.00    -0.002 C 
HETATM   24  C   UNL     1     -23.007  -2.688 -14.377  1.00  0.00     0.005 C 
ENDBRANCH  22  23
ENDBRANCH  21  22
ENDBRANCH  20  21
ENDBRANCH  18  20
ENDBRANCH  17  18
ENDBRANCH  16  17
ENDBRANCH  15  16
ENDBRANCH  14  15
ENDBRANCH  13  14
ENDBRANCH   1  13
TORSDOF 19
ENDMDL
MODEL 9
REMARK VINA RESULT:      -6.4      1.731      2.604
REMARK  19 active torsions:
REMARK  status: ('A' for Active; 'I' for Inactive)
REMARK    1  A    between atoms: C_2  and  C_3 
REMARK    2  A    between atoms: C_3  and  C_4 
REMARK    3  A    between atoms: C_4  and  C_5 
REMARK    4  A    between atoms: C_5  and  C_6 
REMARK    5  A    between atoms: C_6  and  C_7 
REMARK    6  A    between atoms: C_7  and  C_8 
REMARK    7  A    between atoms: C_8  and  C_9 
REMARK    8  A    between atoms: C_10  and  C_11 
REMARK    9  A    between atoms: C_11  and  C_12 
REMARK   10  A    between atoms: C_12  and  C_13 
REMARK   11  A    between atoms: C_13  and  C_14 
REMARK   12  A    between atoms: C_14  and  C_15 
REMARK   13  A    between atoms: C_15  and  C_16 
REMARK   14  A    between atoms: C_16  and  C_17 
REMARK   15  A    between atoms: C_17  and  C_18 
REMARK   16  A    between atoms: C_18  and  O_20 
REMARK   17  A    between atoms: O_20  and  C_21 
REMARK   18  A    between atoms: C_21  and  C_22 
REMARK   19  A    between atoms: C_22  and  C_23 
ROOT
HETATM    1  C   UNL     1     -20.794  -6.437  -6.523  1.00  0.00     0.004 C 
ENDROOT
BRANCH   1   2
HETATM    2  C   UNL     1     -21.906  -5.950  -5.605  1.00  0.00     0.027 C 
BRANCH   2   3
HETATM    3  C   UNL     1     -21.968  -6.781  -4.370  1.00  0.00    -0.031 C 
HETATM    4  C   UNL     1     -21.574  -6.318  -3.174  1.00  0.00    -0.031 C 
BRANCH   4   5
HETATM    5  C   UNL     1     -21.637  -7.149  -1.937  1.00  0.00     0.027 C 
BRANCH   5   6
HETATM    6  C   UNL     1     -20.290  -7.799  -1.663  1.00  0.00     0.004 C 
BRANCH   6   7
HETATM    7  C   UNL     1     -20.136  -9.062  -2.500  1.00  0.00     0.000 C 
BRANCH   7   8
HETATM    8  C   UNL     1     -20.995 -10.178  -1.931  1.00  0.00     0.000 C 
BRANCH   8   9
HETATM    9  C   UNL     1     -20.510 -10.559  -0.540  1.00  0.00     0.000 C 
BRANCH   9  10
HETATM   10  C   UNL     1     -21.683 -10.635   0.427  1.00  0.00    -0.000 C 
BRANCH  10  11
HETATM   11  C   UNL     1     -22.967 -10.176  -0.250  1.00  0.00    -0.005 C 
HETATM   12  C   UNL     1     -24.002 -11.285  -0.234  1.00  0.00     0.005 C 
ENDBRANCH  10  11
ENDBRANCH   9  10
ENDBRANCH   8   9
ENDBRANCH   7   8
ENDBRANCH   6   7
ENDBRANCH   5   6
ENDBRANCH   4   5
ENDBRANCH   2   3
ENDBRANCH   1   2
BRANCH   1  13
HETATM   13  C   UNL     1     -19.765  -5.333  -6.738  1.00  0.00     0.000 C 
BRANCH  13  14
HETATM   14  C   UNL     1     -20.440  -4.064  -7.239  1.00  0.00     0.000 C 
BRANCH  14  15
HETATM   15  C   UNL     1     -20.711  -4.152  -8.739  1.00  0.00     0.000 C 
BRANCH  15  16
HETATM   16  C   UNL     1     -22.206  -4.294  -8.999  1.00  0.00     0.010 C 
BRANCH  16  17
HETATM   17  C   UNL     1     -22.635  -3.632 -10.306  1.00  0.00     0.111 C 
BRANCH  17  18
HETATM   18  C   UNL     1     -24.140  -3.725 -10.469  1.00  0.00     0.258 C 
HETATM   19  O   UNL     1     -24.883  -4.423  -9.805  1.00  0.00    -0.265 OA
BRANCH  18  20
HETATM   20  O   UNL     1     -24.529  -2.998 -11.558  1.00  0.00    -0.321 OA
BRANCH  20  21
HETATM   21  C   UNL     1     -23.442  -2.614 -12.408  1.00  0.00     0.178 C 
BRANCH  21  22
HETATM   22  C   UNL     1     -23.640  -3.089 -13.840  1.00  0.00     0.026 C 
BRANCH  22  23
HETATM   23  C   UNL     1     -22.994  -2.130 -14.844  1.00  0.00    -0.002 C 
HETATM   24  C   UNL     1     -23.901  -0.950 -15.148  1.00  0.00     0.005 C 
ENDBRANCH  22  23
ENDBRANCH  21  22
ENDBRANCH  20  21
ENDBRANCH  18  20
ENDBRANCH  17  18
ENDBRANCH  16  17
ENDBRANCH  15  16
ENDBRANCH  14  15
ENDBRANCH  13  14
ENDBRANCH   1  13
TORSDOF 19
ENDMDL
