MODEL 1
REMARK VINA RESULT:      -7.7      0.000      0.000
REMARK  5 active torsions:
REMARK  status: ('A' for Active; 'I' for Inactive)
REMARK    1  A    between atoms: C_5  and  C_8 
REMARK    2  A    between atoms: C_8  and  C_10 
REMARK    3  A    between atoms: C_8  and  O_16 
REMARK    4  A    between atoms: C_10  and  C_11 
REMARK    5  A    between atoms: C_11  and  C_12 
ROOT
HETATM    1  C   UNL     1     -20.162  -5.306  -7.127  1.00  0.00     0.058 C 
HETATM    2  C   UNL     1     -18.846  -4.520  -7.259  1.00  0.00     0.046 C 
ENDROOT
BRANCH   1   3
HETATM    3  C   UNL     1     -21.171  -4.985  -8.287  1.00  0.00     0.023 C 
HETATM    4  C   UNL     1     -20.487  -4.417  -9.556  1.00  0.00     0.035 C 
HETATM    5  C   UNL     1     -21.444  -3.876 -10.583  1.00  0.00    -0.024 C 
HETATM    6  C   UNL     1     -22.748  -3.657 -10.351  1.00  0.00    -0.087 C 
HETATM    7  C   UNL     1     -23.671  -3.124 -11.410  1.00  0.00     0.043 C 
HETATM    8  C   UNL     1     -23.367  -3.926  -9.004  1.00  0.00     0.034 C 
HETATM    9  C   UNL     1     -22.335  -4.062  -7.876  1.00  0.00     0.012 C 
ENDBRANCH   1   3
BRANCH   1  10
HETATM   10  C   UNL     1     -20.752  -5.068  -5.705  1.00  0.00     0.041 C 
BRANCH  10  11
HETATM   11  C   UNL     1     -20.813  -6.348  -4.861  1.00  0.00     0.030 C 
BRANCH  11  12
HETATM   12  C   UNL     1     -21.682  -6.284  -3.634  1.00  0.00    -0.025 C 
HETATM   13  C   UNL     1     -21.494  -6.970  -2.489  1.00  0.00    -0.091 C 
HETATM   14  C   UNL     1     -20.496  -8.082  -2.320  1.00  0.00     0.042 C 
HETATM   15  C   UNL     1     -22.264  -6.631  -1.240  1.00  0.00     0.042 C 
ENDBRANCH  11  12
ENDBRANCH  10  11
ENDBRANCH   1  10
BRANCH   1  16
HETATM   16  O   UNL     1     -19.824  -6.698  -7.191  1.00  0.00    -0.390 OA
HETATM   17  H   UNL     1     -19.488  -6.901  -8.079  1.00  0.00     0.210 HD
ENDBRANCH   1  16
TORSDOF 5
ENDMDL
MODEL 2
REMARK VINA RESULT:      -7.3      1.258      7.131
REMARK  5 active torsions:
REMARK  status: ('A' for Active; 'I' for Inactive)
REMARK    1  A    between atoms: C_5  and  C_8 
REMARK    2  A    between atoms: C_8  and  C_10 
REMARK    3  A    between atoms: C_8  and  O_16 
REMARK    4  A    between atoms: C_10  and  C_11 
REMARK    5  A    between atoms: C_11  and  C_12 
ROOT
HETATM    1  C   UNL     1     -21.074  -6.277  -5.252  1.00  0.00     0.058 C 
HETATM    2  C   UNL     1     -22.498  -5.963  -5.744  1.00  0.00     0.046 C 
ENDROOT
BRANCH   1   3
HETATM    3  C   UNL     1     -21.030  -6.609  -3.718  1.00  0.00     0.023 C 
HETATM    4  C   UNL     1     -20.632  -8.076  -3.419  1.00  0.00     0.035 C 
HETATM    5  C   UNL     1     -20.817  -8.485  -1.983  1.00  0.00    -0.024 C 
HETATM    6  C   UNL     1     -21.495  -7.760  -1.078  1.00  0.00    -0.087 C 
HETATM    7  C   UNL     1     -21.647  -8.203   0.350  1.00  0.00     0.043 C 
HETATM    8  C   UNL     1     -22.154  -6.456  -1.444  1.00  0.00     0.034 C 
HETATM    9  C   UNL     1     -22.324  -6.264  -2.958  1.00  0.00     0.012 C 
ENDBRANCH   1   3
BRANCH   1  10
HETATM   10  C   UNL     1     -20.128  -5.110  -5.664  1.00  0.00     0.041 C 
BRANCH  10  11
HETATM   11  C   UNL     1     -20.732  -4.205  -6.747  1.00  0.00     0.030 C 
BRANCH  11  12
HETATM   12  C   UNL     1     -20.228  -4.432  -8.148  1.00  0.00    -0.025 C 
HETATM   13  C   UNL     1     -20.969  -4.400  -9.274  1.00  0.00    -0.091 C 
HETATM   14  C   UNL     1     -22.471  -4.341  -9.300  1.00  0.00     0.042 C 
HETATM   15  C   UNL     1     -20.321  -4.374 -10.632  1.00  0.00     0.042 C 
ENDBRANCH  11  12
ENDBRANCH  10  11
ENDBRANCH   1  10
BRANCH   1  16
HETATM   16  O   UNL     1     -20.627  -7.428  -5.980  1.00  0.00    -0.390 OA
HETATM   17  H   UNL     1     -21.106  -8.210  -5.659  1.00  0.00     0.210 HD
ENDBRANCH   1  16
TORSDOF 5
ENDMDL
MODEL 3
REMARK VINA RESULT:      -7.2      1.214      1.906
REMARK  5 active torsions:
REMARK  status: ('A' for Active; 'I' for Inactive)
REMARK    1  A    between atoms: C_5  and  C_8 
REMARK    2  A    between atoms: C_8  and  C_10 
REMARK    3  A    between atoms: C_8  and  O_16 
REMARK    4  A    between atoms: C_10  and  C_11 
REMARK    5  A    between atoms: C_11  and  C_12 
ROOT
HETATM    1  C   UNL     1     -20.425  -4.783  -7.582  1.00  0.00     0.058 C 
HETATM    2  C   UNL     1     -18.922  -4.506  -7.413  1.00  0.00     0.046 C 
ENDROOT
BRANCH   1   3
HETATM    3  C   UNL     1     -21.046  -4.005  -8.796  1.00  0.00     0.023 C 
HETATM    4  C   UNL     1     -22.585  -4.144  -8.892  1.00  0.00     0.035 C 
HETATM    5  C   UNL     1     -23.174  -3.616 -10.172  1.00  0.00    -0.024 C 
HETATM    6  C   UNL     1     -22.447  -3.285 -11.252  1.00  0.00    -0.087 C 
HETATM    7  C   UNL     1     -23.076  -2.752 -12.507  1.00  0.00     0.043 C 
HETATM    8  C   UNL     1     -20.948  -3.436 -11.271  1.00  0.00     0.034 C 
HETATM    9  C   UNL     1     -20.414  -4.349 -10.158  1.00  0.00     0.012 C 
ENDBRANCH   1   3
BRANCH   1  10
HETATM   10  C   UNL     1     -21.146  -4.503  -6.229  1.00  0.00     0.041 C 
BRANCH  10  11
HETATM   11  C   UNL     1     -20.444  -5.156  -5.031  1.00  0.00     0.030 C 
BRANCH  11  12
HETATM   12  C   UNL     1     -21.204  -6.262  -4.347  1.00  0.00    -0.025 C 
HETATM   13  C   UNL     1     -20.845  -7.560  -4.296  1.00  0.00    -0.091 C 
HETATM   14  C   UNL     1     -19.726  -8.164  -5.098  1.00  0.00     0.042 C 
HETATM   15  C   UNL     1     -21.533  -8.523  -3.365  1.00  0.00     0.042 C 
ENDBRANCH  11  12
ENDBRANCH  10  11
ENDBRANCH   1  10
BRANCH   1  16
HETATM   16  O   UNL     1     -20.565  -6.189  -7.824  1.00  0.00    -0.390 OA
HETATM   17  H   UNL     1     -20.751  -6.638  -6.982  1.00  0.00     0.210 HD
ENDBRANCH   1  16
TORSDOF 5
ENDMDL
MODEL 4
REMARK VINA RESULT:      -7.1      4.372      7.839
REMARK  5 active torsions:
REMARK  status: ('A' for Active; 'I' for Inactive)
REMARK    1  A    between atoms: C_5  and  C_8 
REMARK    2  A    between atoms: C_8  and  C_10 
REMARK    3  A    between atoms: C_8  and  O_16 
REMARK    4  A    between atoms: C_10  and  C_11 
REMARK    5  A    between atoms: C_11  and  C_12 
ROOT
HETATM    1  C   UNL     1     -21.984  -8.708   0.214  1.00  0.00     0.058 C 
HETATM    2  C   UNL     1     -23.298  -8.123   0.760  1.00  0.00     0.046 C 
ENDROOT
BRANCH   1   3
HETATM    3  C   UNL     1     -21.460  -7.932  -1.046  1.00  0.00     0.023 C 
HETATM    4  C   UNL     1     -22.252  -6.633  -1.340  1.00  0.00     0.035 C 
HETATM    5  C   UNL     1     -21.933  -6.003  -2.668  1.00  0.00    -0.024 C 
HETATM    6  C   UNL     1     -21.229  -6.611  -3.637  1.00  0.00    -0.087 C 
HETATM    7  C   UNL     1     -20.926  -5.940  -4.947  1.00  0.00     0.043 C 
HETATM    8  C   UNL     1     -20.706  -8.014  -3.471  1.00  0.00     0.034 C 
HETATM    9  C   UNL     1     -21.380  -8.784  -2.327  1.00  0.00     0.012 C 
ENDBRANCH   1   3
BRANCH   1  10
HETATM   10  C   UNL     1     -22.176 -10.235  -0.031  1.00  0.00     0.041 C 
BRANCH  10  11
HETATM   11  C   UNL     1     -23.651 -10.641  -0.147  1.00  0.00     0.030 C 
BRANCH  11  12
HETATM   12  C   UNL     1     -23.923 -11.926  -0.884  1.00  0.00    -0.025 C 
HETATM   13  C   UNL     1     -23.858 -13.169  -0.365  1.00  0.00    -0.091 C 
HETATM   14  C   UNL     1     -23.293 -13.495   0.990  1.00  0.00     0.042 C 
HETATM   15  C   UNL     1     -24.406 -14.355  -1.113  1.00  0.00     0.042 C 
ENDBRANCH  11  12
ENDBRANCH  10  11
ENDBRANCH   1  10
BRANCH   1  16
HETATM   16  O   UNL     1     -21.010  -8.592   1.258  1.00  0.00    -0.390 OA
HETATM   17  H   UNL     1     -20.393  -7.874   1.036  1.00  0.00     0.210 HD
ENDBRANCH   1  16
TORSDOF 5
ENDMDL
MODEL 5
REMARK VINA RESULT:      -7.0      1.726      6.926
REMARK  5 active torsions:
REMARK  status: ('A' for Active; 'I' for Inactive)
REMARK    1  A    between atoms: C_5  and  C_8 
REMARK    2  A    between atoms: C_8  and  C_10 
REMARK    3  A    between atoms: C_8  and  O_16 
REMARK    4  A    between atoms: C_10  and  C_11 
REMARK    5  A    between atoms: C_11  and  C_12 
ROOT
HETATM    1  C   UNL     1     -21.464  -4.546  -8.101  1.00  0.00     0.058 C 
HETATM    2  C   UNL     1     -20.095  -4.232  -8.730  1.00  0.00     0.046 C 
ENDROOT
BRANCH   1   3
HETATM    3  C   UNL     1     -21.397  -5.744  -7.088  1.00  0.00     0.023 C 
HETATM    4  C   UNL     1     -22.454  -5.651  -5.959  1.00  0.00     0.035 C 
HETATM    5  C   UNL     1     -22.258  -6.645  -4.846  1.00  0.00    -0.024 C 
HETATM    6  C   UNL     1     -21.146  -7.381  -4.686  1.00  0.00    -0.087 C 
HETATM    7  C   UNL     1     -20.996  -8.369  -3.565  1.00  0.00     0.043 C 
HETATM    8  C   UNL     1     -19.972  -7.253  -5.622  1.00  0.00     0.034 C 
HETATM    9  C   UNL     1     -20.005  -5.973  -6.468  1.00  0.00     0.012 C 
ENDBRANCH   1   3
BRANCH   1  10
HETATM   10  C   UNL     1     -22.507  -4.752  -9.240  1.00  0.00     0.041 C 
BRANCH  10  11
HETATM   11  C   UNL     1     -23.592  -3.667  -9.260  1.00  0.00     0.030 C 
BRANCH  11  12
HETATM   12  C   UNL     1     -24.135  -3.307 -10.617  1.00  0.00    -0.025 C 
HETATM   13  C   UNL     1     -23.408  -2.980 -11.704  1.00  0.00    -0.091 C 
HETATM   14  C   UNL     1     -21.928  -2.712 -11.686  1.00  0.00     0.042 C 
HETATM   15  C   UNL     1     -24.038  -2.901 -13.069  1.00  0.00     0.042 C 
ENDBRANCH  11  12
ENDBRANCH  10  11
ENDBRANCH   1  10
BRANCH   1  16
HETATM   16  O   UNL     1     -21.876  -3.371  -7.391  1.00  0.00    -0.390 OA
HETATM   17  H   UNL     1     -22.831  -3.424  -7.221  1.00  0.00     0.210 HD
ENDBRANCH   1  16
TORSDOF 5
ENDMDL
MODEL 6
REMARK VINA RESULT:      -6.8      4.044      8.804
REMARK  5 active torsions:
REMARK  status: ('A' for Active; 'I' for Inactive)
REMARK    1  A    between atoms: C_5  and  C_8 
REMARK    2  A    between atoms: C_8  and  C_10 
REMARK    3  A    between atoms: C_8  and  O_16 
REMARK    4  A    between atoms: C_10  and  C_11 
REMARK    5  A    between atoms: C_11  and  C_12 
ROOT
HETATM    1  C   UNL     1     -22.242  -8.367   0.053  1.00  0.00     0.058 C 
HETATM    2  C   UNL     1     -21.617  -8.119   1.436  1.00  0.00     0.046 C 
ENDROOT
BRANCH   1   3
HETATM    3  C   UNL     1     -22.462  -9.894  -0.240  1.00  0.00     0.023 C 
HETATM    4  C   UNL     1     -22.063 -10.306  -1.679  1.00  0.00     0.035 C 
HETATM    5  C   UNL     1     -22.487 -11.697  -2.064  1.00  0.00    -0.024 C 
HETATM    6  C   UNL     1     -23.348 -12.442  -1.351  1.00  0.00    -0.087 C 
HETATM    7  C   UNL     1     -23.737 -13.832  -1.767  1.00  0.00     0.043 C 
HETATM    8  C   UNL     1     -23.985 -11.923  -0.089  1.00  0.00     0.034 C 
HETATM    9  C   UNL     1     -23.887 -10.398   0.060  1.00  0.00     0.012 C 
ENDBRANCH   1   3
BRANCH   1  10
HETATM   10  C   UNL     1     -21.383  -7.643  -1.027  1.00  0.00     0.041 C 
BRANCH  10  11
HETATM   11  C   UNL     1     -22.177  -6.597  -1.820  1.00  0.00     0.030 C 
BRANCH  11  12
HETATM   12  C   UNL     1     -21.433  -5.917  -2.938  1.00  0.00    -0.025 C 
HETATM   13  C   UNL     1     -21.336  -6.354  -4.210  1.00  0.00    -0.091 C 
HETATM   14  C   UNL     1     -21.780  -7.712  -4.678  1.00  0.00     0.042 C 
HETATM   15  C   UNL     1     -20.798  -5.466  -5.300  1.00  0.00     0.042 C 
ENDBRANCH  11  12
ENDBRANCH  10  11
ENDBRANCH   1  10
BRANCH   1  16
HETATM   16  O   UNL     1     -23.519  -7.715   0.050  1.00  0.00    -0.390 OA
HETATM   17  H   UNL     1     -23.873  -7.710   0.954  1.00  0.00     0.210 HD
ENDBRANCH   1  16
TORSDOF 5
ENDMDL
MODEL 7
REMARK VINA RESULT:      -6.3     14.305     15.041
REMARK  5 active torsions:
REMARK  status: ('A' for Active; 'I' for Inactive)
REMARK    1  A    between atoms: C_5  and  C_8 
REMARK    2  A    between atoms: C_8  and  C_10 
REMARK    3  A    between atoms: C_8  and  O_16 
REMARK    4  A    between atoms: C_10  and  C_11 
REMARK    5  A    between atoms: C_11  and  C_12 
ROOT
HETATM    1  C   UNL     1     -24.773   7.492  -3.605  1.00  0.00     0.058 C 
HETATM    2  C   UNL     1     -25.318   6.620  -4.749  1.00  0.00     0.046 C 
ENDROOT
BRANCH   1   3
HETATM    3  C   UNL     1     -23.623   8.451  -4.079  1.00  0.00     0.023 C 
HETATM    4  C   UNL     1     -22.205   7.890  -3.809  1.00  0.00     0.035 C 
HETATM    5  C   UNL     1     -21.096   8.883  -4.026  1.00  0.00    -0.024 C 
HETATM    6  C   UNL     1     -21.291  10.201  -4.190  1.00  0.00    -0.087 C 
HETATM    7  C   UNL     1     -20.154  11.157  -4.414  1.00  0.00     0.043 C 
HETATM    8  C   UNL     1     -22.670  10.806  -4.149  1.00  0.00     0.034 C 
HETATM    9  C   UNL     1     -23.722   9.883  -3.518  1.00  0.00     0.012 C 
ENDBRANCH   1   3
BRANCH   1  10
HETATM   10  C   UNL     1     -24.364   6.570  -2.418  1.00  0.00     0.041 C 
BRANCH  10  11
HETATM   11  C   UNL     1     -24.680   7.184  -1.047  1.00  0.00     0.030 C 
BRANCH  11  12
HETATM   12  C   UNL     1     -23.525   7.844  -0.342  1.00  0.00    -0.025 C 
HETATM   13  C   UNL     1     -23.599   8.586   0.781  1.00  0.00    -0.091 C 
HETATM   14  C   UNL     1     -24.883   9.060   1.403  1.00  0.00     0.042 C 
HETATM   15  C   UNL     1     -22.359   8.970   1.545  1.00  0.00     0.042 C 
ENDBRANCH  11  12
ENDBRANCH  10  11
ENDBRANCH   1  10
BRANCH   1  16
HETATM   16  O   UNL     1     -25.865   8.290  -3.132  1.00  0.00    -0.390 OA
HETATM   17  H   UNL     1     -26.387   7.768  -2.501  1.00  0.00     0.210 HD
ENDBRANCH   1  16
TORSDOF 5
ENDMDL
MODEL 8
REMARK VINA RESULT:      -6.2     14.618     16.111
REMARK  5 active torsions:
REMARK  status: ('A' for Active; 'I' for Inactive)
REMARK    1  A    between atoms: C_5  and  C_8 
REMARK    2  A    between atoms: C_8  and  C_10 
REMARK    3  A    between atoms: C_8  and  O_16 
REMARK    4  A    between atoms: C_10  and  C_11 
REMARK    5  A    between atoms: C_11  and  C_12 
ROOT
HETATM    1  C   UNL     1     -24.044   6.750  -1.711  1.00  0.00     0.058 C 
HETATM    2  C   UNL     1     -25.178   6.931  -2.735  1.00  0.00     0.046 C 
ENDROOT
BRANCH   1   3
HETATM    3  C   UNL     1     -24.376   7.410  -0.326  1.00  0.00     0.023 C 
HETATM    4  C   UNL     1     -25.805   8.006  -0.257  1.00  0.00     0.035 C 
HETATM    5  C   UNL     1     -26.063   8.852   0.960  1.00  0.00    -0.024 C 
HETATM    6  C   UNL     1     -25.100   9.280   1.794  1.00  0.00    -0.087 C 
HETATM    7  C   UNL     1     -25.404  10.116   3.004  1.00  0.00     0.043 C 
HETATM    8  C   UNL     1     -23.649   8.952   1.559  1.00  0.00     0.034 C 
HETATM    9  C   UNL     1     -23.356   8.471   0.131  1.00  0.00     0.012 C 
ENDBRANCH   1   3
BRANCH   1  10
HETATM   10  C   UNL     1     -22.712   7.258  -2.339  1.00  0.00     0.041 C 
BRANCH  10  11
HETATM   11  C   UNL     1     -22.932   8.158  -3.562  1.00  0.00     0.030 C 
BRANCH  11  12
HETATM   12  C   UNL     1     -21.689   8.741  -4.180  1.00  0.00    -0.025 C 
HETATM   13  C   UNL     1     -21.089   9.894  -3.822  1.00  0.00    -0.091 C 
HETATM   14  C   UNL     1     -21.684  10.904  -2.881  1.00  0.00     0.042 C 
HETATM   15  C   UNL     1     -19.712  10.244  -4.321  1.00  0.00     0.042 C 
ENDBRANCH  11  12
ENDBRANCH  10  11
ENDBRANCH   1  10
BRANCH   1  16
HETATM   16  O   UNL     1     -23.880   5.339  -1.515  1.00  0.00    -0.390 OA
HETATM   17  H   UNL     1     -24.547   5.030  -0.879  1.00  0.00     0.210 HD
ENDBRANCH   1  16
TORSDOF 5
ENDMDL
MODEL 9
REMARK VINA RESULT:      -6.2      4.863      6.799
REMARK  5 active torsions:
REMARK  status: ('A' for Active; 'I' for Inactive)
REMARK    1  A    between atoms: C_5  and  C_8 
REMARK    2  A    between atoms: C_8  and  C_10 
REMARK    3  A    between atoms: C_8  and  O_16 
REMARK    4  A    between atoms: C_10  and  C_11 
REMARK    5  A    between atoms: C_11  and  C_12 
ROOT
HETATM    1  C   UNL     1     -21.045  -8.508  -4.471  1.00  0.00     0.058 C 
HETATM    2  C   UNL     1     -21.966  -9.630  -3.961  1.00  0.00     0.046 C 
ENDROOT
BRANCH   1   3
HETATM    3  C   UNL     1     -19.531  -8.791  -4.165  1.00  0.00     0.023 C 
HETATM    4  C   UNL     1     -18.723  -9.226  -5.413  1.00  0.00     0.035 C 
HETATM    5  C   UNL     1     -17.341  -9.735  -5.108  1.00  0.00    -0.024 C 
HETATM    6  C   UNL     1     -16.908 -10.036  -3.873  1.00  0.00    -0.087 C 
HETATM    7  C   UNL     1     -15.515 -10.533  -3.612  1.00  0.00     0.043 C 
HETATM    8  C   UNL     1     -17.803  -9.901  -2.668  1.00  0.00     0.034 C 
HETATM    9  C   UNL     1     -19.293  -9.799  -3.024  1.00  0.00     0.012 C 
ENDBRANCH   1   3
BRANCH   1  10
HETATM   10  C   UNL     1     -21.549  -7.146  -3.908  1.00  0.00     0.041 C 
BRANCH  10  11
HETATM   11  C   UNL     1     -21.123  -6.904  -2.454  1.00  0.00     0.030 C 
BRANCH  11  12
HETATM   12  C   UNL     1     -22.204  -7.061  -1.418  1.00  0.00    -0.025 C 
HETATM   13  C   UNL     1     -22.182  -7.904  -0.367  1.00  0.00    -0.091 C 
HETATM   14  C   UNL     1     -21.160  -8.990  -0.171  1.00  0.00     0.042 C 
HETATM   15  C   UNL     1     -23.187  -7.788   0.748  1.00  0.00     0.042 C 
ENDBRANCH  11  12
ENDBRANCH  10  11
ENDBRANCH   1  10
BRANCH   1  16
HETATM   16  O   UNL     1     -21.217  -8.441  -5.892  1.00  0.00    -0.390 OA
HETATM   17  H   UNL     1     -21.500  -7.543  -6.134  1.00  0.00     0.210 HD
ENDBRANCH   1  16
TORSDOF 5
ENDMDL
