MODEL 1
REMARK VINA RESULT:      -2.1      0.000      0.000
REMARK  3 active torsions:
REMARK  status: ('A' for Active; 'I' for Inactive)
REMARK    1  A    between atoms: C_11  and  N_36 
REMARK    2  A    between atoms: N_28  and  C_29 
REMARK    3  A    between atoms: C_69  and  C_70 
ROOT
HETATM    1  C   UNL     1     -17.704 -13.114  -1.936  1.00  0.00     0.041 A 
HETATM    2  C   UNL     1     -16.622 -11.862  -1.230  1.00  0.00     0.055 A 
HETATM    3  C   UNL     1     -15.769 -10.695  -2.296  1.00  0.00     0.000 A 
HETATM    4  C   UNL     1     -15.889 -10.878  -4.081  1.00  0.00     0.076 A 
HETATM    5  C   UNL     1     -16.972 -12.137  -4.825  1.00  0.00     0.072 A 
HETATM    6  C   UNL     1     -17.821 -13.303  -3.745  1.00  0.00     0.206 A 
HETATM    7  N   UNL     1     -18.479 -14.392  -4.357  1.00  0.00    -0.014 N 
HETATM    8  C   UNL     1     -18.911 -15.611  -3.909  1.00  0.00     0.260 C 
HETATM    9  N   UNL     1     -19.778 -16.404  -4.467  1.00  0.00    -0.316 N 
ATOM     10  HN  UNL     1     -19.932 -17.342  -4.098  1.00  0.00     0.169 HD
HETATM   11  C   UNL     1     -20.474 -15.969  -5.547  1.00  0.00     0.149 C 
HETATM   12  N   UNL     1     -21.755 -16.071  -5.609  1.00  0.00    -0.356 N 
ATOM     13  HN  UNL     1     -22.248 -15.675  -6.410  1.00  0.00     0.163 HD
HETATM   14  C   UNL     1     -22.528 -16.748  -4.545  1.00  0.00     0.260 A 
HETATM   15  C   UNL     1     -22.588 -15.947  -3.239  1.00  0.00     0.432 C 
HETATM   16  C   UNL     1     -23.536 -16.473  -2.145  1.00  0.00     0.076 C 
HETATM   17  C   UNL     1     -25.024 -16.345  -2.468  1.00  0.00     0.059 C 
HETATM   18  C   UNL     1     -25.899 -16.621  -1.236  1.00  0.00    -0.014 C 
HETATM   19  C   UNL     1     -27.375 -16.496  -1.607  1.00  0.00     0.057 C 
HETATM   20  N   UNL     1     -28.187 -16.802  -0.443  1.00  0.00    -0.383 N 
ATOM     21  HN  UNL     1     -27.751 -17.146   0.412  1.00  0.00     0.160 HD
HETATM   22  C   UNL     1     -29.458 -16.636  -0.502  1.00  0.00     0.146 C 
HETATM   23  N   UNL     1     -30.157 -16.197  -1.588  1.00  0.00     0.000 N 
HETATM   24  N   UNL     1     -30.070 -16.866   0.687  1.00  0.00    -0.318 N 
ATOM     25  HN  UNL     1     -29.467 -16.928   1.507  1.00  0.00     0.169 HD
HETATM   26  C   UNL     1     -31.338 -17.014   0.886  1.00  0.00     0.241 C 
HETATM   27  N   UNL     1     -32.307 -16.994  -0.074  1.00  0.00     0.000 N 
HETATM   28  N   UNL     1     -31.872 -17.175   2.144  1.00  0.00    -0.074 N 
HETATM   29  N   UNL     1     -19.780 -15.459  -6.606  1.00  0.00     0.000 NA
HETATM   30  N   UNL     1     -18.307 -16.147  -2.816  1.00  0.00     0.000 NA
HETATM   31 CL   UNL     1     -14.647  -9.590  -1.617  1.00  0.00    -0.093 Cl
HETATM   32  H   UNL     1     -18.825 -14.150  -5.280  1.00  0.00     0.289 HD
HETATM   33  H   UNL     1     -29.577 -15.780  -2.300  1.00  0.00     0.017 HD
HETATM   34  H   UNL     1     -30.889 -15.561  -1.288  1.00  0.00     0.017 HD
HETATM   35  H   UNL     1     -31.966 -17.287  -0.987  1.00  0.00     0.024 HD
HETATM   36  H   UNL     1     -33.216 -17.363   0.159  1.00  0.00     0.028 HD
HETATM   37  H   UNL     1     -32.639 -17.824   2.232  1.00  0.00     0.267 HD
HETATM   38  H   UNL     1     -18.881 -15.923  -6.692  1.00  0.00     0.000 HD
HETATM   39  H   UNL     1     -20.324 -15.565  -7.456  1.00  0.00     0.000 HD
HETATM   40  H   UNL     1     -18.748 -15.781  -1.978  1.00  0.00     0.000 HD
HETATM   41  H   UNL     1     -18.579 -17.133  -2.803  1.00  0.00     0.000 HD
HETATM   42  C   UNL     2     -15.976 -12.665  -3.081  1.00  0.00    -0.025 C 
HETATM   43  C   UNL     2     -17.698 -11.300  -3.044  1.00  0.00     0.008 C 
HETATM   44  C   UNL     2     -18.203  -9.845  -3.999  1.00  0.00     0.185 C 
HETATM   45  C   UNL     2     -19.171  -8.867  -3.172  1.00  0.00     0.004 C 
HETATM   46  C   UNL     2     -20.157  -7.926  -3.938  1.00  0.00     0.039 C 
HETATM   47  C   UNL     2     -20.303  -8.104  -5.437  1.00  0.00     0.052 C 
HETATM   48  O   UNL     2     -19.506  -8.641  -6.192  1.00  0.00    -0.656 OA
HETATM   49  O   UNL     2     -21.465  -7.597  -5.897  1.00  0.00    -0.962 OA
HETATM   50  O   UNL     2     -21.521  -8.011  -3.439  1.00  0.00     0.000 OA
HETATM   51  O   UNL     2     -19.893  -9.466  -2.091  1.00  0.00     0.000 OA
HETATM   52  O   UNL     2     -17.244  -8.979  -4.609  1.00  0.00     0.000 OA
HETATM   53  O   UNL     2     -19.254 -11.760  -3.008  1.00  0.00     0.000 OA
HETATM   54  O   UNL     2     -15.837 -14.104  -2.605  1.00  0.00     0.000 OA
HETATM   55  H   UNL     2     -21.944  -6.932  -5.357  1.00  0.00     0.013 HD
HETATM   56  H   UNL     2     -21.783  -8.950  -3.514  1.00  0.00     0.000 HD
HETATM   57  H   UNL     2     -19.924 -10.441  -2.209  1.00  0.00     0.000 HD
HETATM   58  H   UNL     2     -17.421  -8.996  -5.572  1.00  0.00     0.018 HD
HETATM   59  H   UNL     2     -19.501 -11.991  -3.926  1.00  0.00     0.018 HD
HETATM   60  H   UNL     2     -16.141 -14.702  -3.306  1.00  0.00     0.056 HD
HETATM   61  C   UNL     3     -15.836 -16.059  -0.347  1.00  0.00    -0.011 C 
HETATM   62  C   UNL     3     -14.530 -15.317  -0.063  1.00  0.00    -0.004 C 
HETATM   63  C   UNL     3     -13.432 -16.114   0.644  1.00  0.00     0.006 C 
HETATM   64  C   UNL     3     -12.083 -15.328   0.690  1.00  0.00     0.028 C 
HETATM   65  C   UNL     3     -12.147 -13.937   1.380  1.00  0.00     0.203 C 
HETATM   66  C   UNL     3     -10.783 -13.257   1.276  1.00  0.00     0.155 A 
HETATM   67  O   UNL     3      -9.804 -13.544   1.947  1.00  0.00    -0.356 OA
HETATM   68  O   UNL     3     -10.764 -12.263   0.349  1.00  0.00     0.000 OA
HETATM   69  O   UNL     3     -13.068 -13.019   0.739  1.00  0.00     0.000 OA
HETATM   70  O   UNL     3     -11.117 -16.182   1.315  1.00  0.00     0.000 OA
HETATM   71  O   UNL     3     -13.790 -16.517   1.971  1.00  0.00     0.000 OA
HETATM   72  O   UNL     3     -13.909 -14.773  -1.237  1.00  0.00     0.000 OA
HETATM   73  O   UNL     3     -15.654 -17.170  -1.212  1.00  0.00     0.000 OA
HETATM   74  H   UNL     3     -11.695 -12.084   0.088  1.00  0.00     0.000 HD
HETATM   75  H   UNL     3     -13.265 -13.346  -0.170  1.00  0.00     0.000 HD
HETATM   76  H   UNL     3     -11.565 -16.602   2.076  1.00  0.00     0.000 HD
HETATM   77  H   UNL     3     -14.437 -15.888   2.332  1.00  0.00     0.000 HD
HETATM   78  H   UNL     3     -13.787 -15.514  -1.862  1.00  0.00     0.000 HD
HETATM   79  H   UNL     3     -16.171 -16.971  -2.016  1.00  0.00     0.000 HD
ENDROOT
BRANCH  28  80
HETATM   80  C   UNL     1     -31.114 -17.004   3.324  1.00  0.00     0.180 A 
HETATM   81  C   UNL     1     -29.735 -16.754   3.248  1.00  0.00     0.045 A 
HETATM   82  C   UNL     1     -28.943 -16.690   4.395  1.00  0.00     0.220 A 
HETATM   83  C   UNL     1     -29.530 -16.869   5.641  1.00  0.00    -0.006 A 
HETATM   84  C   UNL     1     -30.900 -17.106   5.744  1.00  0.00     0.014 A 
HETATM   85 CL   UNL     1     -28.553 -16.817   7.055  1.00  0.00    -0.093 Cl
HETATM   86  C   UNL     1     -31.692 -17.174   4.589  1.00  0.00     0.006 A 
ENDBRANCH  28  80
TORSDOF 3
ENDMDL
