MODEL 1
REMARK VINA RESULT:      -6.3      0.000      0.000
REMARK  16 active torsions:
REMARK  status: ('A' for Active; 'I' for Inactive)
REMARK    1  A    between atoms: C_2  and  C_3 
REMARK    2  A    between atoms: C_3  and  C_4 
REMARK    3  A    between atoms: C_4  and  C_5 
REMARK    4  A    between atoms: C_5  and  C_6 
REMARK    5  A    between atoms: C_6  and  C_7 
REMARK    6  A    between atoms: C_7  and  C_8 
REMARK    7  A    between atoms: C_8  and  O_9 
REMARK    8  A    between atoms: O_9  and  C_10 
REMARK    9  A    between atoms: C_10  and  O_12 
REMARK   10  A    between atoms: O_12  and  C_13 
REMARK   11  A    between atoms: C_13  and  C_14 
REMARK   12  A    between atoms: C_14  and  C_15 
REMARK   13  A    between atoms: C_15  and  C_16 
REMARK   14  A    between atoms: C_16  and  C_17 
REMARK   15  A    between atoms: C_17  and  C_18 
REMARK   16  A    between atoms: C_18  and  C_19 
ROOT
HETATM    1  C   UNL     1     -21.104  -6.237  -5.596  1.00  0.00     0.406 C 
HETATM    2  O   UNL     1     -21.065  -7.237  -6.310  1.00  0.00    -0.230 OA
ENDROOT
BRANCH   1   3
HETATM    3  O   UNL     1     -20.330  -5.126  -5.720  1.00  0.00    -0.298 OA
BRANCH   3   4
HETATM    4  C   UNL     1     -20.824  -4.129  -6.617  1.00  0.00     0.181 C 
BRANCH   4   5
HETATM    5  C   UNL     1     -20.103  -4.146  -7.962  1.00  0.00     0.027 C 
BRANCH   5   6
HETATM    6  C   UNL     1     -21.091  -4.355  -9.113  1.00  0.00     0.002 C 
BRANCH   6   7
HETATM    7  C   UNL     1     -20.365  -4.530 -10.444  1.00  0.00     0.000 C 
BRANCH   7   8
HETATM    8  C   UNL     1     -21.272  -4.161 -11.615  1.00  0.00     0.000 C 
BRANCH   8   9
HETATM    9  C   UNL     1     -22.165  -2.981 -11.251  1.00  0.00    -0.000 C 
BRANCH   9  10
HETATM   10  C   UNL     1     -23.615  -3.256 -11.639  1.00  0.00    -0.005 C 
HETATM   11  C   UNL     1     -24.470  -3.458 -10.401  1.00  0.00     0.005 C 
ENDBRANCH   9  10
ENDBRANCH   8   9
ENDBRANCH   7   8
ENDBRANCH   6   7
ENDBRANCH   5   6
ENDBRANCH   4   5
ENDBRANCH   3   4
ENDBRANCH   1   3
BRANCH   1  12
HETATM   12  O   UNL     1     -21.931  -6.036  -4.534  1.00  0.00    -0.298 OA
BRANCH  12  13
HETATM   13  C   UNL     1     -21.549  -6.695  -3.325  1.00  0.00     0.181 C 
BRANCH  13  14
HETATM   14  C   UNL     1     -21.989  -5.930  -2.081  1.00  0.00     0.027 C 
BRANCH  14  15
HETATM   15  C   UNL     1     -22.340  -6.891  -0.940  1.00  0.00     0.002 C 
BRANCH  15  16
HETATM   16  C   UNL     1     -21.338  -8.040  -0.853  1.00  0.00     0.000 C 
BRANCH  16  17
HETATM   17  C   UNL     1     -21.503  -8.810   0.454  1.00  0.00     0.000 C 
BRANCH  17  18
HETATM   18  C   UNL     1     -21.677 -10.300   0.180  1.00  0.00    -0.000 C 
BRANCH  18  19
HETATM   19  C   UNL     1     -22.761 -10.537  -0.868  1.00  0.00    -0.005 C 
HETATM   20  C   UNL     1     -24.053 -10.983  -0.208  1.00  0.00     0.005 C 
ENDBRANCH  18  19
ENDBRANCH  17  18
ENDBRANCH  16  17
ENDBRANCH  15  16
ENDBRANCH  14  15
ENDBRANCH  13  14
ENDBRANCH  12  13
ENDBRANCH   1  12
TORSDOF 16
ENDMDL
MODEL 2
REMARK VINA RESULT:      -6.1      1.085      1.492
REMARK  16 active torsions:
REMARK  status: ('A' for Active; 'I' for Inactive)
REMARK    1  A    between atoms: C_2  and  C_3 
REMARK    2  A    between atoms: C_3  and  C_4 
REMARK    3  A    between atoms: C_4  and  C_5 
REMARK    4  A    between atoms: C_5  and  C_6 
REMARK    5  A    between atoms: C_6  and  C_7 
REMARK    6  A    between atoms: C_7  and  C_8 
REMARK    7  A    between atoms: C_8  and  O_9 
REMARK    8  A    between atoms: O_9  and  C_10 
REMARK    9  A    between atoms: C_10  and  O_12 
REMARK   10  A    between atoms: O_12  and  C_13 
REMARK   11  A    between atoms: C_13  and  C_14 
REMARK   12  A    between atoms: C_14  and  C_15 
REMARK   13  A    between atoms: C_15  and  C_16 
REMARK   14  A    between atoms: C_16  and  C_17 
REMARK   15  A    between atoms: C_17  and  C_18 
REMARK   16  A    between atoms: C_18  and  C_19 
ROOT
HETATM    1  C   UNL     1     -20.964  -6.872  -5.214  1.00  0.00     0.406 C 
HETATM    2  O   UNL     1     -20.105  -7.497  -5.832  1.00  0.00    -0.230 OA
ENDROOT
BRANCH   1   3
HETATM    3  O   UNL     1     -21.219  -5.540  -5.310  1.00  0.00    -0.298 OA
BRANCH   3   4
HETATM    4  C   UNL     1     -20.104  -4.725  -5.676  1.00  0.00     0.181 C 
BRANCH   4   5
HETATM    5  C   UNL     1     -20.221  -4.180  -7.097  1.00  0.00     0.027 C 
BRANCH   5   6
HETATM    6  C   UNL     1     -21.686  -3.941  -7.476  1.00  0.00     0.002 C 
BRANCH   6   7
HETATM    7  C   UNL     1     -21.888  -4.015  -8.987  1.00  0.00     0.000 C 
BRANCH   7   8
HETATM    8  C   UNL     1     -20.548  -4.061  -9.716  1.00  0.00     0.000 C 
BRANCH   8   9
HETATM    9  C   UNL     1     -20.759  -4.059 -11.226  1.00  0.00    -0.000 C 
BRANCH   9  10
HETATM   10  C   UNL     1     -22.246  -4.055 -11.567  1.00  0.00    -0.005 C 
HETATM   11  C   UNL     1     -22.517  -3.166 -12.767  1.00  0.00     0.005 C 
ENDBRANCH   9  10
ENDBRANCH   8   9
ENDBRANCH   7   8
ENDBRANCH   6   7
ENDBRANCH   5   6
ENDBRANCH   4   5
ENDBRANCH   3   4
ENDBRANCH   1   3
BRANCH   1  12
HETATM   12  O   UNL     1     -21.839  -7.385  -4.306  1.00  0.00    -0.298 OA
BRANCH  12  13
HETATM   13  C   UNL     1     -21.349  -7.480  -2.968  1.00  0.00     0.181 C 
BRANCH  13  14
HETATM   14  C   UNL     1     -21.995  -6.459  -2.037  1.00  0.00     0.027 C 
BRANCH  14  15
HETATM   15  C   UNL     1     -22.420  -7.109  -0.716  1.00  0.00     0.002 C 
BRANCH  15  16
HETATM   16  C   UNL     1     -21.343  -8.056  -0.191  1.00  0.00     0.000 C 
BRANCH  16  17
HETATM   17  C   UNL     1     -21.859  -9.491  -0.131  1.00  0.00     0.000 C 
BRANCH  17  18
HETATM   18  C   UNL     1     -23.381  -9.510  -0.043  1.00  0.00    -0.000 C 
BRANCH  18  19
HETATM   19  C   UNL     1     -23.900 -10.939   0.088  1.00  0.00    -0.005 C 
HETATM   20  C   UNL     1     -24.052 -11.579  -1.280  1.00  0.00     0.005 C 
ENDBRANCH  18  19
ENDBRANCH  17  18
ENDBRANCH  16  17
ENDBRANCH  15  16
ENDBRANCH  14  15
ENDBRANCH  13  14
ENDBRANCH  12  13
ENDBRANCH   1  12
TORSDOF 16
ENDMDL
MODEL 3
REMARK VINA RESULT:      -6.1     14.363     17.203
REMARK  16 active torsions:
REMARK  status: ('A' for Active; 'I' for Inactive)
REMARK    1  A    between atoms: C_2  and  C_3 
REMARK    2  A    between atoms: C_3  and  C_4 
REMARK    3  A    between atoms: C_4  and  C_5 
REMARK    4  A    between atoms: C_5  and  C_6 
REMARK    5  A    between atoms: C_6  and  C_7 
REMARK    6  A    between atoms: C_7  and  C_8 
REMARK    7  A    between atoms: C_8  and  O_9 
REMARK    8  A    between atoms: O_9  and  C_10 
REMARK    9  A    between atoms: C_10  and  O_12 
REMARK   10  A    between atoms: O_12  and  C_13 
REMARK   11  A    between atoms: C_13  and  C_14 
REMARK   12  A    between atoms: C_14  and  C_15 
REMARK   13  A    between atoms: C_15  and  C_16 
REMARK   14  A    between atoms: C_16  and  C_17 
REMARK   15  A    between atoms: C_17  and  C_18 
REMARK   16  A    between atoms: C_18  and  C_19 
ROOT
HETATM    1  C   UNL     1     -35.494  -1.290 -16.449  1.00  0.00     0.406 C 
HETATM    2  O   UNL     1     -36.415  -0.919 -17.173  1.00  0.00    -0.230 OA
ENDROOT
BRANCH   1   3
HETATM    3  O   UNL     1     -34.748  -0.506 -15.625  1.00  0.00    -0.298 OA
BRANCH   3   4
HETATM    4  C   UNL     1     -35.488   0.375 -14.778  1.00  0.00     0.181 C 
BRANCH   4   5
HETATM    5  C   UNL     1     -35.121   0.214 -13.305  1.00  0.00     0.027 C 
BRANCH   5   6
HETATM    6  C   UNL     1     -35.550  -1.159 -12.778  1.00  0.00     0.002 C 
BRANCH   6   7
HETATM    7  C   UNL     1     -35.700  -1.149 -11.259  1.00  0.00     0.000 C 
BRANCH   7   8
HETATM    8  C   UNL     1     -34.966  -2.329 -10.629  1.00  0.00     0.000 C 
BRANCH   8   9
HETATM    9  C   UNL     1     -33.483  -2.284 -10.974  1.00  0.00    -0.000 C 
BRANCH   9  10
HETATM   10  C   UNL     1     -32.982  -3.660 -11.403  1.00  0.00    -0.005 C 
HETATM   11  C   UNL     1     -33.839  -4.755 -10.795  1.00  0.00     0.005 C 
ENDBRANCH   9  10
ENDBRANCH   8   9
ENDBRANCH   7   8
ENDBRANCH   6   7
ENDBRANCH   5   6
ENDBRANCH   4   5
ENDBRANCH   3   4
ENDBRANCH   1   3
BRANCH   1  12
HETATM   12  O   UNL     1     -35.031  -2.563 -16.321  1.00  0.00    -0.298 OA
BRANCH  12  13
HETATM   13  C   UNL     1     -33.879  -2.879 -17.105  1.00  0.00     0.181 C 
BRANCH  13  14
HETATM   14  C   UNL     1     -33.164  -4.133 -16.611  1.00  0.00     0.027 C 
BRANCH  14  15
HETATM   15  C   UNL     1     -31.779  -4.265 -17.253  1.00  0.00     0.002 C 
BRANCH  15  16
HETATM   16  C   UNL     1     -31.007  -5.446 -16.670  1.00  0.00     0.000 C 
BRANCH  16  17
HETATM   17  C   UNL     1     -31.362  -6.742 -17.394  1.00  0.00     0.000 C 
BRANCH  17  18
HETATM   18  C   UNL     1     -30.177  -7.239 -18.215  1.00  0.00    -0.000 C 
BRANCH  18  19
HETATM   19  C   UNL     1     -28.875  -6.612 -17.725  1.00  0.00    -0.005 C 
HETATM   20  C   UNL     1     -28.011  -6.188 -18.899  1.00  0.00     0.005 C 
ENDBRANCH  18  19
ENDBRANCH  17  18
ENDBRANCH  16  17
ENDBRANCH  15  16
ENDBRANCH  14  15
ENDBRANCH  13  14
ENDBRANCH  12  13
ENDBRANCH   1  12
TORSDOF 16
ENDMDL
MODEL 4
REMARK VINA RESULT:      -6.0      1.171      9.394
REMARK  16 active torsions:
REMARK  status: ('A' for Active; 'I' for Inactive)
REMARK    1  A    between atoms: C_2  and  C_3 
REMARK    2  A    between atoms: C_3  and  C_4 
REMARK    3  A    between atoms: C_4  and  C_5 
REMARK    4  A    between atoms: C_5  and  C_6 
REMARK    5  A    between atoms: C_6  and  C_7 
REMARK    6  A    between atoms: C_7  and  C_8 
REMARK    7  A    between atoms: C_8  and  O_9 
REMARK    8  A    between atoms: O_9  and  C_10 
REMARK    9  A    between atoms: C_10  and  O_12 
REMARK   10  A    between atoms: O_12  and  C_13 
REMARK   11  A    between atoms: C_13  and  C_14 
REMARK   12  A    between atoms: C_14  and  C_15 
REMARK   13  A    between atoms: C_15  and  C_16 
REMARK   14  A    between atoms: C_16  and  C_17 
REMARK   15  A    between atoms: C_17  and  C_18 
REMARK   16  A    between atoms: C_18  and  C_19 
ROOT
HETATM    1  C   UNL     1     -20.635  -8.089  -5.359  1.00  0.00     0.406 C 
HETATM    2  O   UNL     1     -21.180  -9.166  -5.589  1.00  0.00    -0.230 OA
ENDROOT
BRANCH   1   3
HETATM    3  O   UNL     1     -20.371  -7.563  -4.133  1.00  0.00    -0.298 OA
BRANCH   3   4
HETATM    4  C   UNL     1     -21.395  -7.744  -3.153  1.00  0.00     0.181 C 
BRANCH   4   5
HETATM    5  C   UNL     1     -21.972  -6.420  -2.661  1.00  0.00     0.027 C 
BRANCH   5   6
HETATM    6  C   UNL     1     -21.998  -6.365  -1.130  1.00  0.00     0.002 C 
BRANCH   6   7
HETATM    7  C   UNL     1     -22.821  -7.511  -0.547  1.00  0.00     0.000 C 
BRANCH   7   8
HETATM    8  C   UNL     1     -22.077  -8.190   0.600  1.00  0.00     0.000 C 
BRANCH   8   9
HETATM    9  C   UNL     1     -21.815  -9.656   0.274  1.00  0.00    -0.000 C 
BRANCH   9  10
HETATM   10  C   UNL     1     -22.824 -10.176  -0.745  1.00  0.00    -0.005 C 
HETATM   11  C   UNL     1     -23.937 -10.941  -0.053  1.00  0.00     0.005 C 
ENDBRANCH   9  10
ENDBRANCH   8   9
ENDBRANCH   7   8
ENDBRANCH   6   7
ENDBRANCH   5   6
ENDBRANCH   4   5
ENDBRANCH   3   4
ENDBRANCH   1   3
BRANCH   1  12
HETATM   12  O   UNL     1     -20.183  -7.200  -6.284  1.00  0.00    -0.298 OA
BRANCH  12  13
HETATM   13  C   UNL     1     -20.936  -5.991  -6.395  1.00  0.00     0.181 C 
BRANCH  13  14
HETATM   14  C   UNL     1     -20.062  -4.747  -6.273  1.00  0.00     0.027 C 
BRANCH  14  15
HETATM   15  C   UNL     1     -19.435  -4.381  -7.623  1.00  0.00     0.002 C 
BRANCH  15  16
HETATM   16  C   UNL     1     -20.501  -4.204  -8.701  1.00  0.00     0.000 C 
BRANCH  16  17
HETATM   17  C   UNL     1     -20.022  -4.759 -10.040  1.00  0.00     0.000 C 
BRANCH  17  18
HETATM   18  C   UNL     1     -20.689  -4.023 -11.196  1.00  0.00    -0.000 C 
BRANCH  18  19
HETATM   19  C   UNL     1     -22.088  -3.554 -10.807  1.00  0.00    -0.005 C 
HETATM   20  C   UNL     1     -22.688  -2.694 -11.904  1.00  0.00     0.005 C 
ENDBRANCH  18  19
ENDBRANCH  17  18
ENDBRANCH  16  17
ENDBRANCH  15  16
ENDBRANCH  14  15
ENDBRANCH  13  14
ENDBRANCH  12  13
ENDBRANCH   1  12
TORSDOF 16
ENDMDL
MODEL 5
REMARK VINA RESULT:      -5.7     13.910     16.097
REMARK  16 active torsions:
REMARK  status: ('A' for Active; 'I' for Inactive)
REMARK    1  A    between atoms: C_2  and  C_3 
REMARK    2  A    between atoms: C_3  and  C_4 
REMARK    3  A    between atoms: C_4  and  C_5 
REMARK    4  A    between atoms: C_5  and  C_6 
REMARK    5  A    between atoms: C_6  and  C_7 
REMARK    6  A    between atoms: C_7  and  C_8 
REMARK    7  A    between atoms: C_8  and  O_9 
REMARK    8  A    between atoms: O_9  and  C_10 
REMARK    9  A    between atoms: C_10  and  O_12 
REMARK   10  A    between atoms: O_12  and  C_13 
REMARK   11  A    between atoms: C_13  and  C_14 
REMARK   12  A    between atoms: C_14  and  C_15 
REMARK   13  A    between atoms: C_15  and  C_16 
REMARK   14  A    between atoms: C_16  and  C_17 
REMARK   15  A    between atoms: C_17  and  C_18 
REMARK   16  A    between atoms: C_18  and  C_19 
ROOT
HETATM    1  C   UNL     1     -35.377  -1.117 -16.241  1.00  0.00     0.406 C 
HETATM    2  O   UNL     1     -36.243  -0.782 -17.045  1.00  0.00    -0.230 OA
ENDROOT
BRANCH   1   3
HETATM    3  O   UNL     1     -34.987  -2.389 -15.957  1.00  0.00    -0.298 OA
BRANCH   3   4
HETATM    4  C   UNL     1     -34.066  -2.970 -16.882  1.00  0.00     0.181 C 
BRANCH   4   5
HETATM    5  C   UNL     1     -33.420  -4.242 -16.341  1.00  0.00     0.027 C 
BRANCH   5   6
HETATM    6  C   UNL     1     -31.977  -4.380 -16.836  1.00  0.00     0.002 C 
BRANCH   6   7
HETATM    7  C   UNL     1     -31.640  -5.831 -17.170  1.00  0.00     0.000 C 
BRANCH   7   8
HETATM    8  C   UNL     1     -30.197  -5.961 -17.648  1.00  0.00     0.000 C 
BRANCH   8   9
HETATM    9  C   UNL     1     -29.562  -7.232 -17.097  1.00  0.00    -0.000 C 
BRANCH   9  10
HETATM   10  C   UNL     1     -28.316  -6.907 -16.278  1.00  0.00    -0.005 C 
HETATM   11  C   UNL     1     -27.239  -6.302 -17.160  1.00  0.00     0.005 C 
ENDBRANCH   9  10
ENDBRANCH   8   9
ENDBRANCH   7   8
ENDBRANCH   6   7
ENDBRANCH   5   6
ENDBRANCH   4   5
ENDBRANCH   3   4
ENDBRANCH   1   3
BRANCH   1  12
HETATM   12  O   UNL     1     -34.630  -0.285 -15.467  1.00  0.00    -0.298 OA
BRANCH  12  13
HETATM   13  C   UNL     1     -35.370   0.602 -14.625  1.00  0.00     0.181 C 
BRANCH  13  14
HETATM   14  C   UNL     1     -34.947   0.506 -13.163  1.00  0.00     0.027 C 
BRANCH  14  15
HETATM   15  C   UNL     1     -35.571  -0.719 -12.489  1.00  0.00     0.002 C 
BRANCH  15  16
HETATM   16  C   UNL     1     -34.502  -1.621 -11.875  1.00  0.00     0.000 C 
BRANCH  16  17
HETATM   17  C   UNL     1     -34.322  -2.893 -12.698  1.00  0.00     0.000 C 
BRANCH  17  18
HETATM   18  C   UNL     1     -33.296  -3.814 -12.045  1.00  0.00    -0.000 C 
BRANCH  18  19
HETATM   19  C   UNL     1     -33.683  -4.123 -10.602  1.00  0.00    -0.005 C 
HETATM   20  C   UNL     1     -34.384  -5.466 -10.513  1.00  0.00     0.005 C 
ENDBRANCH  18  19
ENDBRANCH  17  18
ENDBRANCH  16  17
ENDBRANCH  15  16
ENDBRANCH  14  15
ENDBRANCH  13  14
ENDBRANCH  12  13
ENDBRANCH   1  12
TORSDOF 16
ENDMDL
MODEL 6
REMARK VINA RESULT:      -5.6      1.339     10.105
REMARK  16 active torsions:
REMARK  status: ('A' for Active; 'I' for Inactive)
REMARK    1  A    between atoms: C_2  and  C_3 
REMARK    2  A    between atoms: C_3  and  C_4 
REMARK    3  A    between atoms: C_4  and  C_5 
REMARK    4  A    between atoms: C_5  and  C_6 
REMARK    5  A    between atoms: C_6  and  C_7 
REMARK    6  A    between atoms: C_7  and  C_8 
REMARK    7  A    between atoms: C_8  and  O_9 
REMARK    8  A    between atoms: O_9  and  C_10 
REMARK    9  A    between atoms: C_10  and  O_12 
REMARK   10  A    between atoms: O_12  and  C_13 
REMARK   11  A    between atoms: C_13  and  C_14 
REMARK   12  A    between atoms: C_14  and  C_15 
REMARK   13  A    between atoms: C_15  and  C_16 
REMARK   14  A    between atoms: C_16  and  C_17 
REMARK   15  A    between atoms: C_17  and  C_18 
REMARK   16  A    between atoms: C_18  and  C_19 
ROOT
HETATM    1  C   UNL     1     -20.541  -6.306  -6.508  1.00  0.00     0.406 C 
HETATM    2  O   UNL     1     -19.727  -5.650  -5.862  1.00  0.00    -0.230 OA
ENDROOT
BRANCH   1   3
HETATM    3  O   UNL     1     -21.107  -7.485  -6.135  1.00  0.00    -0.298 OA
BRANCH   3   4
HETATM    4  C   UNL     1     -21.175  -7.715  -4.726  1.00  0.00     0.181 C 
BRANCH   4   5
HETATM    5  C   UNL     1     -22.005  -6.661  -4.002  1.00  0.00     0.027 C 
BRANCH   5   6
HETATM    6  C   UNL     1     -21.661  -6.618  -2.510  1.00  0.00     0.002 C 
BRANCH   6   7
HETATM    7  C   UNL     1     -21.750  -8.005  -1.879  1.00  0.00     0.000 C 
BRANCH   7   8
HETATM    8  C   UNL     1     -21.087  -8.025  -0.504  1.00  0.00     0.000 C 
BRANCH   8   9
HETATM    9  C   UNL     1     -21.830  -8.966   0.436  1.00  0.00    -0.000 C 
BRANCH   9  10
HETATM   10  C   UNL     1     -23.297  -9.088   0.037  1.00  0.00    -0.005 C 
HETATM   11  C   UNL     1     -23.704 -10.546  -0.070  1.00  0.00     0.005 C 
ENDBRANCH   9  10
ENDBRANCH   8   9
ENDBRANCH   7   8
ENDBRANCH   6   7
ENDBRANCH   5   6
ENDBRANCH   4   5
ENDBRANCH   3   4
ENDBRANCH   1   3
BRANCH   1  12
HETATM   12  O   UNL     1     -21.043  -5.988  -7.732  1.00  0.00    -0.298 OA
BRANCH  12  13
HETATM   13  C   UNL     1     -21.372  -4.611  -7.922  1.00  0.00     0.181 C 
BRANCH  13  14
HETATM   14  C   UNL     1     -22.097  -4.361  -9.241  1.00  0.00     0.027 C 
BRANCH  14  15
HETATM   15  C   UNL     1     -21.103  -4.059 -10.367  1.00  0.00     0.002 C 
BRANCH  15  16
HETATM   16  C   UNL     1     -21.754  -4.215 -11.739  1.00  0.00     0.000 C 
BRANCH  16  17
HETATM   17  C   UNL     1     -23.270  -4.344 -11.613  1.00  0.00     0.000 C 
BRANCH  17  18
HETATM   18  C   UNL     1     -23.962  -3.754 -12.837  1.00  0.00    -0.000 C 
BRANCH  18  19
HETATM   19  C   UNL     1     -23.264  -2.476 -13.293  1.00  0.00    -0.005 C 
HETATM   20  C   UNL     1     -22.947  -2.541 -14.776  1.00  0.00     0.005 C 
ENDBRANCH  18  19
ENDBRANCH  17  18
ENDBRANCH  16  17
ENDBRANCH  15  16
ENDBRANCH  14  15
ENDBRANCH  13  14
ENDBRANCH  12  13
ENDBRANCH   1  12
TORSDOF 16
ENDMDL
MODEL 7
REMARK VINA RESULT:      -5.5     12.942     16.016
REMARK  16 active torsions:
REMARK  status: ('A' for Active; 'I' for Inactive)
REMARK    1  A    between atoms: C_2  and  C_3 
REMARK    2  A    between atoms: C_3  and  C_4 
REMARK    3  A    between atoms: C_4  and  C_5 
REMARK    4  A    between atoms: C_5  and  C_6 
REMARK    5  A    between atoms: C_6  and  C_7 
REMARK    6  A    between atoms: C_7  and  C_8 
REMARK    7  A    between atoms: C_8  and  O_9 
REMARK    8  A    between atoms: O_9  and  C_10 
REMARK    9  A    between atoms: C_10  and  O_12 
REMARK   10  A    between atoms: O_12  and  C_13 
REMARK   11  A    between atoms: C_13  and  C_14 
REMARK   12  A    between atoms: C_14  and  C_15 
REMARK   13  A    between atoms: C_15  and  C_16 
REMARK   14  A    between atoms: C_16  and  C_17 
REMARK   15  A    between atoms: C_17  and  C_18 
REMARK   16  A    between atoms: C_18  and  C_19 
ROOT
HETATM    1  C   UNL     1     -34.318  -4.559 -15.030  1.00  0.00     0.406 C 
HETATM    2  O   UNL     1     -35.087  -5.292 -15.647  1.00  0.00    -0.230 OA
ENDROOT
BRANCH   1   3
HETATM    3  O   UNL     1     -34.532  -4.015 -13.802  1.00  0.00    -0.298 OA
BRANCH   3   4
HETATM    4  C   UNL     1     -34.506  -4.935 -12.709  1.00  0.00     0.181 C 
BRANCH   4   5
HETATM    5  C   UNL     1     -34.505  -4.232 -11.355  1.00  0.00     0.027 C 
BRANCH   5   6
HETATM    6  C   UNL     1     -33.276  -3.330 -11.205  1.00  0.00     0.002 C 
BRANCH   6   7
HETATM    7  C   UNL     1     -33.679  -1.882 -10.935  1.00  0.00     0.000 C 
BRANCH   7   8
HETATM    8  C   UNL     1     -35.131  -1.635 -11.335  1.00  0.00     0.000 C 
BRANCH   8   9
HETATM    9  C   UNL     1     -35.206  -1.027 -12.731  1.00  0.00    -0.000 C 
BRANCH   9  10
HETATM   10  C   UNL     1     -34.943   0.475 -12.685  1.00  0.00    -0.005 C 
HETATM   11  C   UNL     1     -34.806   1.037 -14.088  1.00  0.00     0.005 C 
ENDBRANCH   9  10
ENDBRANCH   8   9
ENDBRANCH   7   8
ENDBRANCH   6   7
ENDBRANCH   5   6
ENDBRANCH   4   5
ENDBRANCH   3   4
ENDBRANCH   1   3
BRANCH   1  12
HETATM   12  O   UNL     1     -33.093  -4.140 -15.448  1.00  0.00    -0.298 OA
BRANCH  12  13
HETATM   13  C   UNL     1     -32.735  -4.519 -16.778  1.00  0.00     0.181 C 
BRANCH  13  14
HETATM   14  C   UNL     1     -31.278  -4.958 -16.888  1.00  0.00     0.027 C 
BRANCH  14  15
HETATM   15  C   UNL     1     -31.177  -6.423 -17.324  1.00  0.00     0.002 C 
BRANCH  15  16
HETATM   16  C   UNL     1     -29.757  -6.957 -17.149  1.00  0.00     0.000 C 
BRANCH  16  17
HETATM   17  C   UNL     1     -28.842  -6.448 -18.260  1.00  0.00     0.000 C 
BRANCH  17  18
HETATM   18  C   UNL     1     -27.422  -6.254 -17.738  1.00  0.00    -0.000 C 
BRANCH  18  19
HETATM   19  C   UNL     1     -27.336  -6.597 -16.254  1.00  0.00    -0.005 C 
HETATM   20  C   UNL     1     -25.890  -6.764 -15.827  1.00  0.00     0.005 C 
ENDBRANCH  18  19
ENDBRANCH  17  18
ENDBRANCH  16  17
ENDBRANCH  15  16
ENDBRANCH  14  15
ENDBRANCH  13  14
ENDBRANCH  12  13
ENDBRANCH   1  12
TORSDOF 16
ENDMDL
MODEL 8
REMARK VINA RESULT:      -5.5      1.460      9.681
REMARK  16 active torsions:
REMARK  status: ('A' for Active; 'I' for Inactive)
REMARK    1  A    between atoms: C_2  and  C_3 
REMARK    2  A    between atoms: C_3  and  C_4 
REMARK    3  A    between atoms: C_4  and  C_5 
REMARK    4  A    between atoms: C_5  and  C_6 
REMARK    5  A    between atoms: C_6  and  C_7 
REMARK    6  A    between atoms: C_7  and  C_8 
REMARK    7  A    between atoms: C_8  and  O_9 
REMARK    8  A    between atoms: O_9  and  C_10 
REMARK    9  A    between atoms: C_10  and  O_12 
REMARK   10  A    between atoms: O_12  and  C_13 
REMARK   11  A    between atoms: C_13  and  C_14 
REMARK   12  A    between atoms: C_14  and  C_15 
REMARK   13  A    between atoms: C_15  and  C_16 
REMARK   14  A    between atoms: C_16  and  C_17 
REMARK   15  A    between atoms: C_17  and  C_18 
REMARK   16  A    between atoms: C_18  and  C_19 
ROOT
HETATM    1  C   UNL     1     -20.963  -6.889  -4.090  1.00  0.00     0.406 C 
HETATM    2  O   UNL     1     -20.732  -7.988  -4.587  1.00  0.00    -0.230 OA
ENDROOT
BRANCH   1   3
HETATM    3  O   UNL     1     -21.078  -6.610  -2.764  1.00  0.00    -0.298 OA
BRANCH   3   4
HETATM    4  C   UNL     1     -21.852  -7.541  -2.005  1.00  0.00     0.181 C 
BRANCH   4   5
HETATM    5  C   UNL     1     -22.290  -6.974  -0.657  1.00  0.00     0.027 C 
BRANCH   5   6
HETATM    6  C   UNL     1     -22.988  -8.042   0.189  1.00  0.00     0.002 C 
BRANCH   6   7
HETATM    7  C   UNL     1     -22.573  -9.448  -0.237  1.00  0.00     0.000 C 
BRANCH   7   8
HETATM    8  C   UNL     1     -23.737 -10.426  -0.104  1.00  0.00     0.000 C 
BRANCH   8   9
HETATM    9  C   UNL     1     -23.882 -11.263  -1.369  1.00  0.00    -0.000 C 
BRANCH   9  10
HETATM   10  C   UNL     1     -22.548 -11.380  -2.100  1.00  0.00    -0.005 C 
HETATM   11  C   UNL     1     -22.730 -11.144  -3.588  1.00  0.00     0.005 C 
ENDBRANCH   9  10
ENDBRANCH   8   9
ENDBRANCH   7   8
ENDBRANCH   6   7
ENDBRANCH   5   6
ENDBRANCH   4   5
ENDBRANCH   3   4
ENDBRANCH   1   3
BRANCH   1  12
HETATM   12  O   UNL     1     -21.151  -5.722  -4.764  1.00  0.00    -0.298 OA
BRANCH  12  13
HETATM   13  C   UNL     1     -21.349  -5.852  -6.173  1.00  0.00     0.181 C 
BRANCH  13  14
HETATM   14  C   UNL     1     -21.439  -4.501  -6.876  1.00  0.00     0.027 C 
BRANCH  14  15
HETATM   15  C   UNL     1     -22.783  -4.344  -7.596  1.00  0.00     0.002 C 
BRANCH  15  16
HETATM   16  C   UNL     1     -22.593  -3.821  -9.018  1.00  0.00     0.000 C 
BRANCH  16  17
HETATM   17  C   UNL     1     -23.741  -4.265  -9.920  1.00  0.00     0.000 C 
BRANCH  17  18
HETATM   18  C   UNL     1     -23.923  -3.287 -11.076  1.00  0.00    -0.000 C 
BRANCH  18  19
HETATM   19  C   UNL     1     -22.827  -3.471 -12.122  1.00  0.00    -0.005 C 
HETATM   20  C   UNL     1     -23.161  -2.702 -13.387  1.00  0.00     0.005 C 
ENDBRANCH  18  19
ENDBRANCH  17  18
ENDBRANCH  16  17
ENDBRANCH  15  16
ENDBRANCH  14  15
ENDBRANCH  13  14
ENDBRANCH  12  13
ENDBRANCH   1  12
TORSDOF 16
ENDMDL
MODEL 9
REMARK VINA RESULT:      -5.5      7.394     11.606
REMARK  16 active torsions:
REMARK  status: ('A' for Active; 'I' for Inactive)
REMARK    1  A    between atoms: C_2  and  C_3 
REMARK    2  A    between atoms: C_3  and  C_4 
REMARK    3  A    between atoms: C_4  and  C_5 
REMARK    4  A    between atoms: C_5  and  C_6 
REMARK    5  A    between atoms: C_6  and  C_7 
REMARK    6  A    between atoms: C_7  and  C_8 
REMARK    7  A    between atoms: C_8  and  O_9 
REMARK    8  A    between atoms: O_9  and  C_10 
REMARK    9  A    between atoms: C_10  and  O_12 
REMARK   10  A    between atoms: O_12  and  C_13 
REMARK   11  A    between atoms: C_13  and  C_14 
REMARK   12  A    between atoms: C_14  and  C_15 
REMARK   13  A    between atoms: C_15  and  C_16 
REMARK   14  A    between atoms: C_16  and  C_17 
REMARK   15  A    between atoms: C_17  and  C_18 
REMARK   16  A    between atoms: C_18  and  C_19 
ROOT
HETATM    1  C   UNL     1     -25.421  -6.332 -15.750  1.00  0.00     0.406 C 
HETATM    2  O   UNL     1     -25.230  -7.500 -15.420  1.00  0.00    -0.230 OA
ENDROOT
BRANCH   1   3
HETATM    3  O   UNL     1     -26.344  -5.886 -16.644  1.00  0.00    -0.298 OA
BRANCH   3   4
HETATM    4  C   UNL     1     -27.649  -6.452 -16.515  1.00  0.00     0.181 C 
BRANCH   4   5
HETATM    5  C   UNL     1     -28.300  -6.732 -17.867  1.00  0.00     0.027 C 
BRANCH   5   6
HETATM    6  C   UNL     1     -27.641  -5.906 -18.976  1.00  0.00     0.002 C 
BRANCH   6   7
HETATM    7  C   UNL     1     -27.167  -6.795 -20.123  1.00  0.00     0.000 C 
BRANCH   7   8
HETATM    8  C   UNL     1     -25.751  -6.424 -20.554  1.00  0.00     0.000 C 
BRANCH   8   9
HETATM    9  C   UNL     1     -24.723  -7.238 -19.777  1.00  0.00    -0.000 C 
BRANCH   9  10
HETATM   10  C   UNL     1     -23.867  -8.077 -20.722  1.00  0.00    -0.005 C 
HETATM   11  C   UNL     1     -24.230  -7.792 -22.168  1.00  0.00     0.005 C 
ENDBRANCH   9  10
ENDBRANCH   8   9
ENDBRANCH   7   8
ENDBRANCH   6   7
ENDBRANCH   5   6
ENDBRANCH   4   5
ENDBRANCH   3   4
ENDBRANCH   1   3
BRANCH   1  12
HETATM   12  O   UNL     1     -24.748  -5.243 -15.288  1.00  0.00    -0.298 OA
BRANCH  12  13
HETATM   13  C   UNL     1     -24.612  -5.162 -13.868  1.00  0.00     0.181 C 
BRANCH  13  14
HETATM   14  C   UNL     1     -23.994  -3.843 -13.416  1.00  0.00     0.027 C 
BRANCH  14  15
HETATM   15  C   UNL     1     -23.273  -4.005 -12.074  1.00  0.00     0.002 C 
BRANCH  15  16
HETATM   16  C   UNL     1     -22.600  -2.703 -11.645  1.00  0.00     0.000 C 
BRANCH  16  17
HETATM   17  C   UNL     1     -21.117  -2.923 -11.359  1.00  0.00     0.000 C 
BRANCH  17  18
HETATM   18  C   UNL     1     -20.848  -4.383 -11.013  1.00  0.00    -0.000 C 
BRANCH  18  19
HETATM   19  C   UNL     1     -20.186  -4.505  -9.644  1.00  0.00    -0.005 C 
HETATM   20  C   UNL     1     -21.212  -4.341  -8.538  1.00  0.00     0.005 C 
ENDBRANCH  18  19
ENDBRANCH  17  18
ENDBRANCH  16  17
ENDBRANCH  15  16
ENDBRANCH  14  15
ENDBRANCH  13  14
ENDBRANCH  12  13
ENDBRANCH   1  12
TORSDOF 16
ENDMDL
