MODEL 1
REMARK VINA RESULT:      -6.6      0.000      0.000
REMARK  18 active torsions:
REMARK  status: ('A' for Active; 'I' for Inactive)
REMARK    1  A    between atoms: C_2  and  C_4 
REMARK    2  A    between atoms: C_4  and  C_5 
REMARK    3  A    between atoms: C_5  and  C_6 
REMARK    4  A    between atoms: C_6  and  C_7 
REMARK    5  A    between atoms: C_7  and  C_8 
REMARK    6  A    between atoms: C_8  and  C_9 
REMARK    7  A    between atoms: C_9  and  C_10 
REMARK    8  A    between atoms: C_10  and  C_11 
REMARK    9  A    between atoms: C_11  and  C_12 
REMARK   10  A    between atoms: C_12  and  C_13 
REMARK   11  A    between atoms: C_13  and  C_14 
REMARK   12  A    between atoms: C_14  and  C_15 
REMARK   13  A    between atoms: C_15  and  C_16 
REMARK   14  A    between atoms: C_16  and  C_17 
REMARK   15  A    between atoms: C_17  and  C_18 
REMARK   16  A    between atoms: C_18  and  O_19 
REMARK   17  A    between atoms: O_19  and  C_20 
REMARK   18  A    between atoms: C_20  and  C_22 
ROOT
HETATM    1  C   UNL     1     -21.256  -6.272  -3.219  1.00  0.00     0.000 C 
ENDROOT
BRANCH   1   2
HETATM    2  C   UNL     1     -21.375  -7.266  -2.078  1.00  0.00     0.000 C 
BRANCH   2   3
HETATM    3  C   UNL     1     -22.354  -6.747  -1.043  1.00  0.00     0.000 C 
BRANCH   3   4
HETATM    4  C   UNL     1     -22.731  -7.860  -0.084  1.00  0.00     0.000 C 
BRANCH   4   5
HETATM    5  C   UNL     1     -21.581  -8.840   0.045  1.00  0.00     0.000 C 
BRANCH   5   6
HETATM    6  C   UNL     1     -22.123 -10.251   0.162  1.00  0.00     0.000 C 
BRANCH   6   7
HETATM    7  C   UNL     1     -23.605 -10.260  -0.151  1.00  0.00     0.000 C 
BRANCH   7   8
HETATM    8  C   UNL     1     -23.897 -11.324  -1.192  1.00  0.00     0.000 C 
BRANCH   8   9
HETATM    9  C   UNL     1     -22.630 -11.625  -1.963  1.00  0.00     0.000 C 
BRANCH   9  10
HETATM   10  C   UNL     1     -22.738 -11.127  -3.396  1.00  0.00     0.004 C 
BRANCH  10  11
HETATM   11  C   UNL     1     -21.512 -10.298  -3.794  1.00  0.00    -0.023 C 
HETATM   12  C   UNL     1     -20.290 -10.790  -3.024  1.00  0.00     0.009 C 
HETATM   13  C   UNL     1     -21.243 -10.385  -5.297  1.00  0.00     0.009 C 
ENDBRANCH  10  11
ENDBRANCH   9  10
ENDBRANCH   8   9
ENDBRANCH   7   8
ENDBRANCH   6   7
ENDBRANCH   5   6
ENDBRANCH   4   5
ENDBRANCH   3   4
ENDBRANCH   2   3
ENDBRANCH   1   2
BRANCH   1  14
HETATM   14  C   UNL     1     -22.083  -6.738  -4.399  1.00  0.00     0.000 C 
BRANCH  14  15
HETATM   15  C   UNL     1     -21.317  -6.536  -5.700  1.00  0.00     0.000 C 
BRANCH  15  16
HETATM   16  C   UNL     1     -20.498  -5.254  -5.653  1.00  0.00     0.002 C 
BRANCH  16  17
HETATM   17  C   UNL     1     -20.147  -4.771  -7.060  1.00  0.00     0.027 C 
BRANCH  17  18
HETATM   18  C   UNL     1     -21.235  -3.871  -7.615  1.00  0.00     0.178 C 
BRANCH  18  19
HETATM   19  O   UNL     1     -21.966  -4.544  -8.656  1.00  0.00    -0.321 OA
BRANCH  19  20
HETATM   20  C   UNL     1     -21.864  -3.961  -9.883  1.00  0.00     0.266 C 
HETATM   21  O   UNL     1     -20.788  -3.598 -10.380  1.00  0.00    -0.264 OA
BRANCH  20  22
HETATM   22  C   UNL     1     -23.217  -3.817 -10.578  1.00  0.00     0.037 C 
HETATM   23  C   UNL     1     -23.665  -5.162 -11.162  1.00  0.00     0.025 C 
HETATM   24  C   UNL     1     -24.283  -3.319  -9.582  1.00  0.00     0.025 C 
HETATM   25  C   UNL     1     -23.104  -2.794 -11.713  1.00  0.00     0.025 C 
ENDBRANCH  20  22
ENDBRANCH  19  20
ENDBRANCH  18  19
ENDBRANCH  17  18
ENDBRANCH  16  17
ENDBRANCH  15  16
ENDBRANCH  14  15
ENDBRANCH   1  14
TORSDOF 18
ENDMDL
MODEL 2
REMARK VINA RESULT:      -6.5      3.690      9.380
REMARK  18 active torsions:
REMARK  status: ('A' for Active; 'I' for Inactive)
REMARK    1  A    between atoms: C_2  and  C_4 
REMARK    2  A    between atoms: C_4  and  C_5 
REMARK    3  A    between atoms: C_5  and  C_6 
REMARK    4  A    between atoms: C_6  and  C_7 
REMARK    5  A    between atoms: C_7  and  C_8 
REMARK    6  A    between atoms: C_8  and  C_9 
REMARK    7  A    between atoms: C_9  and  C_10 
REMARK    8  A    between atoms: C_10  and  C_11 
REMARK    9  A    between atoms: C_11  and  C_12 
REMARK   10  A    between atoms: C_12  and  C_13 
REMARK   11  A    between atoms: C_13  and  C_14 
REMARK   12  A    between atoms: C_14  and  C_15 
REMARK   13  A    between atoms: C_15  and  C_16 
REMARK   14  A    between atoms: C_16  and  C_17 
REMARK   15  A    between atoms: C_17  and  C_18 
REMARK   16  A    between atoms: C_18  and  O_19 
REMARK   17  A    between atoms: O_19  and  C_20 
REMARK   18  A    between atoms: C_20  and  C_22 
ROOT
HETATM    1  C   UNL     1     -22.174  -6.201  -2.447  1.00  0.00     0.000 C 
ENDROOT
BRANCH   1   2
HETATM    2  C   UNL     1     -21.064  -7.043  -3.051  1.00  0.00     0.000 C 
BRANCH   2   3
HETATM    3  C   UNL     1     -21.516  -7.613  -4.382  1.00  0.00     0.000 C 
BRANCH   3   4
HETATM    4  C   UNL     1     -20.462  -7.350  -5.441  1.00  0.00     0.000 C 
BRANCH   4   5
HETATM    5  C   UNL     1     -20.967  -6.310  -6.422  1.00  0.00     0.000 C 
BRANCH   5   6
HETATM    6  C   UNL     1     -20.334  -4.967  -6.114  1.00  0.00     0.000 C 
BRANCH   6   7
HETATM    7  C   UNL     1     -20.948  -3.896  -6.989  1.00  0.00     0.000 C 
BRANCH   7   8
HETATM    8  C   UNL     1     -22.404  -4.229  -7.254  1.00  0.00     0.000 C 
BRANCH   8   9
HETATM    9  C   UNL     1     -22.751  -3.841  -8.675  1.00  0.00     0.000 C 
BRANCH   9  10
HETATM   10  C   UNL     1     -22.237  -4.882  -9.660  1.00  0.00     0.004 C 
BRANCH  10  11
HETATM   11  C   UNL     1     -21.957  -4.261 -11.033  1.00  0.00    -0.023 C 
HETATM   12  C   UNL     1     -23.011  -3.201 -11.340  1.00  0.00     0.009 C 
HETATM   13  C   UNL     1     -20.564  -3.634 -11.088  1.00  0.00     0.009 C 
ENDBRANCH  10  11
ENDBRANCH   9  10
ENDBRANCH   8   9
ENDBRANCH   7   8
ENDBRANCH   6   7
ENDBRANCH   5   6
ENDBRANCH   4   5
ENDBRANCH   3   4
ENDBRANCH   2   3
ENDBRANCH   1   2
BRANCH   1  14
HETATM   14  C   UNL     1     -22.351  -6.550  -0.985  1.00  0.00     0.000 C 
BRANCH  14  15
HETATM   15  C   UNL     1     -21.569  -7.810  -0.638  1.00  0.00     0.000 C 
BRANCH  15  16
HETATM   16  C   UNL     1     -21.952  -8.322   0.744  1.00  0.00     0.002 C 
BRANCH  16  17
HETATM   17  C   UNL     1     -20.758  -8.970   1.443  1.00  0.00     0.027 C 
BRANCH  17  18
HETATM   18  C   UNL     1     -20.553 -10.395   0.964  1.00  0.00     0.178 C 
BRANCH  18  19
HETATM   19  O   UNL     1     -21.811 -10.998   0.612  1.00  0.00    -0.321 OA
BRANCH  19  20
HETATM   20  C   UNL     1     -21.757 -11.825  -0.469  1.00  0.00     0.266 C 
HETATM   21  O   UNL     1     -20.742 -12.458  -0.794  1.00  0.00    -0.264 OA
BRANCH  20  22
HETATM   22  C   UNL     1     -23.085 -11.893  -1.222  1.00  0.00     0.037 C 
HETATM   23  C   UNL     1     -23.480 -13.352  -1.479  1.00  0.00     0.025 C 
HETATM   24  C   UNL     1     -24.200 -11.203  -0.411  1.00  0.00     0.025 C 
HETATM   25  C   UNL     1     -22.949 -11.169  -2.566  1.00  0.00     0.025 C 
ENDBRANCH  20  22
ENDBRANCH  19  20
ENDBRANCH  18  19
ENDBRANCH  17  18
ENDBRANCH  16  17
ENDBRANCH  15  16
ENDBRANCH  14  15
ENDBRANCH   1  14
TORSDOF 18
ENDMDL
MODEL 3
REMARK VINA RESULT:      -6.3      3.145      9.165
REMARK  18 active torsions:
REMARK  status: ('A' for Active; 'I' for Inactive)
REMARK    1  A    between atoms: C_2  and  C_4 
REMARK    2  A    between atoms: C_4  and  C_5 
REMARK    3  A    between atoms: C_5  and  C_6 
REMARK    4  A    between atoms: C_6  and  C_7 
REMARK    5  A    between atoms: C_7  and  C_8 
REMARK    6  A    between atoms: C_8  and  C_9 
REMARK    7  A    between atoms: C_9  and  C_10 
REMARK    8  A    between atoms: C_10  and  C_11 
REMARK    9  A    between atoms: C_11  and  C_12 
REMARK   10  A    between atoms: C_12  and  C_13 
REMARK   11  A    between atoms: C_13  and  C_14 
REMARK   12  A    between atoms: C_14  and  C_15 
REMARK   13  A    between atoms: C_15  and  C_16 
REMARK   14  A    between atoms: C_16  and  C_17 
REMARK   15  A    between atoms: C_17  and  C_18 
REMARK   16  A    between atoms: C_18  and  O_19 
REMARK   17  A    between atoms: O_19  and  C_20 
REMARK   18  A    between atoms: C_20  and  C_22 
ROOT
HETATM    1  C   UNL     1     -21.696  -7.679  -4.834  1.00  0.00     0.000 C 
ENDROOT
BRANCH   1   2
HETATM    2  C   UNL     1     -21.792  -6.186  -5.094  1.00  0.00     0.000 C 
BRANCH   2   3
HETATM    3  C   UNL     1     -20.521  -5.500  -4.630  1.00  0.00     0.000 C 
BRANCH   3   4
HETATM    4  C   UNL     1     -20.059  -4.507  -5.680  1.00  0.00     0.000 C 
BRANCH   4   5
HETATM    5  C   UNL     1     -20.128  -5.142  -7.055  1.00  0.00     0.000 C 
BRANCH   5   6
HETATM    6  C   UNL     1     -20.682  -4.142  -8.051  1.00  0.00     0.000 C 
BRANCH   6   7
HETATM    7  C   UNL     1     -22.078  -3.725  -7.638  1.00  0.00     0.000 C 
BRANCH   7   8
HETATM    8  C   UNL     1     -23.100  -4.544  -8.404  1.00  0.00     0.000 C 
BRANCH   8   9
HETATM    9  C   UNL     1     -23.423  -3.842  -9.705  1.00  0.00     0.000 C 
BRANCH   9  10
HETATM   10  C   UNL     1     -22.866  -4.618 -10.890  1.00  0.00     0.004 C 
BRANCH  10  11
HETATM   11  C   UNL     1     -22.062  -3.708 -11.826  1.00  0.00    -0.023 C 
HETATM   12  C   UNL     1     -22.818  -2.400 -12.041  1.00  0.00     0.009 C 
HETATM   13  C   UNL     1     -20.672  -3.414 -11.260  1.00  0.00     0.009 C 
ENDBRANCH  10  11
ENDBRANCH   9  10
ENDBRANCH   8   9
ENDBRANCH   7   8
ENDBRANCH   6   7
ENDBRANCH   5   6
ENDBRANCH   4   5
ENDBRANCH   3   4
ENDBRANCH   2   3
ENDBRANCH   1   2
BRANCH   1  14
HETATM   14  C   UNL     1     -20.367  -8.007  -4.186  1.00  0.00     0.000 C 
BRANCH  14  15
HETATM   15  C   UNL     1     -19.673  -9.138  -4.934  1.00  0.00     0.000 C 
BRANCH  15  16
HETATM   16  C   UNL     1     -18.759  -9.921  -4.002  1.00  0.00     0.002 C 
BRANCH  16  17
HETATM   17  C   UNL     1     -19.027  -9.567  -2.540  1.00  0.00     0.027 C 
BRANCH  17  18
HETATM   18  C   UNL     1     -19.696 -10.718  -1.812  1.00  0.00     0.178 C 
BRANCH  18  19
HETATM   19  O   UNL     1     -20.468 -10.233  -0.699  1.00  0.00    -0.321 OA
BRANCH  19  20
HETATM   20  C   UNL     1     -21.699  -9.755  -1.033  1.00  0.00     0.266 C 
HETATM   21  O   UNL     1     -22.386 -10.221  -1.953  1.00  0.00    -0.264 OA
BRANCH  20  22
HETATM   22  C   UNL     1     -22.139  -8.594  -0.142  1.00  0.00     0.037 C 
HETATM   23  C   UNL     1     -21.192  -8.450   1.056  1.00  0.00     0.025 C 
HETATM   24  C   UNL     1     -22.145  -7.276  -0.940  1.00  0.00     0.025 C 
HETATM   25  C   UNL     1     -23.558  -8.853   0.373  1.00  0.00     0.025 C 
ENDBRANCH  20  22
ENDBRANCH  19  20
ENDBRANCH  18  19
ENDBRANCH  17  18
ENDBRANCH  16  17
ENDBRANCH  15  16
ENDBRANCH  14  15
ENDBRANCH   1  14
TORSDOF 18
ENDMDL
MODEL 4
REMARK VINA RESULT:      -6.1      3.373      9.148
REMARK  18 active torsions:
REMARK  status: ('A' for Active; 'I' for Inactive)
REMARK    1  A    between atoms: C_2  and  C_4 
REMARK    2  A    between atoms: C_4  and  C_5 
REMARK    3  A    between atoms: C_5  and  C_6 
REMARK    4  A    between atoms: C_6  and  C_7 
REMARK    5  A    between atoms: C_7  and  C_8 
REMARK    6  A    between atoms: C_8  and  C_9 
REMARK    7  A    between atoms: C_9  and  C_10 
REMARK    8  A    between atoms: C_10  and  C_11 
REMARK    9  A    between atoms: C_11  and  C_12 
REMARK   10  A    between atoms: C_12  and  C_13 
REMARK   11  A    between atoms: C_13  and  C_14 
REMARK   12  A    between atoms: C_14  and  C_15 
REMARK   13  A    between atoms: C_15  and  C_16 
REMARK   14  A    between atoms: C_16  and  C_17 
REMARK   15  A    between atoms: C_17  and  C_18 
REMARK   16  A    between atoms: C_18  and  O_19 
REMARK   17  A    between atoms: O_19  and  C_20 
REMARK   18  A    between atoms: C_20  and  C_22 
ROOT
HETATM    1  C   UNL     1     -19.166  -9.224  -4.622  1.00  0.00     0.000 C 
ENDROOT
BRANCH   1   2
HETATM    2  C   UNL     1     -20.669  -9.272  -4.823  1.00  0.00     0.000 C 
BRANCH   2   3
HETATM    3  C   UNL     1     -21.110  -8.113  -5.696  1.00  0.00     0.000 C 
BRANCH   3   4
HETATM    4  C   UNL     1     -22.049  -7.210  -4.920  1.00  0.00     0.000 C 
BRANCH   4   5
HETATM    5  C   UNL     1     -21.373  -5.881  -4.642  1.00  0.00     0.000 C 
BRANCH   5   6
HETATM    6  C   UNL     1     -20.233  -5.675  -5.619  1.00  0.00     0.000 C 
BRANCH   6   7
HETATM    7  C   UNL     1     -20.487  -4.435  -6.451  1.00  0.00     0.000 C 
BRANCH   7   8
HETATM    8  C   UNL     1     -19.568  -4.437  -7.658  1.00  0.00     0.000 C 
BRANCH   8   9
HETATM    9  C   UNL     1     -20.403  -4.522  -8.917  1.00  0.00     0.000 C 
BRANCH   9  10
HETATM   10  C   UNL     1     -21.882  -4.640  -8.578  1.00  0.00     0.004 C 
BRANCH  10  11
HETATM   11  C   UNL     1     -22.759  -4.414  -9.815  1.00  0.00    -0.023 C 
HETATM   12  C   UNL     1     -24.035  -3.681  -9.410  1.00  0.00     0.009 C 
HETATM   13  C   UNL     1     -22.018  -3.608 -10.883  1.00  0.00     0.009 C 
ENDBRANCH  10  11
ENDBRANCH   9  10
ENDBRANCH   8   9
ENDBRANCH   7   8
ENDBRANCH   6   7
ENDBRANCH   5   6
ENDBRANCH   4   5
ENDBRANCH   3   4
ENDBRANCH   2   3
ENDBRANCH   1   2
BRANCH   1  14
HETATM   14  C   UNL     1     -18.847  -8.929  -3.172  1.00  0.00     0.000 C 
BRANCH  14  15
HETATM   15  C   UNL     1     -20.086  -9.112  -2.305  1.00  0.00     0.000 C 
BRANCH  15  16
HETATM   16  C   UNL     1     -20.405  -7.834  -1.542  1.00  0.00     0.002 C 
BRANCH  16  17
HETATM   17  C   UNL     1     -21.912  -7.671  -1.345  1.00  0.00     0.027 C 
BRANCH  17  18
HETATM   18  C   UNL     1     -22.308  -7.957   0.092  1.00  0.00     0.178 C 
BRANCH  18  19
HETATM   19  O   UNL     1     -23.036  -9.195   0.179  1.00  0.00    -0.321 OA
BRANCH  19  20
HETATM   20  C   UNL     1     -22.253 -10.299   0.328  1.00  0.00     0.266 C 
HETATM   21  O   UNL     1     -21.173 -10.294   0.936  1.00  0.00    -0.264 OA
BRANCH  20  22
HETATM   22  C   UNL     1     -22.859 -11.540  -0.325  1.00  0.00     0.037 C 
HETATM   23  C   UNL     1     -24.200 -11.197  -0.986  1.00  0.00     0.025 C 
HETATM   24  C   UNL     1     -21.902 -12.108  -1.393  1.00  0.00     0.025 C 
HETATM   25  C   UNL     1     -23.089 -12.619   0.738  1.00  0.00     0.025 C 
ENDBRANCH  20  22
ENDBRANCH  19  20
ENDBRANCH  18  19
ENDBRANCH  17  18
ENDBRANCH  16  17
ENDBRANCH  15  16
ENDBRANCH  14  15
ENDBRANCH   1  14
TORSDOF 18
ENDMDL
MODEL 5
REMARK VINA RESULT:      -6.1      1.618      2.166
REMARK  18 active torsions:
REMARK  status: ('A' for Active; 'I' for Inactive)
REMARK    1  A    between atoms: C_2  and  C_4 
REMARK    2  A    between atoms: C_4  and  C_5 
REMARK    3  A    between atoms: C_5  and  C_6 
REMARK    4  A    between atoms: C_6  and  C_7 
REMARK    5  A    between atoms: C_7  and  C_8 
REMARK    6  A    between atoms: C_8  and  C_9 
REMARK    7  A    between atoms: C_9  and  C_10 
REMARK    8  A    between atoms: C_10  and  C_11 
REMARK    9  A    between atoms: C_11  and  C_12 
REMARK   10  A    between atoms: C_12  and  C_13 
REMARK   11  A    between atoms: C_13  and  C_14 
REMARK   12  A    between atoms: C_14  and  C_15 
REMARK   13  A    between atoms: C_15  and  C_16 
REMARK   14  A    between atoms: C_16  and  C_17 
REMARK   15  A    between atoms: C_17  and  C_18 
REMARK   16  A    between atoms: C_18  and  O_19 
REMARK   17  A    between atoms: O_19  and  C_20 
REMARK   18  A    between atoms: C_20  and  C_22 
ROOT
HETATM    1  C   UNL     1     -21.333  -6.775  -4.446  1.00  0.00     0.000 C 
ENDROOT
BRANCH   1   2
HETATM    2  C   UNL     1     -21.899  -6.270  -3.131  1.00  0.00     0.000 C 
BRANCH   2   3
HETATM    3  C   UNL     1     -21.629  -7.280  -2.032  1.00  0.00     0.000 C 
BRANCH   3   4
HETATM    4  C   UNL     1     -22.265  -6.816  -0.736  1.00  0.00     0.000 C 
BRANCH   4   5
HETATM    5  C   UNL     1     -22.895  -7.995  -0.020  1.00  0.00     0.000 C 
BRANCH   5   6
HETATM    6  C   UNL     1     -22.223  -8.194   1.324  1.00  0.00     0.000 C 
BRANCH   6   7
HETATM    7  C   UNL     1     -20.934  -8.968   1.144  1.00  0.00     0.000 C 
BRANCH   7   8
HETATM    8  C   UNL     1     -21.250 -10.400   0.758  1.00  0.00     0.000 C 
BRANCH   8   9
HETATM    9  C   UNL     1     -20.171 -10.914  -0.170  1.00  0.00     0.000 C 
BRANCH   9  10
HETATM   10  C   UNL     1     -20.563 -10.700  -1.625  1.00  0.00     0.004 C 
BRANCH  10  11
HETATM   11  C   UNL     1     -19.332 -10.683  -2.538  1.00  0.00    -0.023 C 
HETATM   12  C   UNL     1     -18.800  -9.257  -2.653  1.00  0.00     0.009 C 
HETATM   13  C   UNL     1     -18.231 -11.603  -2.008  1.00  0.00     0.009 C 
ENDBRANCH  10  11
ENDBRANCH   9  10
ENDBRANCH   8   9
ENDBRANCH   7   8
ENDBRANCH   6   7
ENDBRANCH   5   6
ENDBRANCH   4   5
ENDBRANCH   3   4
ENDBRANCH   2   3
ENDBRANCH   1   2
BRANCH   1  14
HETATM   14  C   UNL     1     -22.055  -6.121  -5.605  1.00  0.00     0.000 C 
BRANCH  14  15
HETATM   15  C   UNL     1     -21.117  -5.189  -6.360  1.00  0.00     0.000 C 
BRANCH  15  16
HETATM   16  C   UNL     1     -21.373  -5.261  -7.859  1.00  0.00     0.002 C 
BRANCH  16  17
HETATM   17  C   UNL     1     -20.095  -4.988  -8.651  1.00  0.00     0.027 C 
BRANCH  17  18
HETATM   18  C   UNL     1     -20.382  -4.139  -9.876  1.00  0.00     0.178 C 
BRANCH  18  19
HETATM   19  O   UNL     1     -21.651  -3.475  -9.744  1.00  0.00    -0.321 OA
BRANCH  19  20
HETATM   20  C   UNL     1     -22.280  -3.223 -10.926  1.00  0.00     0.266 C 
HETATM   21  O   UNL     1     -21.739  -2.644 -11.878  1.00  0.00    -0.264 OA
BRANCH  20  22
HETATM   22  C   UNL     1     -23.717  -3.744 -10.948  1.00  0.00     0.037 C 
HETATM   23  C   UNL     1     -23.731  -5.267 -11.123  1.00  0.00     0.025 C 
HETATM   24  C   UNL     1     -24.441  -3.379  -9.637  1.00  0.00     0.025 C 
HETATM   25  C   UNL     1     -24.476  -3.101 -12.113  1.00  0.00     0.025 C 
ENDBRANCH  20  22
ENDBRANCH  19  20
ENDBRANCH  18  19
ENDBRANCH  17  18
ENDBRANCH  16  17
ENDBRANCH  15  16
ENDBRANCH  14  15
ENDBRANCH   1  14
TORSDOF 18
ENDMDL
MODEL 6
REMARK VINA RESULT:      -6.1      2.633      7.559
REMARK  18 active torsions:
REMARK  status: ('A' for Active; 'I' for Inactive)
REMARK    1  A    between atoms: C_2  and  C_4 
REMARK    2  A    between atoms: C_4  and  C_5 
REMARK    3  A    between atoms: C_5  and  C_6 
REMARK    4  A    between atoms: C_6  and  C_7 
REMARK    5  A    between atoms: C_7  and  C_8 
REMARK    6  A    between atoms: C_8  and  C_9 
REMARK    7  A    between atoms: C_9  and  C_10 
REMARK    8  A    between atoms: C_10  and  C_11 
REMARK    9  A    between atoms: C_11  and  C_12 
REMARK   10  A    between atoms: C_12  and  C_13 
REMARK   11  A    between atoms: C_13  and  C_14 
REMARK   12  A    between atoms: C_14  and  C_15 
REMARK   13  A    between atoms: C_15  and  C_16 
REMARK   14  A    between atoms: C_16  and  C_17 
REMARK   15  A    between atoms: C_17  and  C_18 
REMARK   16  A    between atoms: C_18  and  O_19 
REMARK   17  A    between atoms: O_19  and  C_20 
REMARK   18  A    between atoms: C_20  and  C_22 
ROOT
HETATM    1  C   UNL     1     -23.382  -9.136   0.251  1.00  0.00     0.000 C 
ENDROOT
BRANCH   1   2
HETATM    2  C   UNL     1     -22.263  -8.178   0.615  1.00  0.00     0.000 C 
BRANCH   2   3
HETATM    3  C   UNL     1     -21.237  -8.137  -0.501  1.00  0.00     0.000 C 
BRANCH   3   4
HETATM    4  C   UNL     1     -21.921  -7.834  -1.821  1.00  0.00     0.000 C 
BRANCH   4   5
HETATM    5  C   UNL     1     -22.074  -6.335  -1.990  1.00  0.00     0.000 C 
BRANCH   5   6
HETATM    6  C   UNL     1     -21.194  -5.858  -3.128  1.00  0.00     0.000 C 
BRANCH   6   7
HETATM    7  C   UNL     1     -21.649  -6.487  -4.428  1.00  0.00     0.000 C 
BRANCH   7   8
HETATM    8  C   UNL     1     -20.508  -6.468  -5.428  1.00  0.00     0.000 C 
BRANCH   8   9
HETATM    9  C   UNL     1     -20.152  -5.032  -5.748  1.00  0.00     0.000 C 
BRANCH   9  10
HETATM   10  C   UNL     1     -19.441  -4.938  -7.089  1.00  0.00     0.004 C 
BRANCH  10  11
HETATM   11  C   UNL     1     -20.129  -3.929  -8.016  1.00  0.00    -0.023 C 
HETATM   12  C   UNL     1     -20.222  -4.510  -9.424  1.00  0.00     0.009 C 
HETATM   13  C   UNL     1     -21.527  -3.571  -7.512  1.00  0.00     0.009 C 
ENDBRANCH  10  11
ENDBRANCH   9  10
ENDBRANCH   8   9
ENDBRANCH   7   8
ENDBRANCH   6   7
ENDBRANCH   5   6
ENDBRANCH   4   5
ENDBRANCH   3   4
ENDBRANCH   2   3
ENDBRANCH   1   2
BRANCH   1  14
HETATM   14  C   UNL     1     -22.823 -10.525   0.028  1.00  0.00     0.000 C 
BRANCH  14  15
HETATM   15  C   UNL     1     -23.863 -11.420  -0.633  1.00  0.00     0.000 C 
BRANCH  15  16
HETATM   16  C   UNL     1     -23.290 -12.090  -1.874  1.00  0.00     0.002 C 
BRANCH  16  17
HETATM   17  C   UNL     1     -22.715 -11.058  -2.843  1.00  0.00     0.027 C 
BRANCH  17  18
HETATM   18  C   UNL     1     -22.262 -11.714  -4.134  1.00  0.00     0.178 C 
BRANCH  18  19
HETATM   19  O   UNL     1     -20.829 -11.662  -4.252  1.00  0.00    -0.321 OA
BRANCH  19  20
HETATM   20  C   UNL     1     -20.357 -10.569  -4.913  1.00  0.00     0.266 C 
HETATM   21  O   UNL     1     -21.017  -9.943  -5.756  1.00  0.00    -0.264 OA
BRANCH  20  22
HETATM   22  C   UNL     1     -18.937 -10.196  -4.492  1.00  0.00     0.037 C 
HETATM   23  C   UNL     1     -18.967  -9.203  -3.325  1.00  0.00     0.025 C 
HETATM   24  C   UNL     1     -18.156 -11.455  -4.063  1.00  0.00     0.025 C 
HETATM   25  C   UNL     1     -18.203  -9.555  -5.675  1.00  0.00     0.025 C 
ENDBRANCH  20  22
ENDBRANCH  19  20
ENDBRANCH  18  19
ENDBRANCH  17  18
ENDBRANCH  16  17
ENDBRANCH  15  16
ENDBRANCH  14  15
ENDBRANCH   1  14
TORSDOF 18
ENDMDL
MODEL 7
REMARK VINA RESULT:      -6.0      2.390      3.547
REMARK  18 active torsions:
REMARK  status: ('A' for Active; 'I' for Inactive)
REMARK    1  A    between atoms: C_2  and  C_4 
REMARK    2  A    between atoms: C_4  and  C_5 
REMARK    3  A    between atoms: C_5  and  C_6 
REMARK    4  A    between atoms: C_6  and  C_7 
REMARK    5  A    between atoms: C_7  and  C_8 
REMARK    6  A    between atoms: C_8  and  C_9 
REMARK    7  A    between atoms: C_9  and  C_10 
REMARK    8  A    between atoms: C_10  and  C_11 
REMARK    9  A    between atoms: C_11  and  C_12 
REMARK   10  A    between atoms: C_12  and  C_13 
REMARK   11  A    between atoms: C_13  and  C_14 
REMARK   12  A    between atoms: C_14  and  C_15 
REMARK   13  A    between atoms: C_15  and  C_16 
REMARK   14  A    between atoms: C_16  and  C_17 
REMARK   15  A    between atoms: C_17  and  C_18 
REMARK   16  A    between atoms: C_18  and  O_19 
REMARK   17  A    between atoms: O_19  and  C_20 
REMARK   18  A    between atoms: C_20  and  C_22 
ROOT
HETATM    1  C   UNL     1     -22.297  -7.942  -0.759  1.00  0.00     0.000 C 
ENDROOT
BRANCH   1   2
HETATM    2  C   UNL     1     -22.301  -7.876   0.758  1.00  0.00     0.000 C 
BRANCH   2   3
HETATM    3  C   UNL     1     -21.207  -8.766   1.314  1.00  0.00     0.000 C 
BRANCH   3   4
HETATM    4  C   UNL     1     -20.822  -9.814   0.287  1.00  0.00     0.000 C 
BRANCH   4   5
HETATM    5  C   UNL     1     -21.378 -11.165   0.696  1.00  0.00     0.000 C 
BRANCH   5   6
HETATM    6  C   UNL     1     -21.290 -12.127  -0.472  1.00  0.00     0.000 C 
BRANCH   6   7
HETATM    7  C   UNL     1     -21.320 -11.358  -1.776  1.00  0.00     0.000 C 
BRANCH   7   8
HETATM    8  C   UNL     1     -22.757 -11.197  -2.237  1.00  0.00     0.000 C 
BRANCH   8   9
HETATM    9  C   UNL     1     -22.787 -11.124  -3.749  1.00  0.00     0.000 C 
BRANCH   9  10
HETATM   10  C   UNL     1     -21.761 -12.069  -4.356  1.00  0.00     0.004 C 
BRANCH  10  11
HETATM   11  C   UNL     1     -21.083 -11.446  -5.581  1.00  0.00    -0.023 C 
HETATM   12  C   UNL     1     -19.568 -11.558  -5.440  1.00  0.00     0.009 C 
HETATM   13  C   UNL     1     -21.533 -12.127  -6.874  1.00  0.00     0.009 C 
ENDBRANCH  10  11
ENDBRANCH   9  10
ENDBRANCH   8   9
ENDBRANCH   7   8
ENDBRANCH   6   7
ENDBRANCH   5   6
ENDBRANCH   4   5
ENDBRANCH   3   4
ENDBRANCH   2   3
ENDBRANCH   1   2
BRANCH   1  14
HETATM   14  C   UNL     1     -22.238  -6.544  -1.338  1.00  0.00     0.000 C 
BRANCH  14  15
HETATM   15  C   UNL     1     -21.478  -6.544  -2.658  1.00  0.00     0.000 C 
BRANCH  15  16
HETATM   16  C   UNL     1     -20.769  -7.874  -2.874  1.00  0.00     0.002 C 
BRANCH  16  17
HETATM   17  C   UNL     1     -20.323  -8.032  -4.327  1.00  0.00     0.027 C 
BRANCH  17  18
HETATM   18  C   UNL     1     -21.501  -7.918  -5.276  1.00  0.00     0.178 C 
BRANCH  18  19
HETATM   19  O   UNL     1     -21.161  -7.099  -6.409  1.00  0.00    -0.321 OA
BRANCH  19  20
HETATM   20  C   UNL     1     -21.641  -5.826  -6.350  1.00  0.00     0.266 C 
HETATM   21  O   UNL     1     -22.718  -5.527  -5.814  1.00  0.00    -0.264 OA
BRANCH  20  22
HETATM   22  C   UNL     1     -20.703  -4.814  -7.005  1.00  0.00     0.037 C 
HETATM   23  C   UNL     1     -20.202  -5.343  -8.354  1.00  0.00     0.025 C 
HETATM   24  C   UNL     1     -21.430  -3.473  -7.228  1.00  0.00     0.025 C 
HETATM   25  C   UNL     1     -19.500  -4.563  -6.090  1.00  0.00     0.025 C 
ENDBRANCH  20  22
ENDBRANCH  19  20
ENDBRANCH  18  19
ENDBRANCH  17  18
ENDBRANCH  16  17
ENDBRANCH  15  16
ENDBRANCH  14  15
ENDBRANCH   1  14
TORSDOF 18
ENDMDL
MODEL 8
REMARK VINA RESULT:      -6.0      1.136      2.177
REMARK  18 active torsions:
REMARK  status: ('A' for Active; 'I' for Inactive)
REMARK    1  A    between atoms: C_2  and  C_4 
REMARK    2  A    between atoms: C_4  and  C_5 
REMARK    3  A    between atoms: C_5  and  C_6 
REMARK    4  A    between atoms: C_6  and  C_7 
REMARK    5  A    between atoms: C_7  and  C_8 
REMARK    6  A    between atoms: C_8  and  C_9 
REMARK    7  A    between atoms: C_9  and  C_10 
REMARK    8  A    between atoms: C_10  and  C_11 
REMARK    9  A    between atoms: C_11  and  C_12 
REMARK   10  A    between atoms: C_12  and  C_13 
REMARK   11  A    between atoms: C_13  and  C_14 
REMARK   12  A    between atoms: C_14  and  C_15 
REMARK   13  A    between atoms: C_15  and  C_16 
REMARK   14  A    between atoms: C_16  and  C_17 
REMARK   15  A    between atoms: C_17  and  C_18 
REMARK   16  A    between atoms: C_18  and  O_19 
REMARK   17  A    between atoms: O_19  and  C_20 
REMARK   18  A    between atoms: C_20  and  C_22 
ROOT
HETATM    1  C   UNL     1     -22.327  -6.867  -4.663  1.00  0.00     0.000 C 
ENDROOT
BRANCH   1   2
HETATM    2  C   UNL     1     -22.091  -6.288  -3.280  1.00  0.00     0.000 C 
BRANCH   2   3
HETATM    3  C   UNL     1     -21.542  -7.360  -2.359  1.00  0.00     0.000 C 
BRANCH   3   4
HETATM    4  C   UNL     1     -21.893  -7.034  -0.920  1.00  0.00     0.000 C 
BRANCH   4   5
HETATM    5  C   UNL     1     -22.622  -8.205  -0.289  1.00  0.00     0.000 C 
BRANCH   5   6
HETATM    6  C   UNL     1     -21.755  -8.825   0.788  1.00  0.00     0.000 C 
BRANCH   6   7
HETATM    7  C   UNL     1     -20.790  -9.813   0.167  1.00  0.00     0.000 C 
BRANCH   7   8
HETATM    8  C   UNL     1     -20.864 -11.132   0.912  1.00  0.00     0.000 C 
BRANCH   8   9
HETATM    9  C   UNL     1     -21.965 -11.980   0.311  1.00  0.00     0.000 C 
BRANCH   9  10
HETATM   10  C   UNL     1     -21.732 -12.193  -1.177  1.00  0.00     0.004 C 
BRANCH  10  11
HETATM   11  C   UNL     1     -23.003 -11.913  -1.987  1.00  0.00    -0.023 C 
HETATM   12  C   UNL     1     -24.110 -11.433  -1.053  1.00  0.00     0.009 C 
HETATM   13  C   UNL     1     -22.753 -10.864  -3.072  1.00  0.00     0.009 C 
ENDBRANCH  10  11
ENDBRANCH   9  10
ENDBRANCH   8   9
ENDBRANCH   7   8
ENDBRANCH   6   7
ENDBRANCH   5   6
ENDBRANCH   4   5
ENDBRANCH   3   4
ENDBRANCH   2   3
ENDBRANCH   1   2
BRANCH   1  14
HETATM   14  C   UNL     1     -21.020  -7.357  -5.249  1.00  0.00     0.000 C 
BRANCH  14  15
HETATM   15  C   UNL     1     -20.206  -6.189  -5.791  1.00  0.00     0.000 C 
BRANCH  15  16
HETATM   16  C   UNL     1     -20.594  -5.882  -7.230  1.00  0.00     0.002 C 
BRANCH  16  17
HETATM   17  C   UNL     1     -20.030  -4.533  -7.678  1.00  0.00     0.027 C 
BRANCH  17  18
HETATM   18  C   UNL     1     -20.222  -4.329  -9.169  1.00  0.00     0.178 C 
BRANCH  18  19
HETATM   19  O   UNL     1     -21.435  -3.598  -9.427  1.00  0.00    -0.321 OA
BRANCH  19  20
HETATM   20  C   UNL     1     -21.931  -3.757 -10.685  1.00  0.00     0.266 C 
HETATM   21  O   UNL     1     -21.223  -3.769 -11.703  1.00  0.00    -0.264 OA
BRANCH  20  22
HETATM   22  C   UNL     1     -23.449  -3.930 -10.699  1.00  0.00     0.037 C 
HETATM   23  C   UNL     1     -24.043  -3.562  -9.334  1.00  0.00     0.025 C 
HETATM   24  C   UNL     1     -24.083  -3.035 -11.782  1.00  0.00     0.025 C 
HETATM   25  C   UNL     1     -23.796  -5.388 -11.017  1.00  0.00     0.025 C 
ENDBRANCH  20  22
ENDBRANCH  19  20
ENDBRANCH  18  19
ENDBRANCH  17  18
ENDBRANCH  16  17
ENDBRANCH  15  16
ENDBRANCH  14  15
ENDBRANCH   1  14
TORSDOF 18
ENDMDL
MODEL 9
REMARK VINA RESULT:      -6.0      2.960      8.678
REMARK  18 active torsions:
REMARK  status: ('A' for Active; 'I' for Inactive)
REMARK    1  A    between atoms: C_2  and  C_4 
REMARK    2  A    between atoms: C_4  and  C_5 
REMARK    3  A    between atoms: C_5  and  C_6 
REMARK    4  A    between atoms: C_6  and  C_7 
REMARK    5  A    between atoms: C_7  and  C_8 
REMARK    6  A    between atoms: C_8  and  C_9 
REMARK    7  A    between atoms: C_9  and  C_10 
REMARK    8  A    between atoms: C_10  and  C_11 
REMARK    9  A    between atoms: C_11  and  C_12 
REMARK   10  A    between atoms: C_12  and  C_13 
REMARK   11  A    between atoms: C_13  and  C_14 
REMARK   12  A    between atoms: C_14  and  C_15 
REMARK   13  A    between atoms: C_15  and  C_16 
REMARK   14  A    between atoms: C_16  and  C_17 
REMARK   15  A    between atoms: C_17  and  C_18 
REMARK   16  A    between atoms: C_18  and  O_19 
REMARK   17  A    between atoms: O_19  and  C_20 
REMARK   18  A    between atoms: C_20  and  C_22 
ROOT
HETATM    1  C   UNL     1     -21.460  -7.037  -1.407  1.00  0.00     0.000 C 
ENDROOT
BRANCH   1   2
HETATM    2  C   UNL     1     -21.886  -6.330  -2.681  1.00  0.00     0.000 C 
BRANCH   2   3
HETATM    3  C   UNL     1     -21.731  -7.263  -3.866  1.00  0.00     0.000 C 
BRANCH   3   4
HETATM    4  C   UNL     1     -21.758  -6.467  -5.157  1.00  0.00     0.000 C 
BRANCH   4   5
HETATM    5  C   UNL     1     -20.344  -6.259  -5.663  1.00  0.00     0.000 C 
BRANCH   5   6
HETATM    6  C   UNL     1     -20.047  -4.775  -5.751  1.00  0.00     0.000 C 
BRANCH   6   7
HETATM    7  C   UNL     1     -20.682  -4.196  -6.998  1.00  0.00     0.000 C 
BRANCH   7   8
HETATM    8  C   UNL     1     -19.994  -4.760  -8.227  1.00  0.00     0.000 C 
BRANCH   8   9
HETATM    9  C   UNL     1     -20.621  -4.159  -9.466  1.00  0.00     0.000 C 
BRANCH   9  10
HETATM   10  C   UNL     1     -22.139  -4.212  -9.384  1.00  0.00     0.004 C 
BRANCH  10  11
HETATM   11  C   UNL     1     -22.773  -4.283 -10.778  1.00  0.00    -0.023 C 
HETATM   12  C   UNL     1     -23.978  -3.348 -10.840  1.00  0.00     0.009 C 
HETATM   13  C   UNL     1     -21.768  -3.903 -11.866  1.00  0.00     0.009 C 
ENDBRANCH  10  11
ENDBRANCH   9  10
ENDBRANCH   8   9
ENDBRANCH   7   8
ENDBRANCH   6   7
ENDBRANCH   5   6
ENDBRANCH   4   5
ENDBRANCH   3   4
ENDBRANCH   2   3
ENDBRANCH   1   2
BRANCH   1  14
HETATM   14  C   UNL     1     -22.660  -7.258  -0.511  1.00  0.00     0.000 C 
BRANCH  14  15
HETATM   15  C   UNL     1     -22.366  -8.342   0.518  1.00  0.00     0.000 C 
BRANCH  15  16
HETATM   16  C   UNL     1     -21.107  -9.113   0.146  1.00  0.00     0.002 C 
BRANCH  16  17
HETATM   17  C   UNL     1     -21.338 -10.621   0.228  1.00  0.00     0.027 C 
BRANCH  17  18
HETATM   18  C   UNL     1     -21.363 -11.246  -1.155  1.00  0.00     0.178 C 
BRANCH  18  19
HETATM   19  O   UNL     1     -20.950 -10.290  -2.149  1.00  0.00    -0.321 OA
BRANCH  19  20
HETATM   20  C   UNL     1     -20.491 -10.844  -3.306  1.00  0.00     0.266 C 
HETATM   21  O   UNL     1     -21.123 -11.689  -3.956  1.00  0.00    -0.264 OA
BRANCH  20  22
HETATM   22  C   UNL     1     -19.123 -10.300  -3.714  1.00  0.00     0.037 C 
HETATM   23  C   UNL     1     -18.069 -11.412  -3.669  1.00  0.00     0.025 C 
HETATM   24  C   UNL     1     -19.181  -9.717  -5.141  1.00  0.00     0.025 C 
HETATM   25  C   UNL     1     -18.709  -9.181  -2.754  1.00  0.00     0.025 C 
ENDBRANCH  20  22
ENDBRANCH  19  20
ENDBRANCH  18  19
ENDBRANCH  17  18
ENDBRANCH  16  17
ENDBRANCH  15  16
ENDBRANCH  14  15
ENDBRANCH   1  14
TORSDOF 18
ENDMDL
