MODEL 1
REMARK VINA RESULT:      -6.5      0.000      0.000
REMARK  26 active torsions:
REMARK  status: ('A' for Active; 'I' for Inactive)
REMARK    1  A    between atoms: C_2  and  C_3 
REMARK    2  A    between atoms: C_3  and  C_4 
REMARK    3  A    between atoms: C_4  and  C_5 
REMARK    4  A    between atoms: C_5  and  C_6 
REMARK    5  A    between atoms: C_6  and  C_7 
REMARK    6  A    between atoms: C_7  and  C_8 
REMARK    7  A    between atoms: C_8  and  C_9 
REMARK    8  A    between atoms: C_9  and  C_10 
REMARK    9  A    between atoms: C_10  and  C_11 
REMARK   10  A    between atoms: C_11  and  C_12 
REMARK   11  A    between atoms: C_12  and  C_13 
REMARK   12  A    between atoms: C_13  and  C_14 
REMARK   13  A    between atoms: C_14  and  C_15 
REMARK   14  A    between atoms: C_15  and  C_16 
REMARK   15  A    between atoms: C_16  and  O_17 
REMARK   16  A    between atoms: O_17  and  C_18 
REMARK   17  A    between atoms: C_18  and  C_20 
REMARK   18  A    between atoms: C_20  and  C_21 
REMARK   19  A    between atoms: C_21  and  C_22 
REMARK   20  A    between atoms: C_22  and  C_23 
REMARK   21  A    between atoms: C_23  and  C_24 
REMARK   22  A    between atoms: C_24  and  C_25 
REMARK   23  A    between atoms: C_25  and  C_26 
REMARK   24  A    between atoms: C_26  and  C_27 
REMARK   25  A    between atoms: C_27  and  C_28 
REMARK   26  A    between atoms: C_28  and  C_29 
ROOT
HETATM    1  C   UNL     1     -34.473  -3.701 -15.894  1.00  0.00     0.027 C 
ENDROOT
BRANCH   1   2
HETATM    2  C   UNL     1     -33.153  -4.438 -16.093  1.00  0.00     0.002 C 
BRANCH   2   3
HETATM    3  C   UNL     1     -32.375  -3.833 -17.252  1.00  0.00     0.000 C 
BRANCH   3   4
HETATM    4  C   UNL     1     -31.158  -4.687 -17.575  1.00  0.00     0.000 C 
BRANCH   4   5
HETATM    5  C   UNL     1     -31.398  -6.125 -17.148  1.00  0.00     0.000 C 
BRANCH   5   6
HETATM    6  C   UNL     1     -30.409  -7.047 -17.841  1.00  0.00     0.000 C 
BRANCH   6   7
HETATM    7  C   UNL     1     -29.222  -6.247 -18.347  1.00  0.00     0.000 C 
BRANCH   7   8
HETATM    8  C   UNL     1     -28.010  -6.506 -17.471  1.00  0.00     0.000 C 
BRANCH   8   9
HETATM    9  C   UNL     1     -26.742  -6.152 -18.224  1.00  0.00     0.000 C 
BRANCH   9  10
HETATM   10  C   UNL     1     -26.884  -6.530 -19.686  1.00  0.00     0.000 C 
BRANCH  10  11
HETATM   11  C   UNL     1     -25.514  -6.673 -20.322  1.00  0.00     0.000 C 
BRANCH  11  12
HETATM   12  C   UNL     1     -25.438  -7.964 -21.115  1.00  0.00     0.000 C 
BRANCH  12  13
HETATM   13  C   UNL     1     -24.240  -7.941 -22.048  1.00  0.00    -0.000 C 
BRANCH  13  14
HETATM   14  C   UNL     1     -22.958  -8.240 -21.287  1.00  0.00    -0.005 C 
HETATM   15  C   UNL     1     -22.043  -9.120 -22.109  1.00  0.00     0.005 C 
ENDBRANCH  13  14
ENDBRANCH  12  13
ENDBRANCH  11  12
ENDBRANCH  10  11
ENDBRANCH   9  10
ENDBRANCH   8   9
ENDBRANCH   7   8
ENDBRANCH   6   7
ENDBRANCH   5   6
ENDBRANCH   4   5
ENDBRANCH   3   4
ENDBRANCH   2   3
ENDBRANCH   1   2
BRANCH   1  16
HETATM   16  C   UNL     1     -34.610  -2.550 -16.880  1.00  0.00     0.178 C 
BRANCH  16  17
HETATM   17  O   UNL     1     -34.712  -1.301 -16.178  1.00  0.00    -0.321 OA
BRANCH  17  18
HETATM   18  C   UNL     1     -35.951  -0.734 -16.201  1.00  0.00     0.258 C 
HETATM   19  O   UNL     1     -36.707  -0.726 -17.161  1.00  0.00    -0.265 OA
BRANCH  18  20
HETATM   20  C   UNL     1     -36.287  -0.110 -14.873  1.00  0.00     0.111 C 
BRANCH  20  21
HETATM   21  C   UNL     1     -35.105   0.606 -14.239  1.00  0.00     0.010 C 
BRANCH  21  22
HETATM   22  C   UNL     1     -34.840   0.127 -12.814  1.00  0.00     0.000 C 
BRANCH  22  23
HETATM   23  C   UNL     1     -36.088  -0.518 -12.229  1.00  0.00     0.000 C 
BRANCH  23  24
HETATM   24  C   UNL     1     -35.705  -1.555 -11.184  1.00  0.00     0.000 C 
BRANCH  24  25
HETATM   25  C   UNL     1     -34.222  -1.873 -11.279  1.00  0.00     0.000 C 
BRANCH  25  26
HETATM   26  C   UNL     1     -33.995  -3.031 -12.238  1.00  0.00     0.000 C 
BRANCH  26  27
HETATM   27  C   UNL     1     -33.215  -4.139 -11.547  1.00  0.00     0.000 C 
BRANCH  27  28
HETATM   28  C   UNL     1     -34.095  -4.843 -10.525  1.00  0.00    -0.000 C 
BRANCH  28  29
HETATM   29  C   UNL     1     -34.372  -6.278 -10.955  1.00  0.00    -0.005 C 
HETATM   30  C   UNL     1     -34.788  -7.121  -9.760  1.00  0.00     0.005 C 
ENDBRANCH  28  29
ENDBRANCH  27  28
ENDBRANCH  26  27
ENDBRANCH  25  26
ENDBRANCH  24  25
ENDBRANCH  23  24
ENDBRANCH  22  23
ENDBRANCH  21  22
ENDBRANCH  20  21
ENDBRANCH  18  20
ENDBRANCH  17  18
ENDBRANCH  16  17
ENDBRANCH   1  16
TORSDOF 26
ENDMDL
MODEL 2
REMARK VINA RESULT:      -6.4     15.438     18.727
REMARK  26 active torsions:
REMARK  status: ('A' for Active; 'I' for Inactive)
REMARK    1  A    between atoms: C_2  and  C_3 
REMARK    2  A    between atoms: C_3  and  C_4 
REMARK    3  A    between atoms: C_4  and  C_5 
REMARK    4  A    between atoms: C_5  and  C_6 
REMARK    5  A    between atoms: C_6  and  C_7 
REMARK    6  A    between atoms: C_7  and  C_8 
REMARK    7  A    between atoms: C_8  and  C_9 
REMARK    8  A    between atoms: C_9  and  C_10 
REMARK    9  A    between atoms: C_10  and  C_11 
REMARK   10  A    between atoms: C_11  and  C_12 
REMARK   11  A    between atoms: C_12  and  C_13 
REMARK   12  A    between atoms: C_13  and  C_14 
REMARK   13  A    between atoms: C_14  and  C_15 
REMARK   14  A    between atoms: C_15  and  C_16 
REMARK   15  A    between atoms: C_16  and  O_17 
REMARK   16  A    between atoms: O_17  and  C_18 
REMARK   17  A    between atoms: C_18  and  C_20 
REMARK   18  A    between atoms: C_20  and  C_21 
REMARK   19  A    between atoms: C_21  and  C_22 
REMARK   20  A    between atoms: C_22  and  C_23 
REMARK   21  A    between atoms: C_23  and  C_24 
REMARK   22  A    between atoms: C_24  and  C_25 
REMARK   23  A    between atoms: C_25  and  C_26 
REMARK   24  A    between atoms: C_26  and  C_27 
REMARK   25  A    between atoms: C_27  and  C_28 
REMARK   26  A    between atoms: C_28  and  C_29 
ROOT
HETATM    1  C   UNL     1     -21.586  -8.786   0.560  1.00  0.00     0.027 C 
ENDROOT
BRANCH   1   2
HETATM    2  C   UNL     1     -21.236  -7.880  -0.615  1.00  0.00     0.002 C 
BRANCH   2   3
HETATM    3  C   UNL     1     -22.434  -7.031  -1.008  1.00  0.00     0.000 C 
BRANCH   3   4
HETATM    4  C   UNL     1     -22.006  -5.913  -1.947  1.00  0.00     0.000 C 
BRANCH   4   5
HETATM    5  C   UNL     1     -21.226  -6.484  -3.121  1.00  0.00     0.000 C 
BRANCH   5   6
HETATM    6  C   UNL     1     -22.180  -6.894  -4.229  1.00  0.00     0.000 C 
BRANCH   6   7
HETATM    7  C   UNL     1     -21.436  -6.976  -5.550  1.00  0.00     0.000 C 
BRANCH   7   8
HETATM    8  C   UNL     1     -20.493  -5.795  -5.687  1.00  0.00     0.000 C 
BRANCH   8   9
HETATM    9  C   UNL     1     -19.765  -5.866  -7.016  1.00  0.00     0.000 C 
BRANCH   9  10
HETATM   10  C   UNL     1     -19.860  -4.530  -7.731  1.00  0.00     0.000 C 
BRANCH  10  11
HETATM   11  C   UNL     1     -21.066  -3.758  -7.229  1.00  0.00     0.000 C 
BRANCH  11  12
HETATM   12  C   UNL     1     -22.183  -3.809  -8.256  1.00  0.00     0.000 C 
BRANCH  12  13
HETATM   13  C   UNL     1     -21.621  -4.121  -9.631  1.00  0.00    -0.000 C 
BRANCH  13  14
HETATM   14  C   UNL     1     -22.544  -3.603 -10.723  1.00  0.00    -0.005 C 
HETATM   15  C   UNL     1     -23.298  -4.743 -11.370  1.00  0.00     0.005 C 
ENDBRANCH  13  14
ENDBRANCH  12  13
ENDBRANCH  11  12
ENDBRANCH  10  11
ENDBRANCH   9  10
ENDBRANCH   8   9
ENDBRANCH   7   8
ENDBRANCH   6   7
ENDBRANCH   5   6
ENDBRANCH   4   5
ENDBRANCH   3   4
ENDBRANCH   2   3
ENDBRANCH   1   2
BRANCH   1  16
HETATM   16  C   UNL     1     -21.831 -10.215   0.094  1.00  0.00     0.178 C 
BRANCH  16  17
HETATM   17  O   UNL     1     -22.849 -10.242  -0.917  1.00  0.00    -0.321 OA
BRANCH  17  18
HETATM   18  C   UNL     1     -22.616 -11.115  -1.938  1.00  0.00     0.258 C 
HETATM   19  O   UNL     1     -22.743 -12.329  -1.873  1.00  0.00    -0.265 OA
BRANCH  18  20
HETATM   20  C   UNL     1     -22.178 -10.391  -3.183  1.00  0.00     0.111 C 
BRANCH  20  21
HETATM   21  C   UNL     1     -20.819 -10.849  -3.688  1.00  0.00     0.010 C 
BRANCH  21  22
HETATM   22  C   UNL     1     -19.672 -10.110  -3.005  1.00  0.00     0.000 C 
BRANCH  22  23
HETATM   23  C   UNL     1     -18.920  -9.248  -4.010  1.00  0.00     0.000 C 
BRANCH  23  24
HETATM   24  C   UNL     1     -18.544 -10.071  -5.232  1.00  0.00     0.000 C 
BRANCH  24  25
HETATM   25  C   UNL     1     -17.505  -9.335  -6.061  1.00  0.00     0.000 C 
BRANCH  25  26
HETATM   26  C   UNL     1     -16.109  -9.818  -5.701  1.00  0.00     0.000 C 
BRANCH  26  27
HETATM   27  C   UNL     1     -15.914 -11.252  -6.167  1.00  0.00     0.000 C 
BRANCH  27  28
HETATM   28  C   UNL     1     -14.641 -11.830  -5.571  1.00  0.00    -0.000 C 
BRANCH  28  29
HETATM   29  C   UNL     1     -13.823 -12.544  -6.641  1.00  0.00    -0.005 C 
HETATM   30  C   UNL     1     -13.263 -13.850  -6.100  1.00  0.00     0.005 C 
ENDBRANCH  28  29
ENDBRANCH  27  28
ENDBRANCH  26  27
ENDBRANCH  25  26
ENDBRANCH  24  25
ENDBRANCH  23  24
ENDBRANCH  22  23
ENDBRANCH  21  22
ENDBRANCH  20  21
ENDBRANCH  18  20
ENDBRANCH  17  18
ENDBRANCH  16  17
ENDBRANCH   1  16
TORSDOF 26
ENDMDL
MODEL 3
REMARK VINA RESULT:      -6.4     16.581     20.240
REMARK  26 active torsions:
REMARK  status: ('A' for Active; 'I' for Inactive)
REMARK    1  A    between atoms: C_2  and  C_3 
REMARK    2  A    between atoms: C_3  and  C_4 
REMARK    3  A    between atoms: C_4  and  C_5 
REMARK    4  A    between atoms: C_5  and  C_6 
REMARK    5  A    between atoms: C_6  and  C_7 
REMARK    6  A    between atoms: C_7  and  C_8 
REMARK    7  A    between atoms: C_8  and  C_9 
REMARK    8  A    between atoms: C_9  and  C_10 
REMARK    9  A    between atoms: C_10  and  C_11 
REMARK   10  A    between atoms: C_11  and  C_12 
REMARK   11  A    between atoms: C_12  and  C_13 
REMARK   12  A    between atoms: C_13  and  C_14 
REMARK   13  A    between atoms: C_14  and  C_15 
REMARK   14  A    between atoms: C_15  and  C_16 
REMARK   15  A    between atoms: C_16  and  O_17 
REMARK   16  A    between atoms: O_17  and  C_18 
REMARK   17  A    between atoms: C_18  and  C_20 
REMARK   18  A    between atoms: C_20  and  C_21 
REMARK   19  A    between atoms: C_21  and  C_22 
REMARK   20  A    between atoms: C_22  and  C_23 
REMARK   21  A    between atoms: C_23  and  C_24 
REMARK   22  A    between atoms: C_24  and  C_25 
REMARK   23  A    between atoms: C_25  and  C_26 
REMARK   24  A    between atoms: C_26  and  C_27 
REMARK   25  A    between atoms: C_27  and  C_28 
REMARK   26  A    between atoms: C_28  and  C_29 
ROOT
HETATM    1  C   UNL     1     -15.963  -9.884  -3.161  1.00  0.00     0.027 C 
ENDROOT
BRANCH   1   2
HETATM    2  C   UNL     1     -16.318 -11.275  -2.648  1.00  0.00     0.002 C 
BRANCH   2   3
HETATM    3  C   UNL     1     -17.339 -11.184  -1.524  1.00  0.00     0.000 C 
BRANCH   3   4
HETATM    4  C   UNL     1     -18.648 -11.836  -1.944  1.00  0.00     0.000 C 
BRANCH   4   5
HETATM    5  C   UNL     1     -19.818 -11.158  -1.249  1.00  0.00     0.000 C 
BRANCH   5   6
HETATM    6  C   UNL     1     -19.992 -11.724   0.150  1.00  0.00     0.000 C 
BRANCH   6   7
HETATM    7  C   UNL     1     -20.448 -10.630   1.098  1.00  0.00     0.000 C 
BRANCH   7   8
HETATM    8  C   UNL     1     -20.783  -9.373   0.317  1.00  0.00     0.000 C 
BRANCH   8   9
HETATM    9  C   UNL     1     -22.240  -9.006   0.526  1.00  0.00     0.000 C 
BRANCH   9  10
HETATM   10  C   UNL     1     -23.073  -9.508  -0.639  1.00  0.00     0.000 C 
BRANCH  10  11
HETATM   11  C   UNL     1     -23.906 -10.700  -0.207  1.00  0.00     0.000 C 
BRANCH  11  12
HETATM   12  C   UNL     1     -23.691 -11.860  -1.162  1.00  0.00     0.000 C 
BRANCH  12  13
HETATM   13  C   UNL     1     -23.400 -13.134  -0.388  1.00  0.00    -0.000 C 
BRANCH  13  14
HETATM   14  C   UNL     1     -23.450 -12.878   1.111  1.00  0.00    -0.005 C 
HETATM   15  C   UNL     1     -22.582 -13.872   1.850  1.00  0.00     0.005 C 
ENDBRANCH  13  14
ENDBRANCH  12  13
ENDBRANCH  11  12
ENDBRANCH  10  11
ENDBRANCH   9  10
ENDBRANCH   8   9
ENDBRANCH   7   8
ENDBRANCH   6   7
ENDBRANCH   5   6
ENDBRANCH   4   5
ENDBRANCH   3   4
ENDBRANCH   2   3
ENDBRANCH   1   2
BRANCH   1  16
HETATM   16  C   UNL     1     -16.320  -9.737  -4.634  1.00  0.00     0.178 C 
BRANCH  16  17
HETATM   17  O   UNL     1     -17.157 -10.824  -5.055  1.00  0.00    -0.321 OA
BRANCH  17  18
HETATM   18  C   UNL     1     -18.280 -10.451  -5.732  1.00  0.00     0.258 C 
HETATM   19  O   UNL     1     -18.574 -10.807  -6.863  1.00  0.00    -0.265 OA
BRANCH  18  20
HETATM   20  C   UNL     1     -19.134  -9.531  -4.901  1.00  0.00     0.111 C 
BRANCH  20  21
HETATM   21  C   UNL     1     -20.599  -9.942  -4.880  1.00  0.00     0.010 C 
BRANCH  21  22
HETATM   22  C   UNL     1     -21.427  -9.067  -3.943  1.00  0.00     0.000 C 
BRANCH  22  23
HETATM   23  C   UNL     1     -20.520  -8.178  -3.104  1.00  0.00     0.000 C 
BRANCH  23  24
HETATM   24  C   UNL     1     -21.201  -6.848  -2.820  1.00  0.00     0.000 C 
BRANCH  24  25
HETATM   25  C   UNL     1     -21.851  -6.311  -4.084  1.00  0.00     0.000 C 
BRANCH  25  26
HETATM   26  C   UNL     1     -20.825  -5.570  -4.926  1.00  0.00     0.000 C 
BRANCH  26  27
HETATM   27  C   UNL     1     -20.977  -5.949  -6.392  1.00  0.00     0.000 C 
BRANCH  27  28
HETATM   28  C   UNL     1     -19.699  -5.630  -7.152  1.00  0.00    -0.000 C 
BRANCH  28  29
HETATM   29  C   UNL     1     -19.840  -4.315  -7.909  1.00  0.00    -0.005 C 
HETATM   30  C   UNL     1     -21.140  -4.292  -8.699  1.00  0.00     0.005 C 
ENDBRANCH  28  29
ENDBRANCH  27  28
ENDBRANCH  26  27
ENDBRANCH  25  26
ENDBRANCH  24  25
ENDBRANCH  23  24
ENDBRANCH  22  23
ENDBRANCH  21  22
ENDBRANCH  20  21
ENDBRANCH  18  20
ENDBRANCH  17  18
ENDBRANCH  16  17
ENDBRANCH   1  16
TORSDOF 26
ENDMDL
MODEL 4
REMARK VINA RESULT:      -6.3     16.137     18.919
REMARK  26 active torsions:
REMARK  status: ('A' for Active; 'I' for Inactive)
REMARK    1  A    between atoms: C_2  and  C_3 
REMARK    2  A    between atoms: C_3  and  C_4 
REMARK    3  A    between atoms: C_4  and  C_5 
REMARK    4  A    between atoms: C_5  and  C_6 
REMARK    5  A    between atoms: C_6  and  C_7 
REMARK    6  A    between atoms: C_7  and  C_8 
REMARK    7  A    between atoms: C_8  and  C_9 
REMARK    8  A    between atoms: C_9  and  C_10 
REMARK    9  A    between atoms: C_10  and  C_11 
REMARK   10  A    between atoms: C_11  and  C_12 
REMARK   11  A    between atoms: C_12  and  C_13 
REMARK   12  A    between atoms: C_13  and  C_14 
REMARK   13  A    between atoms: C_14  and  C_15 
REMARK   14  A    between atoms: C_15  and  C_16 
REMARK   15  A    between atoms: C_16  and  O_17 
REMARK   16  A    between atoms: O_17  and  C_18 
REMARK   17  A    between atoms: C_18  and  C_20 
REMARK   18  A    between atoms: C_20  and  C_21 
REMARK   19  A    between atoms: C_21  and  C_22 
REMARK   20  A    between atoms: C_22  and  C_23 
REMARK   21  A    between atoms: C_23  and  C_24 
REMARK   22  A    between atoms: C_24  and  C_25 
REMARK   23  A    between atoms: C_25  and  C_26 
REMARK   24  A    between atoms: C_26  and  C_27 
REMARK   25  A    between atoms: C_27  and  C_28 
REMARK   26  A    between atoms: C_28  and  C_29 
ROOT
HETATM    1  C   UNL     1     -23.313 -10.169  -0.282  1.00  0.00     0.027 C 
ENDROOT
BRANCH   1   2
HETATM    2  C   UNL     1     -21.990  -9.413  -0.291  1.00  0.00     0.002 C 
BRANCH   2   3
HETATM    3  C   UNL     1     -22.175  -8.007   0.258  1.00  0.00     0.000 C 
BRANCH   3   4
HETATM    4  C   UNL     1     -22.459  -7.029  -0.873  1.00  0.00     0.000 C 
BRANCH   4   5
HETATM    5  C   UNL     1     -21.390  -7.146  -1.947  1.00  0.00     0.000 C 
BRANCH   5   6
HETATM    6  C   UNL     1     -21.833  -6.418  -3.204  1.00  0.00     0.000 C 
BRANCH   6   7
HETATM    7  C   UNL     1     -21.823  -7.370  -4.386  1.00  0.00     0.000 C 
BRANCH   7   8
HETATM    8  C   UNL     1     -20.936  -6.819  -5.488  1.00  0.00     0.000 C 
BRANCH   8   9
HETATM    9  C   UNL     1     -20.732  -5.329  -5.291  1.00  0.00     0.000 C 
BRANCH   9  10
HETATM   10  C   UNL     1     -19.680  -4.818  -6.259  1.00  0.00     0.000 C 
BRANCH  10  11
HETATM   11  C   UNL     1     -20.261  -4.729  -7.657  1.00  0.00     0.000 C 
BRANCH  11  12
HETATM   12  C   UNL     1     -21.394  -3.719  -7.689  1.00  0.00     0.000 C 
BRANCH  12  13
HETATM   13  C   UNL     1     -22.153  -3.819  -9.000  1.00  0.00    -0.000 C 
BRANCH  13  14
HETATM   14  C   UNL     1     -21.250  -4.337 -10.109  1.00  0.00    -0.005 C 
HETATM   15  C   UNL     1     -21.147  -3.326 -11.229  1.00  0.00     0.005 C 
ENDBRANCH  13  14
ENDBRANCH  12  13
ENDBRANCH  11  12
ENDBRANCH  10  11
ENDBRANCH   9  10
ENDBRANCH   8   9
ENDBRANCH   7   8
ENDBRANCH   6   7
ENDBRANCH   5   6
ENDBRANCH   4   5
ENDBRANCH   3   4
ENDBRANCH   2   3
ENDBRANCH   1   2
BRANCH   1  16
HETATM   16  C   UNL     1     -23.458 -11.031  -1.529  1.00  0.00     0.178 C 
BRANCH  16  17
HETATM   17  O   UNL     1     -22.420 -12.021  -1.575  1.00  0.00    -0.321 OA
BRANCH  17  18
HETATM   18  C   UNL     1     -22.019 -12.370  -2.830  1.00  0.00     0.258 C 
HETATM   19  O   UNL     1     -21.613 -13.474  -3.161  1.00  0.00    -0.265 OA
BRANCH  18  20
HETATM   20  C   UNL     1     -22.144 -11.210  -3.782  1.00  0.00     0.111 C 
BRANCH  20  21
HETATM   21  C   UNL     1     -21.522 -11.491  -5.142  1.00  0.00     0.010 C 
BRANCH  21  22
HETATM   22  C   UNL     1     -20.432 -10.482  -5.494  1.00  0.00     0.000 C 
BRANCH  22  23
HETATM   23  C   UNL     1     -19.200 -10.707  -4.629  1.00  0.00     0.000 C 
BRANCH  23  24
HETATM   24  C   UNL     1     -18.773  -9.403  -3.972  1.00  0.00     0.000 C 
BRANCH  24  25
HETATM   25  C   UNL     1     -18.042  -9.686  -2.671  1.00  0.00     0.000 C 
BRANCH  25  26
HETATM   26  C   UNL     1     -16.561  -9.376  -2.823  1.00  0.00     0.000 C 
BRANCH  26  27
HETATM   27  C   UNL     1     -15.736 -10.634  -2.599  1.00  0.00     0.000 C 
BRANCH  27  28
HETATM   28  C   UNL     1     -16.557 -11.675  -1.853  1.00  0.00    -0.000 C 
BRANCH  28  29
HETATM   29  C   UNL     1     -15.696 -12.400  -0.825  1.00  0.00    -0.005 C 
HETATM   30  C   UNL     1     -16.110 -12.009   0.585  1.00  0.00     0.005 C 
ENDBRANCH  28  29
ENDBRANCH  27  28
ENDBRANCH  26  27
ENDBRANCH  25  26
ENDBRANCH  24  25
ENDBRANCH  23  24
ENDBRANCH  22  23
ENDBRANCH  21  22
ENDBRANCH  20  21
ENDBRANCH  18  20
ENDBRANCH  17  18
ENDBRANCH  16  17
ENDBRANCH   1  16
TORSDOF 26
ENDMDL
MODEL 5
REMARK VINA RESULT:      -6.3     14.491     17.486
REMARK  26 active torsions:
REMARK  status: ('A' for Active; 'I' for Inactive)
REMARK    1  A    between atoms: C_2  and  C_3 
REMARK    2  A    between atoms: C_3  and  C_4 
REMARK    3  A    between atoms: C_4  and  C_5 
REMARK    4  A    between atoms: C_5  and  C_6 
REMARK    5  A    between atoms: C_6  and  C_7 
REMARK    6  A    between atoms: C_7  and  C_8 
REMARK    7  A    between atoms: C_8  and  C_9 
REMARK    8  A    between atoms: C_9  and  C_10 
REMARK    9  A    between atoms: C_10  and  C_11 
REMARK   10  A    between atoms: C_11  and  C_12 
REMARK   11  A    between atoms: C_12  and  C_13 
REMARK   12  A    between atoms: C_13  and  C_14 
REMARK   13  A    between atoms: C_14  and  C_15 
REMARK   14  A    between atoms: C_15  and  C_16 
REMARK   15  A    between atoms: C_16  and  O_17 
REMARK   16  A    between atoms: O_17  and  C_18 
REMARK   17  A    between atoms: C_18  and  C_20 
REMARK   18  A    between atoms: C_20  and  C_21 
REMARK   19  A    between atoms: C_21  and  C_22 
REMARK   20  A    between atoms: C_22  and  C_23 
REMARK   21  A    between atoms: C_23  and  C_24 
REMARK   22  A    between atoms: C_24  and  C_25 
REMARK   23  A    between atoms: C_25  and  C_26 
REMARK   24  A    between atoms: C_26  and  C_27 
REMARK   25  A    between atoms: C_27  and  C_28 
REMARK   26  A    between atoms: C_28  and  C_29 
ROOT
HETATM    1  C   UNL     1     -21.996  -7.638  -1.610  1.00  0.00     0.027 C 
ENDROOT
BRANCH   1   2
HETATM    2  C   UNL     1     -21.738  -7.710  -0.109  1.00  0.00     0.002 C 
BRANCH   2   3
HETATM    3  C   UNL     1     -22.094  -9.088   0.428  1.00  0.00     0.000 C 
BRANCH   3   4
HETATM    4  C   UNL     1     -23.567  -9.384   0.192  1.00  0.00     0.000 C 
BRANCH   4   5
HETATM    5  C   UNL     1     -23.745 -10.818  -0.281  1.00  0.00     0.000 C 
BRANCH   5   6
HETATM    6  C   UNL     1     -22.479 -11.301  -0.967  1.00  0.00     0.000 C 
BRANCH   6   7
HETATM    7  C   UNL     1     -22.812 -11.849  -2.343  1.00  0.00     0.000 C 
BRANCH   7   8
HETATM    8  C   UNL     1     -21.941 -11.180  -3.391  1.00  0.00     0.000 C 
BRANCH   8   9
HETATM    9  C   UNL     1     -20.813 -10.420  -2.718  1.00  0.00     0.000 C 
BRANCH   9  10
HETATM   10  C   UNL     1     -19.474 -10.951  -3.196  1.00  0.00     0.000 C 
BRANCH  10  11
HETATM   11  C   UNL     1     -18.346 -10.222  -2.491  1.00  0.00     0.000 C 
BRANCH  11  12
HETATM   12  C   UNL     1     -17.005 -10.764  -2.953  1.00  0.00     0.000 C 
BRANCH  12  13
HETATM   13  C   UNL     1     -16.134  -9.638  -3.478  1.00  0.00    -0.000 C 
BRANCH  13  14
HETATM   14  C   UNL     1     -15.688  -9.920  -4.905  1.00  0.00    -0.005 C 
HETATM   15  C   UNL     1     -16.879  -9.969  -5.836  1.00  0.00     0.005 C 
ENDBRANCH  13  14
ENDBRANCH  12  13
ENDBRANCH  11  12
ENDBRANCH  10  11
ENDBRANCH   9  10
ENDBRANCH   8   9
ENDBRANCH   7   8
ENDBRANCH   6   7
ENDBRANCH   5   6
ENDBRANCH   4   5
ENDBRANCH   3   4
ENDBRANCH   2   3
ENDBRANCH   1   2
BRANCH   1  16
HETATM   16  C   UNL     1     -21.719  -6.240  -2.145  1.00  0.00     0.178 C 
BRANCH  16  17
HETATM   17  O   UNL     1     -22.431  -6.025  -3.373  1.00  0.00    -0.321 OA
BRANCH  17  18
HETATM   18  C   UNL     1     -21.804  -6.500  -4.486  1.00  0.00     0.258 C 
HETATM   19  O   UNL     1     -21.965  -7.612  -4.967  1.00  0.00    -0.265 OA
BRANCH  18  20
HETATM   20  C   UNL     1     -20.875  -5.469  -5.068  1.00  0.00     0.111 C 
BRANCH  20  21
HETATM   21  C   UNL     1     -20.711  -5.602  -6.574  1.00  0.00     0.010 C 
BRANCH  21  22
HETATM   22  C   UNL     1     -20.970  -4.284  -7.299  1.00  0.00     0.000 C 
BRANCH  22  23
HETATM   23  C   UNL     1     -19.867  -4.008  -8.312  1.00  0.00     0.000 C 
BRANCH  23  24
HETATM   24  C   UNL     1     -20.384  -4.222  -9.726  1.00  0.00     0.000 C 
BRANCH  24  25
HETATM   25  C   UNL     1     -21.895  -4.063  -9.762  1.00  0.00     0.000 C 
BRANCH  25  26
HETATM   26  C   UNL     1     -22.367  -3.863 -11.193  1.00  0.00     0.000 C 
BRANCH  26  27
HETATM   27  C   UNL     1     -23.732  -3.191 -11.206  1.00  0.00     0.000 C 
BRANCH  27  28
HETATM   28  C   UNL     1     -24.218  -3.017 -12.637  1.00  0.00    -0.000 C 
BRANCH  28  29
HETATM   29  C   UNL     1     -23.038  -2.906 -13.595  1.00  0.00    -0.005 C 
HETATM   30  C   UNL     1     -23.356  -1.935 -14.720  1.00  0.00     0.005 C 
ENDBRANCH  28  29
ENDBRANCH  27  28
ENDBRANCH  26  27
ENDBRANCH  25  26
ENDBRANCH  24  25
ENDBRANCH  23  24
ENDBRANCH  22  23
ENDBRANCH  21  22
ENDBRANCH  20  21
ENDBRANCH  18  20
ENDBRANCH  17  18
ENDBRANCH  16  17
ENDBRANCH   1  16
TORSDOF 26
ENDMDL
MODEL 6
REMARK VINA RESULT:      -6.3     15.023     18.590
REMARK  26 active torsions:
REMARK  status: ('A' for Active; 'I' for Inactive)
REMARK    1  A    between atoms: C_2  and  C_3 
REMARK    2  A    between atoms: C_3  and  C_4 
REMARK    3  A    between atoms: C_4  and  C_5 
REMARK    4  A    between atoms: C_5  and  C_6 
REMARK    5  A    between atoms: C_6  and  C_7 
REMARK    6  A    between atoms: C_7  and  C_8 
REMARK    7  A    between atoms: C_8  and  C_9 
REMARK    8  A    between atoms: C_9  and  C_10 
REMARK    9  A    between atoms: C_10  and  C_11 
REMARK   10  A    between atoms: C_11  and  C_12 
REMARK   11  A    between atoms: C_12  and  C_13 
REMARK   12  A    between atoms: C_13  and  C_14 
REMARK   13  A    between atoms: C_14  and  C_15 
REMARK   14  A    between atoms: C_15  and  C_16 
REMARK   15  A    between atoms: C_16  and  O_17 
REMARK   16  A    between atoms: O_17  and  C_18 
REMARK   17  A    between atoms: C_18  and  C_20 
REMARK   18  A    between atoms: C_20  and  C_21 
REMARK   19  A    between atoms: C_21  and  C_22 
REMARK   20  A    between atoms: C_22  and  C_23 
REMARK   21  A    between atoms: C_23  and  C_24 
REMARK   22  A    between atoms: C_24  and  C_25 
REMARK   23  A    between atoms: C_25  and  C_26 
REMARK   24  A    between atoms: C_26  and  C_27 
REMARK   25  A    between atoms: C_27  and  C_28 
REMARK   26  A    between atoms: C_28  and  C_29 
ROOT
HETATM    1  C   UNL     1     -18.369  -9.312  -3.528  1.00  0.00     0.027 C 
ENDROOT
BRANCH   1   2
HETATM    2  C   UNL     1     -18.670 -10.164  -2.300  1.00  0.00     0.002 C 
BRANCH   2   3
HETATM    3  C   UNL     1     -19.968  -9.717  -1.646  1.00  0.00     0.000 C 
BRANCH   3   4
HETATM    4  C   UNL     1     -20.165  -8.220  -1.829  1.00  0.00     0.000 C 
BRANCH   4   5
HETATM    5  C   UNL     1     -21.562  -7.816  -1.385  1.00  0.00     0.000 C 
BRANCH   5   6
HETATM    6  C   UNL     1     -21.786  -8.219   0.062  1.00  0.00     0.000 C 
BRANCH   6   7
HETATM    7  C   UNL     1     -23.102  -8.962   0.196  1.00  0.00     0.000 C 
BRANCH   7   8
HETATM    8  C   UNL     1     -23.101 -10.185  -0.702  1.00  0.00     0.000 C 
BRANCH   8   9
HETATM    9  C   UNL     1     -24.093 -11.209  -0.185  1.00  0.00     0.000 C 
BRANCH   9  10
HETATM   10  C   UNL     1     -23.393 -12.188   0.739  1.00  0.00     0.000 C 
BRANCH  10  11
HETATM   11  C   UNL     1     -21.905 -12.205   0.447  1.00  0.00     0.000 C 
BRANCH  11  12
HETATM   12  C   UNL     1     -21.464 -13.605   0.061  1.00  0.00     0.000 C 
BRANCH  12  13
HETATM   13  C   UNL     1     -20.607 -13.563  -1.191  1.00  0.00    -0.000 C 
BRANCH  13  14
HETATM   14  C   UNL     1     -21.403 -13.030  -2.373  1.00  0.00    -0.005 C 
HETATM   15  C   UNL     1     -20.615 -13.173  -3.655  1.00  0.00     0.005 C 
ENDBRANCH  13  14
ENDBRANCH  12  13
ENDBRANCH  11  12
ENDBRANCH  10  11
ENDBRANCH   9  10
ENDBRANCH   8   9
ENDBRANCH   7   8
ENDBRANCH   6   7
ENDBRANCH   5   6
ENDBRANCH   4   5
ENDBRANCH   3   4
ENDBRANCH   2   3
ENDBRANCH   1   2
BRANCH   1  16
HETATM   16  C   UNL     1     -18.752 -10.043  -4.807  1.00  0.00     0.178 C 
BRANCH  16  17
HETATM   17  O   UNL     1     -19.572  -9.204  -5.635  1.00  0.00    -0.321 OA
BRANCH  17  18
HETATM   18  C   UNL     1     -20.867  -9.091  -5.226  1.00  0.00     0.258 C 
HETATM   19  O   UNL     1     -21.576 -10.017  -4.859  1.00  0.00    -0.265 OA
BRANCH  18  20
HETATM   20  C   UNL     1     -21.330  -7.659  -5.278  1.00  0.00     0.111 C 
BRANCH  20  21
HETATM   21  C   UNL     1     -20.289  -6.721  -5.870  1.00  0.00     0.010 C 
BRANCH  21  22
HETATM   22  C   UNL     1     -20.668  -5.254  -5.687  1.00  0.00     0.000 C 
BRANCH  22  23
HETATM   23  C   UNL     1     -21.899  -4.915  -6.516  1.00  0.00     0.000 C 
BRANCH  23  24
HETATM   24  C   UNL     1     -21.567  -3.837  -7.536  1.00  0.00     0.000 C 
BRANCH  24  25
HETATM   25  C   UNL     1     -21.729  -4.381  -8.946  1.00  0.00     0.000 C 
BRANCH  25  26
HETATM   26  C   UNL     1     -20.378  -4.447  -9.640  1.00  0.00     0.000 C 
BRANCH  26  27
HETATM   27  C   UNL     1     -20.442  -3.731 -10.981  1.00  0.00     0.000 C 
BRANCH  27  28
HETATM   28  C   UNL     1     -21.755  -4.044 -11.682  1.00  0.00    -0.000 C 
BRANCH  28  29
HETATM   29  C   UNL     1     -22.449  -2.760 -12.118  1.00  0.00    -0.005 C 
HETATM   30  C   UNL     1     -23.058  -2.928 -13.501  1.00  0.00     0.005 C 
ENDBRANCH  28  29
ENDBRANCH  27  28
ENDBRANCH  26  27
ENDBRANCH  25  26
ENDBRANCH  24  25
ENDBRANCH  23  24
ENDBRANCH  22  23
ENDBRANCH  21  22
ENDBRANCH  20  21
ENDBRANCH  18  20
ENDBRANCH  17  18
ENDBRANCH  16  17
ENDBRANCH   1  16
TORSDOF 26
ENDMDL
MODEL 7
REMARK VINA RESULT:      -6.2     15.572     18.420
REMARK  26 active torsions:
REMARK  status: ('A' for Active; 'I' for Inactive)
REMARK    1  A    between atoms: C_2  and  C_3 
REMARK    2  A    between atoms: C_3  and  C_4 
REMARK    3  A    between atoms: C_4  and  C_5 
REMARK    4  A    between atoms: C_5  and  C_6 
REMARK    5  A    between atoms: C_6  and  C_7 
REMARK    6  A    between atoms: C_7  and  C_8 
REMARK    7  A    between atoms: C_8  and  C_9 
REMARK    8  A    between atoms: C_9  and  C_10 
REMARK    9  A    between atoms: C_10  and  C_11 
REMARK   10  A    between atoms: C_11  and  C_12 
REMARK   11  A    between atoms: C_12  and  C_13 
REMARK   12  A    between atoms: C_13  and  C_14 
REMARK   13  A    between atoms: C_14  and  C_15 
REMARK   14  A    between atoms: C_15  and  C_16 
REMARK   15  A    between atoms: C_16  and  O_17 
REMARK   16  A    between atoms: O_17  and  C_18 
REMARK   17  A    between atoms: C_18  and  C_20 
REMARK   18  A    between atoms: C_20  and  C_21 
REMARK   19  A    between atoms: C_21  and  C_22 
REMARK   20  A    between atoms: C_22  and  C_23 
REMARK   21  A    between atoms: C_23  and  C_24 
REMARK   22  A    between atoms: C_24  and  C_25 
REMARK   23  A    between atoms: C_25  and  C_26 
REMARK   24  A    between atoms: C_26  and  C_27 
REMARK   25  A    between atoms: C_27  and  C_28 
REMARK   26  A    between atoms: C_28  and  C_29 
ROOT
HETATM    1  C   UNL     1     -21.296  -6.685  -1.911  1.00  0.00     0.027 C 
ENDROOT
BRANCH   1   2
HETATM    2  C   UNL     1     -21.813  -6.981  -3.314  1.00  0.00     0.002 C 
BRANCH   2   3
HETATM    3  C   UNL     1     -20.928  -8.009  -4.002  1.00  0.00     0.000 C 
BRANCH   3   4
HETATM    4  C   UNL     1     -21.215  -8.038  -5.496  1.00  0.00     0.000 C 
BRANCH   4   5
HETATM    5  C   UNL     1     -21.455  -6.629  -6.012  1.00  0.00     0.000 C 
BRANCH   5   6
HETATM    6  C   UNL     1     -20.138  -5.989  -6.413  1.00  0.00     0.000 C 
BRANCH   6   7
HETATM    7  C   UNL     1     -20.264  -4.476  -6.379  1.00  0.00     0.000 C 
BRANCH   7   8
HETATM    8  C   UNL     1     -21.121  -4.002  -7.538  1.00  0.00     0.000 C 
BRANCH   8   9
HETATM    9  C   UNL     1     -20.628  -4.618  -8.833  1.00  0.00     0.000 C 
BRANCH   9  10
HETATM   10  C   UNL     1     -20.484  -3.544  -9.896  1.00  0.00     0.000 C 
BRANCH  10  11
HETATM   11  C   UNL     1     -20.595  -4.162 -11.277  1.00  0.00     0.000 C 
BRANCH  11  12
HETATM   12  C   UNL     1     -22.051  -4.429 -11.614  1.00  0.00     0.000 C 
BRANCH  12  13
HETATM   13  C   UNL     1     -22.859  -3.148 -11.513  1.00  0.00    -0.000 C 
BRANCH  13  14
HETATM   14  C   UNL     1     -24.023  -3.319 -10.548  1.00  0.00    -0.005 C 
HETATM   15  C   UNL     1     -24.173  -4.768 -10.144  1.00  0.00     0.005 C 
ENDBRANCH  13  14
ENDBRANCH  12  13
ENDBRANCH  11  12
ENDBRANCH  10  11
ENDBRANCH   9  10
ENDBRANCH   8   9
ENDBRANCH   7   8
ENDBRANCH   6   7
ENDBRANCH   5   6
ENDBRANCH   4   5
ENDBRANCH   3   4
ENDBRANCH   2   3
ENDBRANCH   1   2
BRANCH   1  16
HETATM   16  C   UNL     1     -22.364  -6.969  -0.864  1.00  0.00     0.178 C 
BRANCH  16  17
HETATM   17  O   UNL     1     -22.546  -8.384  -0.708  1.00  0.00    -0.321 OA
BRANCH  17  18
HETATM   18  C   UNL     1     -21.780  -8.954   0.265  1.00  0.00     0.258 C 
HETATM   19  O   UNL     1     -21.328  -8.371   1.240  1.00  0.00    -0.265 OA
BRANCH  18  20
HETATM   20  C   UNL     1     -21.555 -10.417  -0.006  1.00  0.00     0.111 C 
BRANCH  20  21
HETATM   21  C   UNL     1     -20.199 -10.908   0.474  1.00  0.00     0.010 C 
BRANCH  21  22
HETATM   22  C   UNL     1     -19.929 -12.351   0.059  1.00  0.00     0.000 C 
BRANCH  22  23
HETATM   23  C   UNL     1     -19.253 -12.395  -1.305  1.00  0.00     0.000 C 
BRANCH  23  24
HETATM   24  C   UNL     1     -18.333 -11.197  -1.476  1.00  0.00     0.000 C 
BRANCH  24  25
HETATM   25  C   UNL     1     -18.535 -10.571  -2.846  1.00  0.00     0.000 C 
BRANCH  25  26
HETATM   26  C   UNL     1     -17.598  -9.388  -3.025  1.00  0.00     0.000 C 
BRANCH  26  27
HETATM   27  C   UNL     1     -16.174  -9.789  -2.670  1.00  0.00     0.000 C 
BRANCH  27  28
HETATM   28  C   UNL     1     -15.627 -10.759  -3.705  1.00  0.00    -0.000 C 
BRANCH  28  29
HETATM   29  C   UNL     1     -15.582 -10.106  -5.081  1.00  0.00    -0.005 C 
HETATM   30  C   UNL     1     -15.584 -11.164  -6.172  1.00  0.00     0.005 C 
ENDBRANCH  28  29
ENDBRANCH  27  28
ENDBRANCH  26  27
ENDBRANCH  25  26
ENDBRANCH  24  25
ENDBRANCH  23  24
ENDBRANCH  22  23
ENDBRANCH  21  22
ENDBRANCH  20  21
ENDBRANCH  18  20
ENDBRANCH  17  18
ENDBRANCH  16  17
ENDBRANCH   1  16
TORSDOF 26
ENDMDL
MODEL 8
REMARK VINA RESULT:      -6.1     14.832     17.401
REMARK  26 active torsions:
REMARK  status: ('A' for Active; 'I' for Inactive)
REMARK    1  A    between atoms: C_2  and  C_3 
REMARK    2  A    between atoms: C_3  and  C_4 
REMARK    3  A    between atoms: C_4  and  C_5 
REMARK    4  A    between atoms: C_5  and  C_6 
REMARK    5  A    between atoms: C_6  and  C_7 
REMARK    6  A    between atoms: C_7  and  C_8 
REMARK    7  A    between atoms: C_8  and  C_9 
REMARK    8  A    between atoms: C_9  and  C_10 
REMARK    9  A    between atoms: C_10  and  C_11 
REMARK   10  A    between atoms: C_11  and  C_12 
REMARK   11  A    between atoms: C_12  and  C_13 
REMARK   12  A    between atoms: C_13  and  C_14 
REMARK   13  A    between atoms: C_14  and  C_15 
REMARK   14  A    between atoms: C_15  and  C_16 
REMARK   15  A    between atoms: C_16  and  O_17 
REMARK   16  A    between atoms: O_17  and  C_18 
REMARK   17  A    between atoms: C_18  and  C_20 
REMARK   18  A    between atoms: C_20  and  C_21 
REMARK   19  A    between atoms: C_21  and  C_22 
REMARK   20  A    between atoms: C_22  and  C_23 
REMARK   21  A    between atoms: C_23  and  C_24 
REMARK   22  A    between atoms: C_24  and  C_25 
REMARK   23  A    between atoms: C_25  and  C_26 
REMARK   24  A    between atoms: C_26  and  C_27 
REMARK   25  A    between atoms: C_27  and  C_28 
REMARK   26  A    between atoms: C_28  and  C_29 
ROOT
HETATM    1  C   UNL     1     -21.231  -9.059   0.330  1.00  0.00     0.027 C 
ENDROOT
BRANCH   1   2
HETATM    2  C   UNL     1     -21.953 -10.397   0.220  1.00  0.00     0.002 C 
BRANCH   2   3
HETATM    3  C   UNL     1     -23.212 -10.256  -0.622  1.00  0.00     0.000 C 
BRANCH   3   4
HETATM    4  C   UNL     1     -23.207 -11.270  -1.756  1.00  0.00     0.000 C 
BRANCH   4   5
HETATM    5  C   UNL     1     -22.446 -10.717  -2.950  1.00  0.00     0.000 C 
BRANCH   5   6
HETATM    6  C   UNL     1     -22.101 -11.840  -3.913  1.00  0.00     0.000 C 
BRANCH   6   7
HETATM    7  C   UNL     1     -20.995 -11.396  -4.853  1.00  0.00     0.000 C 
BRANCH   7   8
HETATM    8  C   UNL     1     -21.007  -9.884  -4.989  1.00  0.00     0.000 C 
BRANCH   8   9
HETATM    9  C   UNL     1     -19.587  -9.350  -4.958  1.00  0.00     0.000 C 
BRANCH   9  10
HETATM   10  C   UNL     1     -18.915  -9.742  -3.655  1.00  0.00     0.000 C 
BRANCH  10  11
HETATM   11  C   UNL     1     -17.413  -9.570  -3.774  1.00  0.00     0.000 C 
BRANCH  11  12
HETATM   12  C   UNL     1     -16.799 -10.788  -4.439  1.00  0.00     0.000 C 
BRANCH  12  13
HETATM   13  C   UNL     1     -16.120 -10.394  -5.738  1.00  0.00    -0.000 C 
BRANCH  13  14
HETATM   14  C   UNL     1     -15.201 -11.503  -6.227  1.00  0.00    -0.005 C 
HETATM   15  C   UNL     1     -14.284 -11.964  -5.116  1.00  0.00     0.005 C 
ENDBRANCH  13  14
ENDBRANCH  12  13
ENDBRANCH  11  12
ENDBRANCH  10  11
ENDBRANCH   9  10
ENDBRANCH   8   9
ENDBRANCH   7   8
ENDBRANCH   6   7
ENDBRANCH   5   6
ENDBRANCH   4   5
ENDBRANCH   3   4
ENDBRANCH   2   3
ENDBRANCH   1   2
BRANCH   1  16
HETATM   16  C   UNL     1     -21.972  -7.975  -0.440  1.00  0.00     0.178 C 
BRANCH  16  17
HETATM   17  O   UNL     1     -21.235  -7.606  -1.616  1.00  0.00    -0.321 OA
BRANCH  17  18
HETATM   18  C   UNL     1     -21.739  -6.536  -2.292  1.00  0.00     0.258 C 
HETATM   19  O   UNL     1     -22.661  -5.828  -1.911  1.00  0.00    -0.265 OA
BRANCH  18  20
HETATM   20  C   UNL     1     -21.008  -6.320  -3.591  1.00  0.00     0.111 C 
BRANCH  20  21
HETATM   21  C   UNL     1     -21.923  -6.386  -4.804  1.00  0.00     0.010 C 
BRANCH  21  22
HETATM   22  C   UNL     1     -21.162  -6.174  -6.110  1.00  0.00     0.000 C 
BRANCH  22  23
HETATM   23  C   UNL     1     -20.712  -4.725  -6.234  1.00  0.00     0.000 C 
BRANCH  23  24
HETATM   24  C   UNL     1     -20.958  -4.217  -7.646  1.00  0.00     0.000 C 
BRANCH  24  25
HETATM   25  C   UNL     1     -22.444  -4.241  -7.962  1.00  0.00     0.000 C 
BRANCH  25  26
HETATM   26  C   UNL     1     -22.692  -3.702  -9.361  1.00  0.00     0.000 C 
BRANCH  26  27
HETATM   27  C   UNL     1     -23.556  -4.672 -10.152  1.00  0.00     0.000 C 
BRANCH  27  28
HETATM   28  C   UNL     1     -23.312  -4.500 -11.643  1.00  0.00    -0.000 C 
BRANCH  28  29
HETATM   29  C   UNL     1     -23.735  -3.108 -12.098  1.00  0.00    -0.005 C 
HETATM   30  C   UNL     1     -23.341  -2.880 -13.548  1.00  0.00     0.005 C 
ENDBRANCH  28  29
ENDBRANCH  27  28
ENDBRANCH  26  27
ENDBRANCH  25  26
ENDBRANCH  24  25
ENDBRANCH  23  24
ENDBRANCH  22  23
ENDBRANCH  21  22
ENDBRANCH  20  21
ENDBRANCH  18  20
ENDBRANCH  17  18
ENDBRANCH  16  17
ENDBRANCH   1  16
TORSDOF 26
ENDMDL
MODEL 9
REMARK VINA RESULT:      -6.0     23.109     26.430
REMARK  26 active torsions:
REMARK  status: ('A' for Active; 'I' for Inactive)
REMARK    1  A    between atoms: C_2  and  C_3 
REMARK    2  A    between atoms: C_3  and  C_4 
REMARK    3  A    between atoms: C_4  and  C_5 
REMARK    4  A    between atoms: C_5  and  C_6 
REMARK    5  A    between atoms: C_6  and  C_7 
REMARK    6  A    between atoms: C_7  and  C_8 
REMARK    7  A    between atoms: C_8  and  C_9 
REMARK    8  A    between atoms: C_9  and  C_10 
REMARK    9  A    between atoms: C_10  and  C_11 
REMARK   10  A    between atoms: C_11  and  C_12 
REMARK   11  A    between atoms: C_12  and  C_13 
REMARK   12  A    between atoms: C_13  and  C_14 
REMARK   13  A    between atoms: C_14  and  C_15 
REMARK   14  A    between atoms: C_15  and  C_16 
REMARK   15  A    between atoms: C_16  and  O_17 
REMARK   16  A    between atoms: O_17  and  C_18 
REMARK   17  A    between atoms: C_18  and  C_20 
REMARK   18  A    between atoms: C_20  and  C_21 
REMARK   19  A    between atoms: C_21  and  C_22 
REMARK   20  A    between atoms: C_22  and  C_23 
REMARK   21  A    between atoms: C_23  and  C_24 
REMARK   22  A    between atoms: C_24  and  C_25 
REMARK   23  A    between atoms: C_25  and  C_26 
REMARK   24  A    between atoms: C_26  and  C_27 
REMARK   25  A    between atoms: C_27  and  C_28 
REMARK   26  A    between atoms: C_28  and  C_29 
ROOT
HETATM    1  C   UNL     1     -20.713   8.815   2.668  1.00  0.00     0.027 C 
ENDROOT
BRANCH   1   2
HETATM    2  C   UNL     1     -22.090   9.396   2.968  1.00  0.00     0.002 C 
BRANCH   2   3
HETATM    3  C   UNL     1     -22.788   9.807   1.680  1.00  0.00     0.000 C 
BRANCH   3   4
HETATM    4  C   UNL     1     -23.201   8.576   0.887  1.00  0.00     0.000 C 
BRANCH   4   5
HETATM    5  C   UNL     1     -24.688   8.629   0.574  1.00  0.00     0.000 C 
BRANCH   5   6
HETATM    6  C   UNL     1     -25.030   7.609  -0.499  1.00  0.00     0.000 C 
BRANCH   6   7
HETATM    7  C   UNL     1     -23.768   6.913  -0.975  1.00  0.00     0.000 C 
BRANCH   7   8
HETATM    8  C   UNL     1     -24.095   5.981  -2.127  1.00  0.00     0.000 C 
BRANCH   8   9
HETATM    9  C   UNL     1     -25.220   6.563  -2.962  1.00  0.00     0.000 C 
BRANCH   9  10
HETATM   10  C   UNL     1     -24.648   7.317  -4.148  1.00  0.00     0.000 C 
BRANCH  10  11
HETATM   11  C   UNL     1     -25.248   8.709  -4.216  1.00  0.00     0.000 C 
BRANCH  11  12
HETATM   12  C   UNL     1     -24.147   9.745  -4.355  1.00  0.00     0.000 C 
BRANCH  12  13
HETATM   13  C   UNL     1     -23.336   9.827  -3.075  1.00  0.00    -0.000 C 
BRANCH  13  14
HETATM   14  C   UNL     1     -21.850   9.937  -3.382  1.00  0.00    -0.005 C 
HETATM   15  C   UNL     1     -21.344   8.669  -4.032  1.00  0.00     0.005 C 
ENDBRANCH  13  14
ENDBRANCH  12  13
ENDBRANCH  11  12
ENDBRANCH  10  11
ENDBRANCH   9  10
ENDBRANCH   8   9
ENDBRANCH   7   8
ENDBRANCH   6   7
ENDBRANCH   5   6
ENDBRANCH   4   5
ENDBRANCH   3   4
ENDBRANCH   2   3
ENDBRANCH   1   2
BRANCH   1  16
HETATM   16  C   UNL     1     -20.059   8.278   3.933  1.00  0.00     0.178 C 
BRANCH  16  17
HETATM   17  O   UNL     1     -19.117   9.229   4.451  1.00  0.00    -0.321 OA
BRANCH  17  18
HETATM   18  C   UNL     1     -19.040   9.273   5.811  1.00  0.00     0.258 C 
HETATM   19  O   UNL     1     -19.963   9.045   6.579  1.00  0.00    -0.265 OA
BRANCH  18  20
HETATM   20  C   UNL     1     -17.651   9.636   6.265  1.00  0.00     0.111 C 
BRANCH  20  21
HETATM   21  C   UNL     1     -17.009  10.711   5.402  1.00  0.00     0.010 C 
BRANCH  21  22
HETATM   22  C   UNL     1     -15.494  10.765   5.584  1.00  0.00     0.000 C 
BRANCH  22  23
HETATM   23  C   UNL     1     -15.066   9.878   6.745  1.00  0.00     0.000 C 
BRANCH  23  24
HETATM   24  C   UNL     1     -13.969   8.923   6.302  1.00  0.00     0.000 C 
BRANCH  24  25
HETATM   25  C   UNL     1     -13.832   8.947   4.789  1.00  0.00     0.000 C 
BRANCH  25  26
HETATM   26  C   UNL     1     -14.580   7.773   4.177  1.00  0.00     0.000 C 
BRANCH  26  27
HETATM   27  C   UNL     1     -14.805   8.012   2.692  1.00  0.00     0.000 C 
BRANCH  27  28
HETATM   28  C   UNL     1     -14.435   9.441   2.327  1.00  0.00    -0.000 C 
BRANCH  28  29
HETATM   29  C   UNL     1     -13.538   9.464   1.095  1.00  0.00    -0.005 C 
HETATM   30  C   UNL     1     -12.286  10.284   1.364  1.00  0.00     0.005 C 
ENDBRANCH  28  29
ENDBRANCH  27  28
ENDBRANCH  26  27
ENDBRANCH  25  26
ENDBRANCH  24  25
ENDBRANCH  23  24
ENDBRANCH  22  23
ENDBRANCH  21  22
ENDBRANCH  20  21
ENDBRANCH  18  20
ENDBRANCH  17  18
ENDBRANCH  16  17
ENDBRANCH   1  16
TORSDOF 26
ENDMDL
