MODEL 1
REMARK VINA RESULT:      -5.4      0.000      0.000
REMARK WARNING: 32 MAX_TORS EXCEEDED!!!
REMARK  63 active torsions:
REMARK  status: ('A' for Active; 'I' for Inactive)
REMARK    1  A    between atoms: C_2  and  C_3 
REMARK    2  A    between atoms: C_3  and  C_4 
REMARK    3  A    between atoms: C_4  and  C_5 
REMARK    4  A    between atoms: C_5  and  C_6 
REMARK    5  A    between atoms: C_6  and  C_7 
REMARK    6  A    between atoms: C_7  and  C_8 
REMARK    7  A    between atoms: C_8  and  C_9 
REMARK    8  A    between atoms: C_9  and  C_10 
REMARK    9  A    between atoms: C_10  and  C_11 
REMARK   10  A    between atoms: C_11  and  C_12 
REMARK   11  A    between atoms: C_11  and  C_20 
REMARK   12  A    between atoms: C_12  and  C_13 
REMARK   13  A    between atoms: C_13  and  C_14 
REMARK   14  A    between atoms: C_14  and  C_15 
REMARK   15  A    between atoms: C_15  and  C_16 
REMARK   16  A    between atoms: C_16  and  C_17 
REMARK   17  A    between atoms: C_17  and  C_18 
REMARK   18  A    between atoms: C_20  and  O_21 
REMARK   19  A    between atoms: O_21  and  C_22 
REMARK   20  A    between atoms: C_22  and  C_24 
REMARK   21  A    between atoms: C_24  and  C_25 
REMARK   22  A    between atoms: C_25  and  C_26 
REMARK   23  A    between atoms: C_25  and  C_50 
REMARK   24  A    between atoms: C_25  and  O_73 
REMARK   25  A    between atoms: C_26  and  C_27 
REMARK   26  A    between atoms: C_27  and  O_29 
REMARK   27  A    between atoms: O_29  and  C_30 
REMARK   28  A    between atoms: C_30  and  C_31 
REMARK   29  A    between atoms: C_31  and  C_32 
REMARK   30  A    between atoms: C_31  and  C_40 
REMARK   31  A    between atoms: C_32  and  C_33 
REMARK   32  A    between atoms: C_33  and  C_34 
REMARK   33  A    between atoms: C_34  and  C_35 
REMARK   34  A    between atoms: C_35  and  C_36 
REMARK   35  A    between atoms: C_36  and  C_37 
REMARK   36  A    between atoms: C_37  and  C_38 
REMARK   37  A    between atoms: C_40  and  C_41 
REMARK   38  A    between atoms: C_41  and  C_42 
REMARK   39  A    between atoms: C_42  and  C_43 
REMARK   40  A    between atoms: C_43  and  C_44 
REMARK   41  A    between atoms: C_44  and  C_45 
REMARK   42  A    between atoms: C_45  and  C_46 
REMARK   43  A    between atoms: C_46  and  C_47 
REMARK   44  A    between atoms: C_47  and  C_48 
REMARK   45  A    between atoms: C_50  and  O_52 
REMARK   46  A    between atoms: O_52  and  C_53 
REMARK   47  A    between atoms: C_53  and  C_54 
REMARK   48  A    between atoms: C_54  and  C_55 
REMARK   49  A    between atoms: C_54  and  C_63 
REMARK   50  A    between atoms: C_55  and  C_56 
REMARK   51  A    between atoms: C_56  and  C_57 
REMARK   52  A    between atoms: C_57  and  C_58 
REMARK   53  A    between atoms: C_58  and  C_59 
REMARK   54  A    between atoms: C_59  and  C_60 
REMARK   55  A    between atoms: C_60  and  C_61 
REMARK   56  A    between atoms: C_63  and  C_64 
REMARK   57  A    between atoms: C_64  and  C_65 
REMARK   58  A    between atoms: C_65  and  C_66 
REMARK   59  A    between atoms: C_66  and  C_67 
REMARK   60  A    between atoms: C_67  and  C_68 
REMARK   61  A    between atoms: C_68  and  C_69 
REMARK   62  A    between atoms: C_69  and  C_70 
REMARK   63  A    between atoms: C_70  and  C_71 
ROOT
HETATM    1  C   UNL     1     -17.963 -10.138  -5.312  1.00  0.00     0.162 C 
ENDROOT
BRANCH   1   2
HETATM    2  C   UNL     1     -18.158 -11.659  -5.561  1.00  0.00     0.160 C 
BRANCH   2   3
HETATM    3  C   UNL     1     -18.491 -11.971  -7.016  1.00  0.00     0.262 C 
HETATM    4  O   UNL     1     -17.594 -12.219  -7.845  1.00  0.00    -0.265 OA
BRANCH   3   5
HETATM    5  O   UNL     1     -19.801 -11.965  -7.285  1.00  0.00    -0.321 OA
BRANCH   5   6
HETATM    6  C   UNL     1     -20.451 -13.258  -7.568  1.00  0.00     0.183 C 
BRANCH   6   7
HETATM    7  C   UNL     1     -21.099 -13.916  -6.326  1.00  0.00     0.010 C 
BRANCH   7   8
HETATM    8  C   UNL     1     -22.301 -14.810  -6.708  1.00  0.00     0.007 C 
BRANCH   8   9
HETATM    9  C   UNL     1     -23.495 -14.748  -5.739  1.00  0.00     0.000 C 
BRANCH   9  10
HETATM   10  C   UNL     1     -23.533 -15.950  -4.787  1.00  0.00     0.000 C 
BRANCH  10  11
HETATM   11  C   UNL     1     -24.481 -15.745  -3.597  1.00  0.00     0.000 C 
BRANCH  11  12
HETATM   12  C   UNL     1     -23.691 -15.419  -2.321  1.00  0.00     0.000 C 
BRANCH  12  13
HETATM   13  C   UNL     1     -22.203 -15.011  -2.565  1.00  0.00     0.000 C 
BRANCH  13  14
HETATM   14  C   UNL     1     -22.049 -13.473  -2.506  1.00  0.00     0.000 C 
BRANCH  14  15
HETATM   15  C   UNL     1     -23.262 -12.494  -2.652  1.00  0.00    -0.000 C 
BRANCH  15  16
HETATM   16  C   UNL     1     -23.242 -11.164  -1.786  1.00  0.00    -0.005 C 
HETATM   17  C   UNL     1     -24.171 -11.043  -0.584  1.00  0.00     0.005 C 
ENDBRANCH  15  16
ENDBRANCH  14  15
ENDBRANCH  13  14
ENDBRANCH  12  13
ENDBRANCH  11  12
ENDBRANCH  10  11
ENDBRANCH   9  10
ENDBRANCH   8   9
ENDBRANCH   7   8
BRANCH   7  18
HETATM   18  C   UNL     1     -20.074 -14.654  -5.401  1.00  0.00     0.007 C 
BRANCH  18  19
HETATM   19  C   UNL     1     -19.434 -15.926  -5.983  1.00  0.00     0.000 C 
BRANCH  19  20
HETATM   20  C   UNL     1     -18.016 -16.245  -5.466  1.00  0.00     0.000 C 
BRANCH  20  21
HETATM   21  C   UNL     1     -16.920 -15.262  -5.906  1.00  0.00     0.000 C 
BRANCH  21  22
HETATM   22  C   UNL     1     -15.524 -15.912  -5.860  1.00  0.00     0.000 C 
BRANCH  22  23
HETATM   23  C   UNL     1     -14.356 -14.916  -5.926  1.00  0.00    -0.000 C 
BRANCH  23  24
HETATM   24  C   UNL     1     -14.800 -13.452  -5.899  1.00  0.00    -0.005 C 
HETATM   25  C   UNL     1     -13.629 -12.496  -6.076  1.00  0.00     0.005 C 
ENDBRANCH  23  24
ENDBRANCH  22  23
ENDBRANCH  21  22
ENDBRANCH  20  21
ENDBRANCH  19  20
ENDBRANCH  18  19
ENDBRANCH   7  18
ENDBRANCH   6   7
ENDBRANCH   5   6
ENDBRANCH   3   5
ENDBRANCH   2   3
ENDBRANCH   1   2
BRANCH   1  26
HETATM   26  C   UNL     1     -18.990  -9.583  -4.317  1.00  0.00     0.160 C 
BRANCH  26  27
HETATM   27  C   UNL     1     -20.425  -9.606  -4.785  1.00  0.00     0.262 C 
HETATM   28  O   UNL     1     -21.241 -10.471  -4.500  1.00  0.00    -0.265 OA
BRANCH  27  29
HETATM   29  O   UNL     1     -20.636  -8.604  -5.688  1.00  0.00    -0.321 OA
BRANCH  29  30
HETATM   30  C   UNL     1     -21.576  -7.632  -5.234  1.00  0.00     0.183 C 
BRANCH  30  31
HETATM   31  C   UNL     1     -20.962  -6.530  -4.365  1.00  0.00     0.010 C 
BRANCH  31  32
HETATM   32  C   UNL     1     -20.765  -5.241  -5.187  1.00  0.00     0.007 C 
BRANCH  32  33
HETATM   33  C   UNL     1     -21.623  -5.227  -6.450  1.00  0.00     0.000 C 
BRANCH  33  34
HETATM   34  C   UNL     1     -21.255  -4.083  -7.378  1.00  0.00     0.000 C 
BRANCH  34  35
HETATM   35  C   UNL     1     -19.952  -4.423  -8.096  1.00  0.00     0.000 C 
BRANCH  35  36
HETATM   36  C   UNL     1     -20.114  -4.282  -9.601  1.00  0.00     0.000 C 
BRANCH  36  37
HETATM   37  C   UNL     1     -21.573  -4.028  -9.958  1.00  0.00    -0.000 C 
BRANCH  37  38
HETATM   38  C   UNL     1     -21.684  -3.429 -11.356  1.00  0.00    -0.005 C 
HETATM   39  C   UNL     1     -23.083  -2.909 -11.625  1.00  0.00     0.005 C 
ENDBRANCH  37  38
ENDBRANCH  36  37
ENDBRANCH  35  36
ENDBRANCH  34  35
ENDBRANCH  33  34
ENDBRANCH  32  33
ENDBRANCH  31  32
BRANCH  31  40
HETATM   40  C   UNL     1     -21.858  -6.313  -3.118  1.00  0.00     0.007 C 
BRANCH  40  41
HETATM   41  C   UNL     1     -21.481  -7.296  -2.004  1.00  0.00     0.000 C 
BRANCH  41  42
HETATM   42  C   UNL     1     -22.401  -7.251  -0.789  1.00  0.00     0.000 C 
BRANCH  42  43
HETATM   43  C   UNL     1     -21.685  -7.885   0.456  1.00  0.00     0.000 C 
BRANCH  43  44
HETATM   44  C   UNL     1     -20.883  -9.151   0.071  1.00  0.00     0.000 C 
BRANCH  44  45
HETATM   45  C   UNL     1     -20.953 -10.476   0.937  1.00  0.00     0.000 C 
BRANCH  45  46
HETATM   46  C   UNL     1     -20.184 -11.718   0.352  1.00  0.00     0.000 C 
BRANCH  46  47
HETATM   47  C   UNL     1     -20.769 -13.129   0.570  1.00  0.00    -0.000 C 
BRANCH  47  48
HETATM   48  C   UNL     1     -22.031 -13.092   1.472  1.00  0.00    -0.005 C 
HETATM   49  C   UNL     1     -23.021 -14.196   1.118  1.00  0.00     0.005 C 
ENDBRANCH  47  48
ENDBRANCH  46  47
ENDBRANCH  45  46
ENDBRANCH  44  45
ENDBRANCH  43  44
ENDBRANCH  42  43
ENDBRANCH  41  42
ENDBRANCH  40  41
ENDBRANCH  31  40
ENDBRANCH  30  31
ENDBRANCH  29  30
ENDBRANCH  27  29
ENDBRANCH  26  27
ENDBRANCH   1  26
BRANCH   1  50
HETATM   50  C   UNL     1     -16.509  -9.825  -4.840  1.00  0.00     0.294 C 
HETATM   51  O   UNL     1     -15.560  -9.677  -5.609  1.00  0.00    -0.262 OA
BRANCH  50  52
HETATM   52  O   UNL     1     -16.408  -9.658  -3.476  1.00  0.00    -0.319 OA
BRANCH  52  53
HETATM   53  C   UNL     1     -15.870 -10.768  -2.726  1.00  0.00     0.183 C 
BRANCH  53  54
HETATM   54  C   UNL     1     -16.754 -11.242  -1.541  1.00  0.00     0.010 C 
BRANCH  54  55
HETATM   55  C   UNL     1     -17.862 -12.226  -1.992  1.00  0.00     0.007 C 
BRANCH  55  56
HETATM   56  C   UNL     1     -17.385 -13.508  -2.715  1.00  0.00     0.000 C 
BRANCH  56  57
HETATM   57  C   UNL     1     -17.682 -14.858  -2.027  1.00  0.00     0.000 C 
BRANCH  57  58
HETATM   58  C   UNL     1     -16.415 -15.683  -1.781  1.00  0.00     0.000 C 
BRANCH  58  59
HETATM   59  C   UNL     1     -15.082 -15.015  -2.160  1.00  0.00     0.000 C 
BRANCH  59  60
HETATM   60  C   UNL     1     -13.839 -15.914  -2.098  1.00  0.00    -0.000 C 
BRANCH  60  61
HETATM   61  C   UNL     1     -12.635 -15.224  -2.764  1.00  0.00    -0.005 C 
HETATM   62  C   UNL     1     -12.731 -13.704  -2.733  1.00  0.00     0.005 C 
ENDBRANCH  60  61
ENDBRANCH  59  60
ENDBRANCH  58  59
ENDBRANCH  57  58
ENDBRANCH  56  57
ENDBRANCH  55  56
ENDBRANCH  54  55
BRANCH  54  63
HETATM   63  C   UNL     1     -15.869 -11.917  -0.464  1.00  0.00     0.007 C 
BRANCH  63  64
HETATM   64  C   UNL     1     -16.571 -12.122   0.876  1.00  0.00     0.000 C 
BRANCH  64  65
HETATM   65  C   UNL     1     -16.482 -13.580   1.317  1.00  0.00     0.000 C 
BRANCH  65  66
HETATM   66  C   UNL     1     -15.255 -13.786   2.195  1.00  0.00     0.000 C 
BRANCH  66  67
HETATM   67  C   UNL     1     -14.263 -14.736   1.539  1.00  0.00     0.000 C 
BRANCH  67  68
HETATM   68  C   UNL     1     -13.059 -13.961   1.014  1.00  0.00     0.000 C 
BRANCH  68  69
HETATM   69  C   UNL     1     -11.760 -14.674   1.372  1.00  0.00     0.000 C 
BRANCH  69  70
HETATM   70  C   UNL     1     -10.671 -14.352   0.354  1.00  0.00    -0.000 C 
BRANCH  70  71
HETATM   71  C   UNL     1      -9.384 -13.920   1.050  1.00  0.00    -0.005 C 
HETATM   72  C   UNL     1      -9.603 -13.743   2.541  1.00  0.00     0.005 C 
ENDBRANCH  70  71
ENDBRANCH  69  70
ENDBRANCH  68  69
ENDBRANCH  67  68
ENDBRANCH  66  67
ENDBRANCH  65  66
ENDBRANCH  64  65
ENDBRANCH  63  64
ENDBRANCH  54  63
ENDBRANCH  53  54
ENDBRANCH  52  53
ENDBRANCH  50  52
ENDBRANCH   1  50
BRANCH   1  73
HETATM   73  O   UNL     1     -18.126  -9.430  -6.558  1.00  0.00    -0.379 OA
HETATM   74  H   UNL     1     -17.623  -9.916  -7.246  1.00  0.00     0.211 HD
ENDBRANCH   1  73
TORSDOF 63
ENDMDL
MODEL 2
REMARK VINA RESULT:      -5.4      1.942      4.628
REMARK WARNING: 32 MAX_TORS EXCEEDED!!!
REMARK  63 active torsions:
REMARK  status: ('A' for Active; 'I' for Inactive)
REMARK    1  A    between atoms: C_2  and  C_3 
REMARK    2  A    between atoms: C_3  and  C_4 
REMARK    3  A    between atoms: C_4  and  C_5 
REMARK    4  A    between atoms: C_5  and  C_6 
REMARK    5  A    between atoms: C_6  and  C_7 
REMARK    6  A    between atoms: C_7  and  C_8 
REMARK    7  A    between atoms: C_8  and  C_9 
REMARK    8  A    between atoms: C_9  and  C_10 
REMARK    9  A    between atoms: C_10  and  C_11 
REMARK   10  A    between atoms: C_11  and  C_12 
REMARK   11  A    between atoms: C_11  and  C_20 
REMARK   12  A    between atoms: C_12  and  C_13 
REMARK   13  A    between atoms: C_13  and  C_14 
REMARK   14  A    between atoms: C_14  and  C_15 
REMARK   15  A    between atoms: C_15  and  C_16 
REMARK   16  A    between atoms: C_16  and  C_17 
REMARK   17  A    between atoms: C_17  and  C_18 
REMARK   18  A    between atoms: C_20  and  O_21 
REMARK   19  A    between atoms: O_21  and  C_22 
REMARK   20  A    between atoms: C_22  and  C_24 
REMARK   21  A    between atoms: C_24  and  C_25 
REMARK   22  A    between atoms: C_25  and  C_26 
REMARK   23  A    between atoms: C_25  and  C_50 
REMARK   24  A    between atoms: C_25  and  O_73 
REMARK   25  A    between atoms: C_26  and  C_27 
REMARK   26  A    between atoms: C_27  and  O_29 
REMARK   27  A    between atoms: O_29  and  C_30 
REMARK   28  A    between atoms: C_30  and  C_31 
REMARK   29  A    between atoms: C_31  and  C_32 
REMARK   30  A    between atoms: C_31  and  C_40 
REMARK   31  A    between atoms: C_32  and  C_33 
REMARK   32  A    between atoms: C_33  and  C_34 
REMARK   33  A    between atoms: C_34  and  C_35 
REMARK   34  A    between atoms: C_35  and  C_36 
REMARK   35  A    between atoms: C_36  and  C_37 
REMARK   36  A    between atoms: C_37  and  C_38 
REMARK   37  A    between atoms: C_40  and  C_41 
REMARK   38  A    between atoms: C_41  and  C_42 
REMARK   39  A    between atoms: C_42  and  C_43 
REMARK   40  A    between atoms: C_43  and  C_44 
REMARK   41  A    between atoms: C_44  and  C_45 
REMARK   42  A    between atoms: C_45  and  C_46 
REMARK   43  A    between atoms: C_46  and  C_47 
REMARK   44  A    between atoms: C_47  and  C_48 
REMARK   45  A    between atoms: C_50  and  O_52 
REMARK   46  A    between atoms: O_52  and  C_53 
REMARK   47  A    between atoms: C_53  and  C_54 
REMARK   48  A    between atoms: C_54  and  C_55 
REMARK   49  A    between atoms: C_54  and  C_63 
REMARK   50  A    between atoms: C_55  and  C_56 
REMARK   51  A    between atoms: C_56  and  C_57 
REMARK   52  A    between atoms: C_57  and  C_58 
REMARK   53  A    between atoms: C_58  and  C_59 
REMARK   54  A    between atoms: C_59  and  C_60 
REMARK   55  A    between atoms: C_60  and  C_61 
REMARK   56  A    between atoms: C_63  and  C_64 
REMARK   57  A    between atoms: C_64  and  C_65 
REMARK   58  A    between atoms: C_65  and  C_66 
REMARK   59  A    between atoms: C_66  and  C_67 
REMARK   60  A    between atoms: C_67  and  C_68 
REMARK   61  A    between atoms: C_68  and  C_69 
REMARK   62  A    between atoms: C_69  and  C_70 
REMARK   63  A    between atoms: C_70  and  C_71 
ROOT
HETATM    1  C   UNL     1     -18.700 -11.811  -1.958  1.00  0.00     0.162 C 
ENDROOT
BRANCH   1   2
HETATM    2  C   UNL     1     -19.914 -12.751  -2.191  1.00  0.00     0.160 C 
BRANCH   2   3
HETATM    3  C   UNL     1     -20.620 -12.470  -3.513  1.00  0.00     0.262 C 
HETATM    4  O   UNL     1     -21.771 -11.993  -3.542  1.00  0.00    -0.265 OA
BRANCH   3   5
HETATM    5  O   UNL     1     -19.887 -12.765  -4.591  1.00  0.00    -0.321 OA
BRANCH   5   6
HETATM    6  C   UNL     1     -19.832 -11.772  -5.679  1.00  0.00     0.183 C 
BRANCH   6   7
HETATM    7  C   UNL     1     -18.485 -11.753  -6.441  1.00  0.00     0.010 C 
BRANCH   7   8
HETATM    8  C   UNL     1     -18.620 -12.335  -7.867  1.00  0.00     0.007 C 
BRANCH   8   9
HETATM    9  C   UNL     1     -19.880 -13.186  -8.108  1.00  0.00     0.000 C 
BRANCH   9  10
HETATM   10  C   UNL     1     -19.589 -14.690  -8.026  1.00  0.00     0.000 C 
BRANCH  10  11
HETATM   11  C   UNL     1     -18.391 -15.119  -8.885  1.00  0.00     0.000 C 
BRANCH  11  12
HETATM   12  C   UNL     1     -17.946 -16.545  -8.527  1.00  0.00     0.000 C 
BRANCH  12  13
HETATM   13  C   UNL     1     -16.462 -16.662  -8.056  1.00  0.00     0.000 C 
BRANCH  13  14
HETATM   14  C   UNL     1     -16.158 -15.613  -6.961  1.00  0.00     0.000 C 
BRANCH  14  15
HETATM   15  C   UNL     1     -16.260 -15.931  -5.431  1.00  0.00    -0.000 C 
BRANCH  15  16
HETATM   16  C   UNL     1     -17.367 -15.163  -4.593  1.00  0.00    -0.005 C 
HETATM   17  C   UNL     1     -17.514 -15.458  -3.105  1.00  0.00     0.005 C 
ENDBRANCH  15  16
ENDBRANCH  14  15
ENDBRANCH  13  14
ENDBRANCH  12  13
ENDBRANCH  11  12
ENDBRANCH  10  11
ENDBRANCH   9  10
ENDBRANCH   8   9
ENDBRANCH   7   8
BRANCH   7  18
HETATM   18  C   UNL     1     -17.778 -10.358  -6.428  1.00  0.00     0.007 C 
BRANCH  18  19
HETATM   19  C   UNL     1     -16.279 -10.364  -6.079  1.00  0.00     0.000 C 
BRANCH  19  20
HETATM   20  C   UNL     1     -15.732 -11.706  -5.551  1.00  0.00     0.000 C 
BRANCH  20  21
HETATM   21  C   UNL     1     -14.465 -12.221  -6.253  1.00  0.00     0.000 C 
BRANCH  21  22
HETATM   22  C   UNL     1     -13.321 -12.463  -5.250  1.00  0.00     0.000 C 
BRANCH  22  23
HETATM   23  C   UNL     1     -13.764 -12.506  -3.779  1.00  0.00    -0.000 C 
BRANCH  23  24
HETATM   24  C   UNL     1     -14.050 -13.919  -3.269  1.00  0.00    -0.005 C 
HETATM   25  C   UNL     1     -13.077 -14.941  -3.838  1.00  0.00     0.005 C 
ENDBRANCH  23  24
ENDBRANCH  22  23
ENDBRANCH  21  22
ENDBRANCH  20  21
ENDBRANCH  19  20
ENDBRANCH  18  19
ENDBRANCH   7  18
ENDBRANCH   6   7
ENDBRANCH   5   6
ENDBRANCH   3   5
ENDBRANCH   2   3
ENDBRANCH   1   2
BRANCH   1  26
HETATM   26  C   UNL     1     -19.098 -10.331  -2.030  1.00  0.00     0.160 C 
BRANCH  26  27
HETATM   27  C   UNL     1     -18.235  -9.470  -2.920  1.00  0.00     0.262 C 
HETATM   28  O   UNL     1     -17.042  -9.264  -2.752  1.00  0.00    -0.265 OA
BRANCH  27  29
HETATM   29  O   UNL     1     -19.011  -8.839  -3.849  1.00  0.00    -0.321 OA
BRANCH  29  30
HETATM   30  C   UNL     1     -20.367  -8.687  -3.434  1.00  0.00     0.183 C 
BRANCH  30  31
HETATM   31  C   UNL     1     -20.776  -7.237  -3.160  1.00  0.00     0.010 C 
BRANCH  31  32
HETATM   32  C   UNL     1     -22.053  -6.879  -3.945  1.00  0.00     0.007 C 
BRANCH  32  33
HETATM   33  C   UNL     1     -21.739  -6.212  -5.281  1.00  0.00     0.000 C 
BRANCH  33  34
HETATM   34  C   UNL     1     -20.534  -5.292  -5.193  1.00  0.00     0.000 C 
BRANCH  34  35
HETATM   35  C   UNL     1     -20.486  -4.412  -6.438  1.00  0.00     0.000 C 
BRANCH  35  36
HETATM   36  C   UNL     1     -20.948  -5.186  -7.662  1.00  0.00     0.000 C 
BRANCH  36  37
HETATM   37  C   UNL     1     -20.108  -4.811  -8.878  1.00  0.00    -0.000 C 
BRANCH  37  38
HETATM   38  C   UNL     1     -20.994  -4.260  -9.989  1.00  0.00    -0.005 C 
HETATM   39  C   UNL     1     -22.457  -4.279  -9.589  1.00  0.00     0.005 C 
ENDBRANCH  37  38
ENDBRANCH  36  37
ENDBRANCH  35  36
ENDBRANCH  34  35
ENDBRANCH  33  34
ENDBRANCH  32  33
ENDBRANCH  31  32
BRANCH  31  40
HETATM   40  C   UNL     1     -20.940  -7.041  -1.629  1.00  0.00     0.007 C 
BRANCH  40  41
HETATM   41  C   UNL     1     -22.422  -6.932  -1.255  1.00  0.00     0.000 C 
BRANCH  41  42
HETATM   42  C   UNL     1     -22.760  -7.466   0.132  1.00  0.00     0.000 C 
BRANCH  42  43
HETATM   43  C   UNL     1     -21.616  -8.413   0.642  1.00  0.00     0.000 C 
BRANCH  43  44
HETATM   44  C   UNL     1     -21.867  -9.883   0.231  1.00  0.00     0.000 C 
BRANCH  44  45
HETATM   45  C   UNL     1     -22.956 -10.270  -0.853  1.00  0.00     0.000 C 
BRANCH  45  46
HETATM   46  C   UNL     1     -24.063 -11.285  -0.382  1.00  0.00     0.000 C 
BRANCH  46  47
HETATM   47  C   UNL     1     -23.698 -12.778  -0.249  1.00  0.00    -0.000 C 
BRANCH  47  48
HETATM   48  C   UNL     1     -23.325 -13.149   1.210  1.00  0.00    -0.005 C 
HETATM   49  C   UNL     1     -21.843 -13.477   1.357  1.00  0.00     0.005 C 
ENDBRANCH  47  48
ENDBRANCH  46  47
ENDBRANCH  45  46
ENDBRANCH  44  45
ENDBRANCH  43  44
ENDBRANCH  42  43
ENDBRANCH  41  42
ENDBRANCH  40  41
ENDBRANCH  31  40
ENDBRANCH  30  31
ENDBRANCH  29  30
ENDBRANCH  27  29
ENDBRANCH  26  27
ENDBRANCH   1  26
BRANCH   1  50
HETATM   50  C   UNL     1     -17.991 -12.129  -0.604  1.00  0.00     0.294 C 
HETATM   51  O   UNL     1     -18.595 -12.402   0.433  1.00  0.00    -0.262 OA
BRANCH  50  52
HETATM   52  O   UNL     1     -16.617 -12.144  -0.705  1.00  0.00    -0.319 OA
BRANCH  52  53
HETATM   53  C   UNL     1     -15.937 -13.266  -0.100  1.00  0.00     0.183 C 
BRANCH  53  54
HETATM   54  C   UNL     1     -15.134 -12.923   1.185  1.00  0.00     0.010 C 
BRANCH  54  55
HETATM   55  C   UNL     1     -15.771 -13.536   2.456  1.00  0.00     0.007 C 
BRANCH  55  56
HETATM   56  C   UNL     1     -16.695 -14.758   2.237  1.00  0.00     0.000 C 
BRANCH  56  57
HETATM   57  C   UNL     1     -16.350 -16.051   3.007  1.00  0.00     0.000 C 
BRANCH  57  58
HETATM   58  C   UNL     1     -15.161 -15.870   3.956  1.00  0.00     0.000 C 
BRANCH  58  59
HETATM   59  C   UNL     1     -13.903 -16.695   3.637  1.00  0.00     0.000 C 
BRANCH  59  60
HETATM   60  C   UNL     1     -12.577 -15.920   3.625  1.00  0.00    -0.000 C 
BRANCH  60  61
HETATM   61  C   UNL     1     -11.715 -16.297   4.843  1.00  0.00    -0.005 C 
HETATM   62  C   UNL     1     -12.217 -15.676   6.140  1.00  0.00     0.005 C 
ENDBRANCH  60  61
ENDBRANCH  59  60
ENDBRANCH  58  59
ENDBRANCH  57  58
ENDBRANCH  56  57
ENDBRANCH  55  56
ENDBRANCH  54  55
BRANCH  54  63
HETATM   63  C   UNL     1     -13.676 -13.426   1.041  1.00  0.00     0.007 C 
BRANCH  63  64
HETATM   64  C   UNL     1     -13.547 -14.743   0.280  1.00  0.00     0.000 C 
BRANCH  64  65
HETATM   65  C   UNL     1     -12.116 -14.949  -0.209  1.00  0.00     0.000 C 
BRANCH  65  66
HETATM   66  C   UNL     1     -11.144 -14.200   0.694  1.00  0.00     0.000 C 
BRANCH  66  67
HETATM   67  C   UNL     1      -9.958 -15.078   1.071  1.00  0.00     0.000 C 
BRANCH  67  68
HETATM   68  C   UNL     1      -8.838 -14.227   1.657  1.00  0.00     0.000 C 
BRANCH  68  69
HETATM   69  C   UNL     1      -9.306 -13.511   2.917  1.00  0.00     0.000 C 
BRANCH  69  70
HETATM   70  C   UNL     1      -8.665 -14.128   4.157  1.00  0.00    -0.000 C 
BRANCH  70  71
HETATM   71  C   UNL     1      -9.147 -13.431   5.425  1.00  0.00    -0.005 C 
HETATM   72  C   UNL     1      -8.906 -14.296   6.648  1.00  0.00     0.005 C 
ENDBRANCH  70  71
ENDBRANCH  69  70
ENDBRANCH  68  69
ENDBRANCH  67  68
ENDBRANCH  66  67
ENDBRANCH  65  66
ENDBRANCH  64  65
ENDBRANCH  63  64
ENDBRANCH  54  63
ENDBRANCH  53  54
ENDBRANCH  52  53
ENDBRANCH  50  52
ENDBRANCH   1  50
BRANCH   1  73
HETATM   73  O   UNL     1     -17.710 -12.054  -2.979  1.00  0.00    -0.379 OA
HETATM   74  H   UNL     1     -18.039 -11.660  -3.814  1.00  0.00     0.211 HD
ENDBRANCH   1  73
TORSDOF 63
ENDMDL
MODEL 3
REMARK VINA RESULT:      -5.3      1.659     10.792
REMARK WARNING: 32 MAX_TORS EXCEEDED!!!
REMARK  63 active torsions:
REMARK  status: ('A' for Active; 'I' for Inactive)
REMARK    1  A    between atoms: C_2  and  C_3 
REMARK    2  A    between atoms: C_3  and  C_4 
REMARK    3  A    between atoms: C_4  and  C_5 
REMARK    4  A    between atoms: C_5  and  C_6 
REMARK    5  A    between atoms: C_6  and  C_7 
REMARK    6  A    between atoms: C_7  and  C_8 
REMARK    7  A    between atoms: C_8  and  C_9 
REMARK    8  A    between atoms: C_9  and  C_10 
REMARK    9  A    between atoms: C_10  and  C_11 
REMARK   10  A    between atoms: C_11  and  C_12 
REMARK   11  A    between atoms: C_11  and  C_20 
REMARK   12  A    between atoms: C_12  and  C_13 
REMARK   13  A    between atoms: C_13  and  C_14 
REMARK   14  A    between atoms: C_14  and  C_15 
REMARK   15  A    between atoms: C_15  and  C_16 
REMARK   16  A    between atoms: C_16  and  C_17 
REMARK   17  A    between atoms: C_17  and  C_18 
REMARK   18  A    between atoms: C_20  and  O_21 
REMARK   19  A    between atoms: O_21  and  C_22 
REMARK   20  A    between atoms: C_22  and  C_24 
REMARK   21  A    between atoms: C_24  and  C_25 
REMARK   22  A    between atoms: C_25  and  C_26 
REMARK   23  A    between atoms: C_25  and  C_50 
REMARK   24  A    between atoms: C_25  and  O_73 
REMARK   25  A    between atoms: C_26  and  C_27 
REMARK   26  A    between atoms: C_27  and  O_29 
REMARK   27  A    between atoms: O_29  and  C_30 
REMARK   28  A    between atoms: C_30  and  C_31 
REMARK   29  A    between atoms: C_31  and  C_32 
REMARK   30  A    between atoms: C_31  and  C_40 
REMARK   31  A    between atoms: C_32  and  C_33 
REMARK   32  A    between atoms: C_33  and  C_34 
REMARK   33  A    between atoms: C_34  and  C_35 
REMARK   34  A    between atoms: C_35  and  C_36 
REMARK   35  A    between atoms: C_36  and  C_37 
REMARK   36  A    between atoms: C_37  and  C_38 
REMARK   37  A    between atoms: C_40  and  C_41 
REMARK   38  A    between atoms: C_41  and  C_42 
REMARK   39  A    between atoms: C_42  and  C_43 
REMARK   40  A    between atoms: C_43  and  C_44 
REMARK   41  A    between atoms: C_44  and  C_45 
REMARK   42  A    between atoms: C_45  and  C_46 
REMARK   43  A    between atoms: C_46  and  C_47 
REMARK   44  A    between atoms: C_47  and  C_48 
REMARK   45  A    between atoms: C_50  and  O_52 
REMARK   46  A    between atoms: O_52  and  C_53 
REMARK   47  A    between atoms: C_53  and  C_54 
REMARK   48  A    between atoms: C_54  and  C_55 
REMARK   49  A    between atoms: C_54  and  C_63 
REMARK   50  A    between atoms: C_55  and  C_56 
REMARK   51  A    between atoms: C_56  and  C_57 
REMARK   52  A    between atoms: C_57  and  C_58 
REMARK   53  A    between atoms: C_58  and  C_59 
REMARK   54  A    between atoms: C_59  and  C_60 
REMARK   55  A    between atoms: C_60  and  C_61 
REMARK   56  A    between atoms: C_63  and  C_64 
REMARK   57  A    between atoms: C_64  and  C_65 
REMARK   58  A    between atoms: C_65  and  C_66 
REMARK   59  A    between atoms: C_66  and  C_67 
REMARK   60  A    between atoms: C_67  and  C_68 
REMARK   61  A    between atoms: C_68  and  C_69 
REMARK   62  A    between atoms: C_69  and  C_70 
REMARK   63  A    between atoms: C_70  and  C_71 
ROOT
HETATM    1  C   UNL     1     -16.724 -10.169  -4.603  1.00  0.00     0.162 C 
ENDROOT
BRANCH   1   2
HETATM    2  C   UNL     1     -16.444  -9.725  -3.142  1.00  0.00     0.160 C 
BRANCH   2   3
HETATM    3  C   UNL     1     -16.810 -10.803  -2.127  1.00  0.00     0.262 C 
HETATM    4  O   UNL     1     -17.999 -11.056  -1.854  1.00  0.00    -0.265 OA
BRANCH   3   5
HETATM    5  O   UNL     1     -15.753 -11.430  -1.600  1.00  0.00    -0.321 OA
BRANCH   5   6
HETATM    6  C   UNL     1     -15.880 -11.959  -0.230  1.00  0.00     0.183 C 
BRANCH   6   7
HETATM    7  C   UNL     1     -15.576 -13.472  -0.114  1.00  0.00     0.010 C 
BRANCH   7   8
HETATM    8  C   UNL     1     -14.789 -13.805   1.175  1.00  0.00     0.007 C 
BRANCH   8   9
HETATM    9  C   UNL     1     -13.257 -13.770   1.032  1.00  0.00     0.000 C 
BRANCH   9  10
HETATM   10  C   UNL     1     -12.647 -15.175   0.971  1.00  0.00     0.000 C 
BRANCH  10  11
HETATM   11  C   UNL     1     -11.114 -15.170   1.062  1.00  0.00     0.000 C 
BRANCH  11  12
HETATM   12  C   UNL     1     -10.573 -13.733   1.068  1.00  0.00     0.000 C 
BRANCH  12  13
HETATM   13  C   UNL     1      -9.017 -13.625   1.138  1.00  0.00     0.000 C 
BRANCH  13  14
HETATM   14  C   UNL     1      -8.436 -14.760   2.013  1.00  0.00     0.000 C 
BRANCH  14  15
HETATM   15  C   UNL     1      -8.246 -14.622   3.562  1.00  0.00    -0.000 C 
BRANCH  15  16
HETATM   16  C   UNL     1      -9.173 -13.585   4.327  1.00  0.00    -0.005 C 
HETATM   17  C   UNL     1      -8.974 -13.369   5.822  1.00  0.00     0.005 C 
ENDBRANCH  15  16
ENDBRANCH  14  15
ENDBRANCH  13  14
ENDBRANCH  12  13
ENDBRANCH  11  12
ENDBRANCH  10  11
ENDBRANCH   9  10
ENDBRANCH   8   9
ENDBRANCH   7   8
BRANCH   7  18
HETATM   18  C   UNL     1     -16.838 -14.380  -0.297  1.00  0.00     0.007 C 
BRANCH  18  19
HETATM   19  C   UNL     1     -18.143 -13.855   0.325  1.00  0.00     0.000 C 
BRANCH  19  20
HETATM   20  C   UNL     1     -19.035 -14.927   0.987  1.00  0.00     0.000 C 
BRANCH  20  21
HETATM   21  C   UNL     1     -20.308 -15.294   0.209  1.00  0.00     0.000 C 
BRANCH  21  22
HETATM   22  C   UNL     1     -21.551 -15.280   1.118  1.00  0.00     0.000 C 
BRANCH  22  23
HETATM   23  C   UNL     1     -21.962 -13.884   1.611  1.00  0.00    -0.000 C 
BRANCH  23  24
HETATM   24  C   UNL     1     -23.403 -13.815   2.117  1.00  0.00    -0.005 C 
HETATM   25  C   UNL     1     -23.671 -14.823   3.224  1.00  0.00     0.005 C 
ENDBRANCH  23  24
ENDBRANCH  22  23
ENDBRANCH  21  22
ENDBRANCH  20  21
ENDBRANCH  19  20
ENDBRANCH  18  19
ENDBRANCH   7  18
ENDBRANCH   6   7
ENDBRANCH   5   6
ENDBRANCH   3   5
ENDBRANCH   2   3
ENDBRANCH   1   2
BRANCH   1  26
HETATM   26  C   UNL     1     -16.729 -11.697  -4.747  1.00  0.00     0.160 C 
BRANCH  26  27
HETATM   27  C   UNL     1     -15.720 -12.260  -5.718  1.00  0.00     0.262 C 
HETATM   28  O   UNL     1     -14.538 -12.450  -5.467  1.00  0.00    -0.265 OA
BRANCH  27  29
HETATM   29  O   UNL     1     -16.284 -12.387  -6.954  1.00  0.00    -0.321 OA
BRANCH  29  30
HETATM   30  C   UNL     1     -17.380 -13.300  -6.977  1.00  0.00     0.183 C 
BRANCH  30  31
HETATM   31  C   UNL     1     -18.189 -13.269  -8.277  1.00  0.00     0.010 C 
BRANCH  31  32
HETATM   32  C   UNL     1     -18.515 -14.701  -8.744  1.00  0.00     0.007 C 
BRANCH  32  33
HETATM   33  C   UNL     1     -17.731 -15.754  -7.965  1.00  0.00     0.000 C 
BRANCH  33  34
HETATM   34  C   UNL     1     -18.622 -16.875  -7.460  1.00  0.00     0.000 C 
BRANCH  34  35
HETATM   35  C   UNL     1     -19.396 -16.384  -6.240  1.00  0.00     0.000 C 
BRANCH  35  36
HETATM   36  C   UNL     1     -18.714 -16.829  -4.956  1.00  0.00     0.000 C 
BRANCH  36  37
HETATM   37  C   UNL     1     -18.233 -15.620  -4.162  1.00  0.00    -0.000 C 
BRANCH  37  38
HETATM   38  C   UNL     1     -19.307 -15.163  -3.182  1.00  0.00    -0.005 C 
HETATM   39  C   UNL     1     -19.658 -13.702  -3.388  1.00  0.00     0.005 C 
ENDBRANCH  37  38
ENDBRANCH  36  37
ENDBRANCH  35  36
ENDBRANCH  34  35
ENDBRANCH  33  34
ENDBRANCH  32  33
ENDBRANCH  31  32
BRANCH  31  40
HETATM   40  C   UNL     1     -19.460 -12.407  -8.059  1.00  0.00     0.007 C 
BRANCH  40  41
HETATM   41  C   UNL     1     -20.178 -12.820  -6.770  1.00  0.00     0.000 C 
BRANCH  41  42
HETATM   42  C   UNL     1     -21.298 -11.877  -6.346  1.00  0.00     0.000 C 
BRANCH  42  43
HETATM   43  C   UNL     1     -22.561 -12.699  -5.904  1.00  0.00     0.000 C 
BRANCH  43  44
HETATM   44  C   UNL     1     -22.352 -14.219  -6.104  1.00  0.00     0.000 C 
BRANCH  44  45
HETATM   45  C   UNL     1     -23.302 -15.287  -5.420  1.00  0.00     0.000 C 
BRANCH  45  46
HETATM   46  C   UNL     1     -22.625 -16.217  -4.346  1.00  0.00     0.000 C 
BRANCH  46  47
HETATM   47  C   UNL     1     -23.141 -16.177  -2.892  1.00  0.00    -0.000 C 
BRANCH  47  48
HETATM   48  C   UNL     1     -22.999 -14.761  -2.273  1.00  0.00    -0.005 C 
HETATM   49  C   UNL     1     -24.199 -14.391  -1.409  1.00  0.00     0.005 C 
ENDBRANCH  47  48
ENDBRANCH  46  47
ENDBRANCH  45  46
ENDBRANCH  44  45
ENDBRANCH  43  44
ENDBRANCH  42  43
ENDBRANCH  41  42
ENDBRANCH  40  41
ENDBRANCH  31  40
ENDBRANCH  30  31
ENDBRANCH  29  30
ENDBRANCH  27  29
ENDBRANCH  26  27
ENDBRANCH   1  26
BRANCH   1  50
HETATM   50  C   UNL     1     -18.059  -9.559  -5.134  1.00  0.00     0.294 C 
HETATM   51  O   UNL     1     -18.472  -9.720  -6.281  1.00  0.00    -0.262 OA
BRANCH  50  52
HETATM   52  O   UNL     1     -18.765  -8.881  -4.164  1.00  0.00    -0.319 OA
BRANCH  52  53
HETATM   53  C   UNL     1     -20.162  -9.221  -4.027  1.00  0.00     0.183 C 
BRANCH  53  54
HETATM   54  C   UNL     1     -21.123  -8.003  -3.952  1.00  0.00     0.010 C 
BRANCH  54  55
HETATM   55  C   UNL     1     -20.930  -7.181  -2.655  1.00  0.00     0.007 C 
BRANCH  55  56
HETATM   56  C   UNL     1     -22.141  -7.125  -1.694  1.00  0.00     0.000 C 
BRANCH  56  57
HETATM   57  C   UNL     1     -21.922  -7.637  -0.253  1.00  0.00     0.000 C 
BRANCH  57  58
HETATM   58  C   UNL     1     -23.162  -8.332   0.317  1.00  0.00     0.000 C 
BRANCH  58  59
HETATM   59  C   UNL     1     -23.368  -9.801  -0.090  1.00  0.00     0.000 C 
BRANCH  59  60
HETATM   60  C   UNL     1     -22.108 -10.679  -0.095  1.00  0.00    -0.000 C 
BRANCH  60  61
HETATM   61  C   UNL     1     -21.883 -11.300  -1.485  1.00  0.00    -0.005 C 
HETATM   62  C   UNL     1     -23.024 -11.015  -2.453  1.00  0.00     0.005 C 
ENDBRANCH  60  61
ENDBRANCH  59  60
ENDBRANCH  58  59
ENDBRANCH  57  58
ENDBRANCH  56  57
ENDBRANCH  55  56
ENDBRANCH  54  55
BRANCH  54  63
HETATM   63  C   UNL     1     -20.905  -7.088  -5.183  1.00  0.00     0.007 C 
BRANCH  63  64
HETATM   64  C   UNL     1     -20.897  -5.598  -4.854  1.00  0.00     0.000 C 
BRANCH  64  65
HETATM   65  C   UNL     1     -19.981  -4.836  -5.808  1.00  0.00     0.000 C 
BRANCH  65  66
HETATM   66  C   UNL     1     -20.250  -5.267  -7.244  1.00  0.00     0.000 C 
BRANCH  66  67
HETATM   67  C   UNL     1     -20.161  -4.084  -8.198  1.00  0.00     0.000 C 
BRANCH  67  68
HETATM   68  C   UNL     1     -20.977  -4.358  -9.456  1.00  0.00     0.000 C 
BRANCH  68  69
HETATM   69  C   UNL     1     -22.464  -4.423  -9.131  1.00  0.00     0.000 C 
BRANCH  69  70
HETATM   70  C   UNL     1     -23.284  -4.636 -10.400  1.00  0.00    -0.000 C 
BRANCH  70  71
HETATM   71  C   UNL     1     -24.227  -3.462 -10.645  1.00  0.00    -0.005 C 
HETATM   72  C   UNL     1     -24.291  -3.114 -12.121  1.00  0.00     0.005 C 
ENDBRANCH  70  71
ENDBRANCH  69  70
ENDBRANCH  68  69
ENDBRANCH  67  68
ENDBRANCH  66  67
ENDBRANCH  65  66
ENDBRANCH  64  65
ENDBRANCH  63  64
ENDBRANCH  54  63
ENDBRANCH  53  54
ENDBRANCH  52  53
ENDBRANCH  50  52
ENDBRANCH   1  50
BRANCH   1  73
HETATM   73  O   UNL     1     -15.691  -9.647  -5.463  1.00  0.00    -0.379 OA
HETATM   74  H   UNL     1     -15.571  -8.698  -5.245  1.00  0.00     0.211 HD
ENDBRANCH   1  73
TORSDOF 63
ENDMDL
MODEL 4
REMARK VINA RESULT:      -5.3      2.870     10.116
REMARK WARNING: 32 MAX_TORS EXCEEDED!!!
REMARK  63 active torsions:
REMARK  status: ('A' for Active; 'I' for Inactive)
REMARK    1  A    between atoms: C_2  and  C_3 
REMARK    2  A    between atoms: C_3  and  C_4 
REMARK    3  A    between atoms: C_4  and  C_5 
REMARK    4  A    between atoms: C_5  and  C_6 
REMARK    5  A    between atoms: C_6  and  C_7 
REMARK    6  A    between atoms: C_7  and  C_8 
REMARK    7  A    between atoms: C_8  and  C_9 
REMARK    8  A    between atoms: C_9  and  C_10 
REMARK    9  A    between atoms: C_10  and  C_11 
REMARK   10  A    between atoms: C_11  and  C_12 
REMARK   11  A    between atoms: C_11  and  C_20 
REMARK   12  A    between atoms: C_12  and  C_13 
REMARK   13  A    between atoms: C_13  and  C_14 
REMARK   14  A    between atoms: C_14  and  C_15 
REMARK   15  A    between atoms: C_15  and  C_16 
REMARK   16  A    between atoms: C_16  and  C_17 
REMARK   17  A    between atoms: C_17  and  C_18 
REMARK   18  A    between atoms: C_20  and  O_21 
REMARK   19  A    between atoms: O_21  and  C_22 
REMARK   20  A    between atoms: C_22  and  C_24 
REMARK   21  A    between atoms: C_24  and  C_25 
REMARK   22  A    between atoms: C_25  and  C_26 
REMARK   23  A    between atoms: C_25  and  C_50 
REMARK   24  A    between atoms: C_25  and  O_73 
REMARK   25  A    between atoms: C_26  and  C_27 
REMARK   26  A    between atoms: C_27  and  O_29 
REMARK   27  A    between atoms: O_29  and  C_30 
REMARK   28  A    between atoms: C_30  and  C_31 
REMARK   29  A    between atoms: C_31  and  C_32 
REMARK   30  A    between atoms: C_31  and  C_40 
REMARK   31  A    between atoms: C_32  and  C_33 
REMARK   32  A    between atoms: C_33  and  C_34 
REMARK   33  A    between atoms: C_34  and  C_35 
REMARK   34  A    between atoms: C_35  and  C_36 
REMARK   35  A    between atoms: C_36  and  C_37 
REMARK   36  A    between atoms: C_37  and  C_38 
REMARK   37  A    between atoms: C_40  and  C_41 
REMARK   38  A    between atoms: C_41  and  C_42 
REMARK   39  A    between atoms: C_42  and  C_43 
REMARK   40  A    between atoms: C_43  and  C_44 
REMARK   41  A    between atoms: C_44  and  C_45 
REMARK   42  A    between atoms: C_45  and  C_46 
REMARK   43  A    between atoms: C_46  and  C_47 
REMARK   44  A    between atoms: C_47  and  C_48 
REMARK   45  A    between atoms: C_50  and  O_52 
REMARK   46  A    between atoms: O_52  and  C_53 
REMARK   47  A    between atoms: C_53  and  C_54 
REMARK   48  A    between atoms: C_54  and  C_55 
REMARK   49  A    between atoms: C_54  and  C_63 
REMARK   50  A    between atoms: C_55  and  C_56 
REMARK   51  A    between atoms: C_56  and  C_57 
REMARK   52  A    between atoms: C_57  and  C_58 
REMARK   53  A    between atoms: C_58  and  C_59 
REMARK   54  A    between atoms: C_59  and  C_60 
REMARK   55  A    between atoms: C_60  and  C_61 
REMARK   56  A    between atoms: C_63  and  C_64 
REMARK   57  A    between atoms: C_64  and  C_65 
REMARK   58  A    between atoms: C_65  and  C_66 
REMARK   59  A    between atoms: C_66  and  C_67 
REMARK   60  A    between atoms: C_67  and  C_68 
REMARK   61  A    between atoms: C_68  and  C_69 
REMARK   62  A    between atoms: C_69  and  C_70 
REMARK   63  A    between atoms: C_70  and  C_71 
ROOT
HETATM    1  C   UNL     1     -17.238 -12.215  -1.388  1.00  0.00     0.162 C 
ENDROOT
BRANCH   1   2
HETATM    2  C   UNL     1     -15.950 -11.534  -0.850  1.00  0.00     0.160 C 
BRANCH   2   3
HETATM    3  C   UNL     1     -15.302 -12.328   0.280  1.00  0.00     0.262 C 
HETATM    4  O   UNL     1     -15.332 -11.918   1.456  1.00  0.00    -0.265 OA
BRANCH   3   5
HETATM    5  O   UNL     1     -14.740 -13.473  -0.117  1.00  0.00    -0.321 OA
BRANCH   5   6
HETATM    6  C   UNL     1     -13.903 -14.202   0.853  1.00  0.00     0.183 C 
BRANCH   6   7
HETATM    7  C   UNL     1     -12.622 -14.814   0.238  1.00  0.00     0.010 C 
BRANCH   7   8
HETATM    8  C   UNL     1     -12.198 -14.083  -1.057  1.00  0.00     0.007 C 
BRANCH   8   9
HETATM    9  C   UNL     1     -12.402 -14.884  -2.355  1.00  0.00     0.000 C 
BRANCH   9  10
HETATM   10  C   UNL     1     -13.301 -16.109  -2.146  1.00  0.00     0.000 C 
BRANCH  10  11
HETATM   11  C   UNL     1     -13.830 -16.699  -3.461  1.00  0.00     0.000 C 
BRANCH  11  12
HETATM   12  C   UNL     1     -14.841 -15.748  -4.118  1.00  0.00     0.000 C 
BRANCH  12  13
HETATM   13  C   UNL     1     -14.579 -15.466  -5.631  1.00  0.00     0.000 C 
BRANCH  13  14
HETATM   14  C   UNL     1     -13.289 -14.631  -5.809  1.00  0.00     0.000 C 
BRANCH  14  15
HETATM   15  C   UNL     1     -13.296 -13.172  -6.378  1.00  0.00    -0.000 C 
BRANCH  15  16
HETATM   16  C   UNL     1     -13.989 -12.045  -5.503  1.00  0.00    -0.005 C 
HETATM   17  C   UNL     1     -14.038 -12.202  -3.988  1.00  0.00     0.005 C 
ENDBRANCH  15  16
ENDBRANCH  14  15
ENDBRANCH  13  14
ENDBRANCH  12  13
ENDBRANCH  11  12
ENDBRANCH  10  11
ENDBRANCH   9  10
ENDBRANCH   8   9
ENDBRANCH   7   8
BRANCH   7  18
HETATM   18  C   UNL     1     -11.443 -14.957   1.258  1.00  0.00     0.007 C 
BRANCH  18  19
HETATM   19  C   UNL     1     -10.033 -14.701   0.700  1.00  0.00     0.000 C 
BRANCH  19  20
HETATM   20  C   UNL     1      -9.217 -13.623   1.444  1.00  0.00     0.000 C 
BRANCH  20  21
HETATM   21  C   UNL     1      -9.349 -13.638   2.974  1.00  0.00     0.000 C 
BRANCH  21  22
HETATM   22  C   UNL     1      -8.280 -14.536   3.626  1.00  0.00     0.000 C 
BRANCH  22  23
HETATM   23  C   UNL     1      -8.240 -14.466   5.160  1.00  0.00    -0.000 C 
BRANCH  23  24
HETATM   24  C   UNL     1      -9.140 -13.376   5.745  1.00  0.00    -0.005 C 
HETATM   25  C   UNL     1     -10.165 -13.940   6.718  1.00  0.00     0.005 C 
ENDBRANCH  23  24
ENDBRANCH  22  23
ENDBRANCH  21  22
ENDBRANCH  20  21
ENDBRANCH  19  20
ENDBRANCH  18  19
ENDBRANCH   7  18
ENDBRANCH   6   7
ENDBRANCH   5   6
ENDBRANCH   3   5
ENDBRANCH   2   3
ENDBRANCH   1   2
BRANCH   1  26
HETATM   26  C   UNL     1     -18.282 -12.421  -0.282  1.00  0.00     0.160 C 
BRANCH  26  27
HETATM   27  C   UNL     1     -18.510 -13.854   0.135  1.00  0.00     0.262 C 
HETATM   28  O   UNL     1     -17.803 -14.479   0.912  1.00  0.00    -0.265 OA
BRANCH  27  29
HETATM   29  O   UNL     1     -19.530 -14.394  -0.595  1.00  0.00    -0.321 OA
BRANCH  29  30
HETATM   30  C   UNL     1     -20.497 -13.426  -1.003  1.00  0.00     0.183 C 
BRANCH  30  31
HETATM   31  C   UNL     1     -21.851 -13.566  -0.301  1.00  0.00     0.010 C 
BRANCH  31  32
HETATM   32  C   UNL     1     -22.960 -13.876  -1.326  1.00  0.00     0.007 C 
BRANCH  32  33
HETATM   33  C   UNL     1     -24.237 -13.088  -1.049  1.00  0.00     0.000 C 
BRANCH  33  34
HETATM   34  C   UNL     1     -24.079 -11.611  -1.369  1.00  0.00     0.000 C 
BRANCH  34  35
HETATM   35  C   UNL     1     -23.987 -10.825  -0.065  1.00  0.00     0.000 C 
BRANCH  35  36
HETATM   36  C   UNL     1     -22.721  -9.984  -0.032  1.00  0.00     0.000 C 
BRANCH  36  37
HETATM   37  C   UNL     1     -23.063  -8.517   0.203  1.00  0.00    -0.000 C 
BRANCH  37  38
HETATM   38  C   UNL     1     -21.894  -7.626  -0.200  1.00  0.00    -0.005 C 
HETATM   39  C   UNL     1     -22.318  -6.587  -1.220  1.00  0.00     0.005 C 
ENDBRANCH  37  38
ENDBRANCH  36  37
ENDBRANCH  35  36
ENDBRANCH  34  35
ENDBRANCH  33  34
ENDBRANCH  32  33
ENDBRANCH  31  32
BRANCH  31  40
HETATM   40  C   UNL     1     -21.737 -14.648   0.804  1.00  0.00     0.007 C 
BRANCH  40  41
HETATM   41  C   UNL     1     -22.077 -14.057   2.176  1.00  0.00     0.000 C 
BRANCH  41  42
HETATM   42  C   UNL     1     -23.549 -14.163   2.558  1.00  0.00     0.000 C 
BRANCH  42  43
HETATM   43  C   UNL     1     -23.727 -15.163   3.756  1.00  0.00     0.000 C 
BRANCH  43  44
HETATM   44  C   UNL     1     -25.205 -15.264   4.201  1.00  0.00     0.000 C 
BRANCH  44  45
HETATM   45  C   UNL     1     -25.626 -15.136   5.723  1.00  0.00     0.000 C 
BRANCH  45  46
HETATM   46  C   UNL     1     -26.949 -14.331   6.003  1.00  0.00     0.000 C 
BRANCH  46  47
HETATM   47  C   UNL     1     -28.105 -15.029   6.749  1.00  0.00    -0.000 C 
BRANCH  47  48
HETATM   48  C   UNL     1     -29.038 -15.792   5.772  1.00  0.00    -0.005 C 
HETATM   49  C   UNL     1     -30.421 -16.028   6.368  1.00  0.00     0.005 C 
ENDBRANCH  47  48
ENDBRANCH  46  47
ENDBRANCH  45  46
ENDBRANCH  44  45
ENDBRANCH  43  44
ENDBRANCH  42  43
ENDBRANCH  41  42
ENDBRANCH  40  41
ENDBRANCH  31  40
ENDBRANCH  30  31
ENDBRANCH  29  30
ENDBRANCH  27  29
ENDBRANCH  26  27
ENDBRANCH   1  26
BRANCH   1  50
HETATM   50  C   UNL     1     -17.846 -11.412  -2.580  1.00  0.00     0.294 C 
HETATM   51  O   UNL     1     -17.549 -11.611  -3.757  1.00  0.00    -0.262 OA
BRANCH  50  52
HETATM   52  O   UNL     1     -18.807 -10.506  -2.187  1.00  0.00    -0.319 OA
BRANCH  52  53
HETATM   53  C   UNL     1     -18.897  -9.286  -2.955  1.00  0.00     0.183 C 
BRANCH  53  54
HETATM   54  C   UNL     1     -20.115  -9.213  -3.917  1.00  0.00     0.010 C 
BRANCH  54  55
HETATM   55  C   UNL     1     -21.254 -10.173  -3.496  1.00  0.00     0.007 C 
BRANCH  55  56
HETATM   56  C   UNL     1     -21.604 -11.300  -4.498  1.00  0.00     0.000 C 
BRANCH  56  57
HETATM   57  C   UNL     1     -21.138 -11.115  -5.959  1.00  0.00     0.000 C 
BRANCH  57  58
HETATM   58  C   UNL     1     -20.719 -12.435  -6.612  1.00  0.00     0.000 C 
BRANCH  58  59
HETATM   59  C   UNL     1     -19.554 -12.360  -7.614  1.00  0.00     0.000 C 
BRANCH  59  60
HETATM   60  C   UNL     1     -19.247 -13.651  -8.386  1.00  0.00    -0.000 C 
BRANCH  60  61
HETATM   61  C   UNL     1     -17.767 -14.042  -8.226  1.00  0.00    -0.005 C 
HETATM   62  C   UNL     1     -17.027 -13.165  -7.225  1.00  0.00     0.005 C 
ENDBRANCH  60  61
ENDBRANCH  59  60
ENDBRANCH  58  59
ENDBRANCH  57  58
ENDBRANCH  56  57
ENDBRANCH  55  56
ENDBRANCH  54  55
BRANCH  54  63
HETATM   63  C   UNL     1     -20.654  -7.762  -3.970  1.00  0.00     0.007 C 
BRANCH  63  64
HETATM   64  C   UNL     1     -21.841  -7.576  -4.911  1.00  0.00     0.000 C 
BRANCH  64  65
HETATM   65  C   UNL     1     -21.823  -6.185  -5.538  1.00  0.00     0.000 C 
BRANCH  65  66
HETATM   66  C   UNL     1     -20.678  -5.366  -4.958  1.00  0.00     0.000 C 
BRANCH  66  67
HETATM   67  C   UNL     1     -19.890  -4.668  -6.058  1.00  0.00     0.000 C 
BRANCH  67  68
HETATM   68  C   UNL     1     -20.838  -4.109  -7.112  1.00  0.00     0.000 C 
BRANCH  68  69
HETATM   69  C   UNL     1     -20.287  -4.343  -8.513  1.00  0.00     0.000 C 
BRANCH  69  70
HETATM   70  C   UNL     1     -21.417  -4.383  -9.537  1.00  0.00    -0.000 C 
BRANCH  70  71
HETATM   71  C   UNL     1     -20.888  -4.122 -10.944  1.00  0.00    -0.005 C 
HETATM   72  C   UNL     1     -21.669  -3.011 -11.623  1.00  0.00     0.005 C 
ENDBRANCH  70  71
ENDBRANCH  69  70
ENDBRANCH  68  69
ENDBRANCH  67  68
ENDBRANCH  66  67
ENDBRANCH  65  66
ENDBRANCH  64  65
ENDBRANCH  63  64
ENDBRANCH  54  63
ENDBRANCH  53  54
ENDBRANCH  52  53
ENDBRANCH  50  52
ENDBRANCH   1  50
BRANCH   1  73
HETATM   73  O   UNL     1     -16.900 -13.509  -1.925  1.00  0.00    -0.379 OA
HETATM   74  H   UNL     1     -17.495 -13.683  -2.686  1.00  0.00     0.211 HD
ENDBRANCH   1  73
TORSDOF 63
ENDMDL
MODEL 5
REMARK VINA RESULT:      -5.2      1.812     10.443
REMARK WARNING: 32 MAX_TORS EXCEEDED!!!
REMARK  63 active torsions:
REMARK  status: ('A' for Active; 'I' for Inactive)
REMARK    1  A    between atoms: C_2  and  C_3 
REMARK    2  A    between atoms: C_3  and  C_4 
REMARK    3  A    between atoms: C_4  and  C_5 
REMARK    4  A    between atoms: C_5  and  C_6 
REMARK    5  A    between atoms: C_6  and  C_7 
REMARK    6  A    between atoms: C_7  and  C_8 
REMARK    7  A    between atoms: C_8  and  C_9 
REMARK    8  A    between atoms: C_9  and  C_10 
REMARK    9  A    between atoms: C_10  and  C_11 
REMARK   10  A    between atoms: C_11  and  C_12 
REMARK   11  A    between atoms: C_11  and  C_20 
REMARK   12  A    between atoms: C_12  and  C_13 
REMARK   13  A    between atoms: C_13  and  C_14 
REMARK   14  A    between atoms: C_14  and  C_15 
REMARK   15  A    between atoms: C_15  and  C_16 
REMARK   16  A    between atoms: C_16  and  C_17 
REMARK   17  A    between atoms: C_17  and  C_18 
REMARK   18  A    between atoms: C_20  and  O_21 
REMARK   19  A    between atoms: O_21  and  C_22 
REMARK   20  A    between atoms: C_22  and  C_24 
REMARK   21  A    between atoms: C_24  and  C_25 
REMARK   22  A    between atoms: C_25  and  C_26 
REMARK   23  A    between atoms: C_25  and  C_50 
REMARK   24  A    between atoms: C_25  and  O_73 
REMARK   25  A    between atoms: C_26  and  C_27 
REMARK   26  A    between atoms: C_27  and  O_29 
REMARK   27  A    between atoms: O_29  and  C_30 
REMARK   28  A    between atoms: C_30  and  C_31 
REMARK   29  A    between atoms: C_31  and  C_32 
REMARK   30  A    between atoms: C_31  and  C_40 
REMARK   31  A    between atoms: C_32  and  C_33 
REMARK   32  A    between atoms: C_33  and  C_34 
REMARK   33  A    between atoms: C_34  and  C_35 
REMARK   34  A    between atoms: C_35  and  C_36 
REMARK   35  A    between atoms: C_36  and  C_37 
REMARK   36  A    between atoms: C_37  and  C_38 
REMARK   37  A    between atoms: C_40  and  C_41 
REMARK   38  A    between atoms: C_41  and  C_42 
REMARK   39  A    between atoms: C_42  and  C_43 
REMARK   40  A    between atoms: C_43  and  C_44 
REMARK   41  A    between atoms: C_44  and  C_45 
REMARK   42  A    between atoms: C_45  and  C_46 
REMARK   43  A    between atoms: C_46  and  C_47 
REMARK   44  A    between atoms: C_47  and  C_48 
REMARK   45  A    between atoms: C_50  and  O_52 
REMARK   46  A    between atoms: O_52  and  C_53 
REMARK   47  A    between atoms: C_53  and  C_54 
REMARK   48  A    between atoms: C_54  and  C_55 
REMARK   49  A    between atoms: C_54  and  C_63 
REMARK   50  A    between atoms: C_55  and  C_56 
REMARK   51  A    between atoms: C_56  and  C_57 
REMARK   52  A    between atoms: C_57  and  C_58 
REMARK   53  A    between atoms: C_58  and  C_59 
REMARK   54  A    between atoms: C_59  and  C_60 
REMARK   55  A    between atoms: C_60  and  C_61 
REMARK   56  A    between atoms: C_63  and  C_64 
REMARK   57  A    between atoms: C_64  and  C_65 
REMARK   58  A    between atoms: C_65  and  C_66 
REMARK   59  A    between atoms: C_66  and  C_67 
REMARK   60  A    between atoms: C_67  and  C_68 
REMARK   61  A    between atoms: C_68  and  C_69 
REMARK   62  A    between atoms: C_69  and  C_70 
REMARK   63  A    between atoms: C_70  and  C_71 
ROOT
HETATM    1  C   UNL     1     -21.388 -11.774  -4.996  1.00  0.00     0.162 C 
ENDROOT
BRANCH   1   2
HETATM    2  C   UNL     1     -20.776 -11.417  -6.378  1.00  0.00     0.160 C 
BRANCH   2   3
HETATM    3  C   UNL     1     -20.143 -12.626  -7.062  1.00  0.00     0.262 C 
HETATM    4  O   UNL     1     -20.844 -13.519  -7.573  1.00  0.00    -0.265 OA
BRANCH   3   5
HETATM    5  O   UNL     1     -18.806 -12.606  -7.064  1.00  0.00    -0.321 OA
BRANCH   5   6
HETATM    6  C   UNL     1     -18.137 -11.293  -7.023  1.00  0.00     0.183 C 
BRANCH   6   7
HETATM    7  C   UNL     1     -17.265 -11.075  -5.763  1.00  0.00     0.010 C 
BRANCH   7   8
HETATM    8  C   UNL     1     -15.770 -10.906  -6.118  1.00  0.00     0.007 C 
BRANCH   8   9
HETATM    9  C   UNL     1     -15.111 -12.136  -6.767  1.00  0.00     0.000 C 
BRANCH   9  10
HETATM   10  C   UNL     1     -13.855 -12.588  -6.012  1.00  0.00     0.000 C 
BRANCH  10  11
HETATM   11  C   UNL     1     -13.897 -12.248  -4.515  1.00  0.00     0.000 C 
BRANCH  11  12
HETATM   12  C   UNL     1     -13.229 -13.354  -3.685  1.00  0.00     0.000 C 
BRANCH  12  13
HETATM   13  C   UNL     1     -13.252 -14.767  -4.348  1.00  0.00     0.000 C 
BRANCH  13  14
HETATM   14  C   UNL     1     -13.988 -15.778  -3.439  1.00  0.00     0.000 C 
BRANCH  14  15
HETATM   15  C   UNL     1     -15.409 -16.345  -3.778  1.00  0.00    -0.000 C 
BRANCH  15  16
HETATM   16  C   UNL     1     -16.668 -15.537  -3.248  1.00  0.00    -0.005 C 
HETATM   17  C   UNL     1     -16.938 -14.139  -3.789  1.00  0.00     0.005 C 
ENDBRANCH  15  16
ENDBRANCH  14  15
ENDBRANCH  13  14
ENDBRANCH  12  13
ENDBRANCH  11  12
ENDBRANCH  10  11
ENDBRANCH   9  10
ENDBRANCH   8   9
ENDBRANCH   7   8
BRANCH   7  18
HETATM   18  C   UNL     1     -17.791  -9.937  -4.826  1.00  0.00     0.007 C 
BRANCH  18  19
HETATM   19  C   UNL     1     -17.623 -10.175  -3.316  1.00  0.00     0.000 C 
BRANCH  19  20
HETATM   20  C   UNL     1     -16.261  -9.748  -2.729  1.00  0.00     0.000 C 
BRANCH  20  21
HETATM   21  C   UNL     1     -15.623 -10.750  -1.754  1.00  0.00     0.000 C 
BRANCH  21  22
HETATM   22  C   UNL     1     -16.685 -11.631  -1.072  1.00  0.00     0.000 C 
BRANCH  22  23
HETATM   23  C   UNL     1     -16.354 -12.020   0.377  1.00  0.00    -0.000 C 
BRANCH  23  24
HETATM   24  C   UNL     1     -15.023 -12.759   0.522  1.00  0.00    -0.005 C 
HETATM   25  C   UNL     1     -14.924 -13.951  -0.419  1.00  0.00     0.005 C 
ENDBRANCH  23  24
ENDBRANCH  22  23
ENDBRANCH  21  22
ENDBRANCH  20  21
ENDBRANCH  19  20
ENDBRANCH  18  19
ENDBRANCH   7  18
ENDBRANCH   6   7
ENDBRANCH   5   6
ENDBRANCH   3   5
ENDBRANCH   2   3
ENDBRANCH   1   2
BRANCH   1  26
HETATM   26  C   UNL     1     -20.463 -12.683  -4.176  1.00  0.00     0.160 C 
BRANCH  26  27
HETATM   27  C   UNL     1     -21.004 -14.061  -3.880  1.00  0.00     0.262 C 
HETATM   28  O   UNL     1     -21.447 -14.834  -4.717  1.00  0.00    -0.265 OA
BRANCH  27  29
HETATM   29  O   UNL     1     -21.064 -14.256  -2.530  1.00  0.00    -0.321 OA
BRANCH  29  30
HETATM   30  C   UNL     1     -20.189 -15.287  -2.076  1.00  0.00     0.183 C 
BRANCH  30  31
HETATM   31  C   UNL     1     -20.134 -15.431  -0.552  1.00  0.00     0.010 C 
BRANCH  31  32
HETATM   32  C   UNL     1     -21.179 -16.454  -0.068  1.00  0.00     0.007 C 
BRANCH  32  33
HETATM   33  C   UNL     1     -21.487 -16.302   1.419  1.00  0.00     0.000 C 
BRANCH  33  34
HETATM   34  C   UNL     1     -22.810 -15.595   1.661  1.00  0.00     0.000 C 
BRANCH  34  35
HETATM   35  C   UNL     1     -22.534 -14.188   2.181  1.00  0.00     0.000 C 
BRANCH  35  36
HETATM   36  C   UNL     1     -23.350 -13.161   1.413  1.00  0.00     0.000 C 
BRANCH  36  37
HETATM   37  C   UNL     1     -23.344 -13.481  -0.077  1.00  0.00    -0.000 C 
BRANCH  37  38
HETATM   38  C   UNL     1     -24.111 -12.418  -0.854  1.00  0.00    -0.005 C 
HETATM   39  C   UNL     1     -24.077 -11.080  -0.142  1.00  0.00     0.005 C 
ENDBRANCH  37  38
ENDBRANCH  36  37
ENDBRANCH  35  36
ENDBRANCH  34  35
ENDBRANCH  33  34
ENDBRANCH  32  33
ENDBRANCH  31  32
BRANCH  31  40
HETATM   40  C   UNL     1     -18.689 -15.808  -0.134  1.00  0.00     0.007 C 
BRANCH  40  41
HETATM   41  C   UNL     1     -18.218 -14.935   1.033  1.00  0.00     0.000 C 
BRANCH  41  42
HETATM   42  C   UNL     1     -17.690 -15.717   2.230  1.00  0.00     0.000 C 
BRANCH  42  43
HETATM   43  C   UNL     1     -16.383 -16.493   1.837  1.00  0.00     0.000 C 
BRANCH  43  44
HETATM   44  C   UNL     1     -15.169 -16.029   2.676  1.00  0.00     0.000 C 
BRANCH  44  45
HETATM   45  C   UNL     1     -13.688 -16.455   2.303  1.00  0.00     0.000 C 
BRANCH  45  46
HETATM   46  C   UNL     1     -12.645 -15.282   2.195  1.00  0.00     0.000 C 
BRANCH  46  47
HETATM   47  C   UNL     1     -11.686 -15.245   0.987  1.00  0.00    -0.000 C 
BRANCH  47  48
HETATM   48  C   UNL     1     -10.953 -13.882   0.881  1.00  0.00    -0.005 C 
HETATM   49  C   UNL     1      -9.444 -14.028   1.047  1.00  0.00     0.005 C 
ENDBRANCH  47  48
ENDBRANCH  46  47
ENDBRANCH  45  46
ENDBRANCH  44  45
ENDBRANCH  43  44
ENDBRANCH  42  43
ENDBRANCH  41  42
ENDBRANCH  40  41
ENDBRANCH  31  40
ENDBRANCH  30  31
ENDBRANCH  29  30
ENDBRANCH  27  29
ENDBRANCH  26  27
ENDBRANCH   1  26
BRANCH   1  50
HETATM   50  C   UNL     1     -21.754 -10.487  -4.192  1.00  0.00     0.294 C 
HETATM   51  O   UNL     1     -22.133 -10.501  -3.021  1.00  0.00    -0.262 OA
BRANCH  50  52
HETATM   52  O   UNL     1     -21.539  -9.327  -4.902  1.00  0.00    -0.319 OA
BRANCH  52  53
HETATM   53  C   UNL     1     -20.855  -8.261  -4.208  1.00  0.00     0.183 C 
BRANCH  53  54
HETATM   54  C   UNL     1     -21.596  -6.896  -4.221  1.00  0.00     0.010 C 
BRANCH  54  55
HETATM   55  C   UNL     1     -21.917  -6.389  -2.795  1.00  0.00     0.007 C 
BRANCH  55  56
HETATM   56  C   UNL     1     -21.942  -7.459  -1.677  1.00  0.00     0.000 C 
BRANCH  56  57
HETATM   57  C   UNL     1     -22.395  -7.003  -0.273  1.00  0.00     0.000 C 
BRANCH  57  58
HETATM   58  C   UNL     1     -22.431  -8.156   0.735  1.00  0.00     0.000 C 
BRANCH  58  59
HETATM   59  C   UNL     1     -21.110  -8.473   1.455  1.00  0.00     0.000 C 
BRANCH  59  60
HETATM   60  C   UNL     1     -20.650  -9.937   1.399  1.00  0.00    -0.000 C 
BRANCH  60  61
HETATM   61  C   UNL     1     -20.477 -10.398  -0.059  1.00  0.00    -0.005 C 
HETATM   62  C   UNL     1     -20.121 -11.874  -0.177  1.00  0.00     0.005 C 
ENDBRANCH  60  61
ENDBRANCH  59  60
ENDBRANCH  58  59
ENDBRANCH  57  58
ENDBRANCH  56  57
ENDBRANCH  55  56
ENDBRANCH  54  55
BRANCH  54  63
HETATM   63  C   UNL     1     -20.739  -5.842  -4.966  1.00  0.00     0.007 C 
BRANCH  63  64
HETATM   64  C   UNL     1     -21.064  -5.718  -6.452  1.00  0.00     0.000 C 
BRANCH  64  65
HETATM   65  C   UNL     1     -20.567  -4.385  -7.006  1.00  0.00     0.000 C 
BRANCH  65  66
HETATM   66  C   UNL     1     -20.029  -4.576  -8.418  1.00  0.00     0.000 C 
BRANCH  66  67
HETATM   67  C   UNL     1     -21.139  -4.443  -9.451  1.00  0.00     0.000 C 
BRANCH  67  68
HETATM   68  C   UNL     1     -20.552  -4.099 -10.815  1.00  0.00     0.000 C 
BRANCH  68  69
HETATM   69  C   UNL     1     -21.657  -3.907 -11.846  1.00  0.00     0.000 C 
BRANCH  69  70
HETATM   70  C   UNL     1     -23.006  -4.334 -11.276  1.00  0.00    -0.000 C 
BRANCH  70  71
HETATM   71  C   UNL     1     -24.021  -3.198 -11.365  1.00  0.00    -0.005 C 
HETATM   72  C   UNL     1     -24.261  -2.793 -12.808  1.00  0.00     0.005 C 
ENDBRANCH  70  71
ENDBRANCH  69  70
ENDBRANCH  68  69
ENDBRANCH  67  68
ENDBRANCH  66  67
ENDBRANCH  65  66
ENDBRANCH  64  65
ENDBRANCH  63  64
ENDBRANCH  54  63
ENDBRANCH  53  54
ENDBRANCH  52  53
ENDBRANCH  50  52
ENDBRANCH   1  50
BRANCH   1  73
HETATM   73  O   UNL     1     -22.633 -12.473  -5.195  1.00  0.00    -0.379 OA
HETATM   74  H   UNL     1     -23.071 -12.085  -5.983  1.00  0.00     0.211 HD
ENDBRANCH   1  73
TORSDOF 63
ENDMDL
MODEL 6
REMARK VINA RESULT:      -5.1      1.757      9.276
REMARK WARNING: 32 MAX_TORS EXCEEDED!!!
REMARK  63 active torsions:
REMARK  status: ('A' for Active; 'I' for Inactive)
REMARK    1  A    between atoms: C_2  and  C_3 
REMARK    2  A    between atoms: C_3  and  C_4 
REMARK    3  A    between atoms: C_4  and  C_5 
REMARK    4  A    between atoms: C_5  and  C_6 
REMARK    5  A    between atoms: C_6  and  C_7 
REMARK    6  A    between atoms: C_7  and  C_8 
REMARK    7  A    between atoms: C_8  and  C_9 
REMARK    8  A    between atoms: C_9  and  C_10 
REMARK    9  A    between atoms: C_10  and  C_11 
REMARK   10  A    between atoms: C_11  and  C_12 
REMARK   11  A    between atoms: C_11  and  C_20 
REMARK   12  A    between atoms: C_12  and  C_13 
REMARK   13  A    between atoms: C_13  and  C_14 
REMARK   14  A    between atoms: C_14  and  C_15 
REMARK   15  A    between atoms: C_15  and  C_16 
REMARK   16  A    between atoms: C_16  and  C_17 
REMARK   17  A    between atoms: C_17  and  C_18 
REMARK   18  A    between atoms: C_20  and  O_21 
REMARK   19  A    between atoms: O_21  and  C_22 
REMARK   20  A    between atoms: C_22  and  C_24 
REMARK   21  A    between atoms: C_24  and  C_25 
REMARK   22  A    between atoms: C_25  and  C_26 
REMARK   23  A    between atoms: C_25  and  C_50 
REMARK   24  A    between atoms: C_25  and  O_73 
REMARK   25  A    between atoms: C_26  and  C_27 
REMARK   26  A    between atoms: C_27  and  O_29 
REMARK   27  A    between atoms: O_29  and  C_30 
REMARK   28  A    between atoms: C_30  and  C_31 
REMARK   29  A    between atoms: C_31  and  C_32 
REMARK   30  A    between atoms: C_31  and  C_40 
REMARK   31  A    between atoms: C_32  and  C_33 
REMARK   32  A    between atoms: C_33  and  C_34 
REMARK   33  A    between atoms: C_34  and  C_35 
REMARK   34  A    between atoms: C_35  and  C_36 
REMARK   35  A    between atoms: C_36  and  C_37 
REMARK   36  A    between atoms: C_37  and  C_38 
REMARK   37  A    between atoms: C_40  and  C_41 
REMARK   38  A    between atoms: C_41  and  C_42 
REMARK   39  A    between atoms: C_42  and  C_43 
REMARK   40  A    between atoms: C_43  and  C_44 
REMARK   41  A    between atoms: C_44  and  C_45 
REMARK   42  A    between atoms: C_45  and  C_46 
REMARK   43  A    between atoms: C_46  and  C_47 
REMARK   44  A    between atoms: C_47  and  C_48 
REMARK   45  A    between atoms: C_50  and  O_52 
REMARK   46  A    between atoms: O_52  and  C_53 
REMARK   47  A    between atoms: C_53  and  C_54 
REMARK   48  A    between atoms: C_54  and  C_55 
REMARK   49  A    between atoms: C_54  and  C_63 
REMARK   50  A    between atoms: C_55  and  C_56 
REMARK   51  A    between atoms: C_56  and  C_57 
REMARK   52  A    between atoms: C_57  and  C_58 
REMARK   53  A    between atoms: C_58  and  C_59 
REMARK   54  A    between atoms: C_59  and  C_60 
REMARK   55  A    between atoms: C_60  and  C_61 
REMARK   56  A    between atoms: C_63  and  C_64 
REMARK   57  A    between atoms: C_64  and  C_65 
REMARK   58  A    between atoms: C_65  and  C_66 
REMARK   59  A    between atoms: C_66  and  C_67 
REMARK   60  A    between atoms: C_67  and  C_68 
REMARK   61  A    between atoms: C_68  and  C_69 
REMARK   62  A    between atoms: C_69  and  C_70 
REMARK   63  A    between atoms: C_70  and  C_71 
ROOT
HETATM    1  C   UNL     1     -17.417 -11.125  -5.743  1.00  0.00     0.162 C 
ENDROOT
BRANCH   1   2
HETATM    2  C   UNL     1     -17.588  -9.586  -5.615  1.00  0.00     0.160 C 
BRANCH   2   3
HETATM    3  C   UNL     1     -18.893  -9.203  -4.923  1.00  0.00     0.262 C 
HETATM    4  O   UNL     1     -18.965  -9.117  -3.683  1.00  0.00    -0.265 OA
BRANCH   3   5
HETATM    5  O   UNL     1     -19.902  -8.963  -5.768  1.00  0.00    -0.321 OA
BRANCH   5   6
HETATM    6  C   UNL     1     -21.157  -8.432  -5.207  1.00  0.00     0.183 C 
BRANCH   6   7
HETATM    7  C   UNL     1     -21.345  -6.912  -5.425  1.00  0.00     0.010 C 
BRANCH   7   8
HETATM    8  C   UNL     1     -21.443  -6.145  -4.086  1.00  0.00     0.007 C 
BRANCH   8   9
HETATM    9  C   UNL     1     -21.613  -7.029  -2.838  1.00  0.00     0.000 C 
BRANCH   9  10
HETATM   10  C   UNL     1     -22.295  -6.282  -1.685  1.00  0.00     0.000 C 
BRANCH  10  11
HETATM   11  C   UNL     1     -22.477  -7.148  -0.430  1.00  0.00     0.000 C 
BRANCH  11  12
HETATM   12  C   UNL     1     -21.339  -8.170  -0.303  1.00  0.00     0.000 C 
BRANCH  12  13
HETATM   13  C   UNL     1     -21.760  -9.537   0.323  1.00  0.00     0.000 C 
BRANCH  13  14
HETATM   14  C   UNL     1     -23.186  -9.923  -0.134  1.00  0.00     0.000 C 
BRANCH  14  15
HETATM   15  C   UNL     1     -23.463 -11.053  -1.183  1.00  0.00    -0.000 C 
BRANCH  15  16
HETATM   16  C   UNL     1     -23.036 -10.779  -2.687  1.00  0.00    -0.005 C 
HETATM   17  C   UNL     1     -21.710 -11.329  -3.197  1.00  0.00     0.005 C 
ENDBRANCH  15  16
ENDBRANCH  14  15
ENDBRANCH  13  14
ENDBRANCH  12  13
ENDBRANCH  11  12
ENDBRANCH  10  11
ENDBRANCH   9  10
ENDBRANCH   8   9
ENDBRANCH   7   8
BRANCH   7  18
HETATM   18  C   UNL     1     -20.294  -6.284  -6.399  1.00  0.00     0.007 C 
BRANCH  18  19
HETATM   19  C   UNL     1     -20.601  -4.862  -6.899  1.00  0.00     0.000 C 
BRANCH  19  20
HETATM   20  C   UNL     1     -21.054  -4.765  -8.371  1.00  0.00     0.000 C 
BRANCH  20  21
HETATM   21  C   UNL     1     -20.062  -4.075  -9.320  1.00  0.00     0.000 C 
BRANCH  21  22
HETATM   22  C   UNL     1     -20.382  -4.382 -10.795  1.00  0.00     0.000 C 
BRANCH  22  23
HETATM   23  C   UNL     1     -21.876  -4.316 -11.147  1.00  0.00    -0.000 C 
BRANCH  23  24
HETATM   24  C   UNL     1     -22.241  -3.130 -12.041  1.00  0.00    -0.005 C 
HETATM   25  C   UNL     1     -23.740  -2.868 -12.061  1.00  0.00     0.005 C 
ENDBRANCH  23  24
ENDBRANCH  22  23
ENDBRANCH  21  22
ENDBRANCH  20  21
ENDBRANCH  19  20
ENDBRANCH  18  19
ENDBRANCH   7  18
ENDBRANCH   6   7
ENDBRANCH   5   6
ENDBRANCH   3   5
ENDBRANCH   2   3
ENDBRANCH   1   2
BRANCH   1  26
HETATM   26  C   UNL     1     -17.398 -11.816  -4.373  1.00  0.00     0.160 C 
BRANCH  26  27
HETATM   27  C   UNL     1     -16.117 -11.664  -3.588  1.00  0.00     0.262 C 
HETATM   28  O   UNL     1     -15.794 -10.665  -2.962  1.00  0.00    -0.265 OA
BRANCH  27  29
HETATM   29  O   UNL     1     -15.310 -12.744  -3.801  1.00  0.00    -0.321 OA
BRANCH  29  30
HETATM   30  C   UNL     1     -14.667 -13.203  -2.613  1.00  0.00     0.183 C 
BRANCH  30  31
HETATM   31  C   UNL     1     -15.631 -13.715  -1.540  1.00  0.00     0.010 C 
BRANCH  31  32
HETATM   32  C   UNL     1     -15.658 -15.256  -1.529  1.00  0.00     0.007 C 
BRANCH  32  33
HETATM   33  C   UNL     1     -17.077 -15.807  -1.418  1.00  0.00     0.000 C 
BRANCH  33  34
HETATM   34  C   UNL     1     -17.334 -16.458  -0.070  1.00  0.00     0.000 C 
BRANCH  34  35
HETATM   35  C   UNL     1     -18.523 -15.772   0.596  1.00  0.00     0.000 C 
BRANCH  35  36
HETATM   36  C   UNL     1     -18.335 -15.710   2.103  1.00  0.00     0.000 C 
BRANCH  36  37
HETATM   37  C   UNL     1     -16.920 -16.132   2.480  1.00  0.00    -0.000 C 
BRANCH  37  38
HETATM   38  C   UNL     1     -16.102 -14.924   2.921  1.00  0.00    -0.005 C 
HETATM   39  C   UNL     1     -14.617 -15.156   2.714  1.00  0.00     0.005 C 
ENDBRANCH  37  38
ENDBRANCH  36  37
ENDBRANCH  35  36
ENDBRANCH  34  35
ENDBRANCH  33  34
ENDBRANCH  32  33
ENDBRANCH  31  32
BRANCH  31  40
HETATM   40  C   UNL     1     -15.225 -13.114  -0.169  1.00  0.00     0.007 C 
BRANCH  40  41
HETATM   41  C   UNL     1     -16.143 -11.944   0.200  1.00  0.00     0.000 C 
BRANCH  41  42
HETATM   42  C   UNL     1     -17.566 -12.352   0.563  1.00  0.00     0.000 C 
BRANCH  42  43
HETATM   43  C   UNL     1     -18.558 -11.931  -0.579  1.00  0.00     0.000 C 
BRANCH  43  44
HETATM   44  C   UNL     1     -19.887 -12.720  -0.502  1.00  0.00     0.000 C 
BRANCH  44  45
HETATM   45  C   UNL     1     -20.784 -12.714   0.805  1.00  0.00     0.000 C 
BRANCH  45  46
HETATM   46  C   UNL     1     -21.890 -13.830   0.882  1.00  0.00     0.000 C 
BRANCH  46  47
HETATM   47  C   UNL     1     -23.235 -13.503   1.562  1.00  0.00    -0.000 C 
BRANCH  47  48
HETATM   48  C   UNL     1     -23.582 -14.532   2.670  1.00  0.00    -0.005 C 
HETATM   49  C   UNL     1     -22.357 -14.928   3.487  1.00  0.00     0.005 C 
ENDBRANCH  47  48
ENDBRANCH  46  47
ENDBRANCH  45  46
ENDBRANCH  44  45
ENDBRANCH  43  44
ENDBRANCH  42  43
ENDBRANCH  41  42
ENDBRANCH  40  41
ENDBRANCH  31  40
ENDBRANCH  30  31
ENDBRANCH  29  30
ENDBRANCH  27  29
ENDBRANCH  26  27
ENDBRANCH   1  26
BRANCH   1  50
HETATM   50  C   UNL     1     -18.520 -11.742  -6.658  1.00  0.00     0.294 C 
HETATM   51  O   UNL     1     -18.577 -11.558  -7.874  1.00  0.00    -0.262 OA
BRANCH  50  52
HETATM   52  O   UNL     1     -19.382 -12.574  -5.979  1.00  0.00    -0.319 OA
BRANCH  52  53
HETATM   53  C   UNL     1     -20.729 -12.669  -6.493  1.00  0.00     0.183 C 
BRANCH  53  54
HETATM   54  C   UNL     1     -21.090 -14.043  -7.121  1.00  0.00     0.010 C 
BRANCH  54  55
HETATM   55  C   UNL     1     -19.916 -15.050  -7.044  1.00  0.00     0.007 C 
BRANCH  55  56
HETATM   56  C   UNL     1     -18.975 -15.099  -8.271  1.00  0.00     0.000 C 
BRANCH  56  57
HETATM   57  C   UNL     1     -18.611 -16.493  -8.826  1.00  0.00     0.000 C 
BRANCH  57  58
HETATM   58  C   UNL     1     -17.108 -16.781  -8.748  1.00  0.00     0.000 C 
BRANCH  58  59
HETATM   59  C   UNL     1     -16.560 -17.173  -7.365  1.00  0.00     0.000 C 
BRANCH  59  60
HETATM   60  C   UNL     1     -15.336 -16.383  -6.880  1.00  0.00    -0.000 C 
BRANCH  60  61
HETATM   61  C   UNL     1     -15.503 -15.973  -5.406  1.00  0.00    -0.005 C 
HETATM   62  C   UNL     1     -16.911 -15.495  -5.079  1.00  0.00     0.005 C 
ENDBRANCH  60  61
ENDBRANCH  59  60
ENDBRANCH  58  59
ENDBRANCH  57  58
ENDBRANCH  56  57
ENDBRANCH  55  56
ENDBRANCH  54  55
BRANCH  54  63
HETATM   63  C   UNL     1     -22.330 -14.636  -6.407  1.00  0.00     0.007 C 
BRANCH  63  64
HETATM   64  C   UNL     1     -22.314 -16.158  -6.300  1.00  0.00     0.000 C 
BRANCH  64  65
HETATM   65  C   UNL     1     -23.545 -16.662  -5.551  1.00  0.00     0.000 C 
BRANCH  65  66
HETATM   66  C   UNL     1     -24.172 -15.525  -4.755  1.00  0.00     0.000 C 
BRANCH  66  67
HETATM   67  C   UNL     1     -24.642 -16.006  -3.389  1.00  0.00     0.000 C 
BRANCH  67  68
HETATM   68  C   UNL     1     -24.105 -15.091  -2.294  1.00  0.00     0.000 C 
BRANCH  68  69
HETATM   69  C   UNL     1     -22.615 -14.836  -2.485  1.00  0.00     0.000 C 
BRANCH  69  70
HETATM   70  C   UNL     1     -21.801 -16.054  -2.063  1.00  0.00    -0.000 C 
BRANCH  70  71
HETATM   71  C   UNL     1     -20.473 -16.110  -2.810  1.00  0.00    -0.005 C 
HETATM   72  C   UNL     1     -20.107 -14.749  -3.373  1.00  0.00     0.005 C 
ENDBRANCH  70  71
ENDBRANCH  69  70
ENDBRANCH  68  69
ENDBRANCH  67  68
ENDBRANCH  66  67
ENDBRANCH  65  66
ENDBRANCH  64  65
ENDBRANCH  63  64
ENDBRANCH  54  63
ENDBRANCH  53  54
ENDBRANCH  52  53
ENDBRANCH  50  52
ENDBRANCH   1  50
BRANCH   1  73
HETATM   73  O   UNL     1     -16.165 -11.409  -6.400  1.00  0.00    -0.379 OA
HETATM   74  H   UNL     1     -15.517 -10.730  -6.115  1.00  0.00     0.211 HD
ENDBRANCH   1  73
TORSDOF 63
ENDMDL
MODEL 7
REMARK VINA RESULT:      -5.1      1.832     10.400
REMARK WARNING: 32 MAX_TORS EXCEEDED!!!
REMARK  63 active torsions:
REMARK  status: ('A' for Active; 'I' for Inactive)
REMARK    1  A    between atoms: C_2  and  C_3 
REMARK    2  A    between atoms: C_3  and  C_4 
REMARK    3  A    between atoms: C_4  and  C_5 
REMARK    4  A    between atoms: C_5  and  C_6 
REMARK    5  A    between atoms: C_6  and  C_7 
REMARK    6  A    between atoms: C_7  and  C_8 
REMARK    7  A    between atoms: C_8  and  C_9 
REMARK    8  A    between atoms: C_9  and  C_10 
REMARK    9  A    between atoms: C_10  and  C_11 
REMARK   10  A    between atoms: C_11  and  C_12 
REMARK   11  A    between atoms: C_11  and  C_20 
REMARK   12  A    between atoms: C_12  and  C_13 
REMARK   13  A    between atoms: C_13  and  C_14 
REMARK   14  A    between atoms: C_14  and  C_15 
REMARK   15  A    between atoms: C_15  and  C_16 
REMARK   16  A    between atoms: C_16  and  C_17 
REMARK   17  A    between atoms: C_17  and  C_18 
REMARK   18  A    between atoms: C_20  and  O_21 
REMARK   19  A    between atoms: O_21  and  C_22 
REMARK   20  A    between atoms: C_22  and  C_24 
REMARK   21  A    between atoms: C_24  and  C_25 
REMARK   22  A    between atoms: C_25  and  C_26 
REMARK   23  A    between atoms: C_25  and  C_50 
REMARK   24  A    between atoms: C_25  and  O_73 
REMARK   25  A    between atoms: C_26  and  C_27 
REMARK   26  A    between atoms: C_27  and  O_29 
REMARK   27  A    between atoms: O_29  and  C_30 
REMARK   28  A    between atoms: C_30  and  C_31 
REMARK   29  A    between atoms: C_31  and  C_32 
REMARK   30  A    between atoms: C_31  and  C_40 
REMARK   31  A    between atoms: C_32  and  C_33 
REMARK   32  A    between atoms: C_33  and  C_34 
REMARK   33  A    between atoms: C_34  and  C_35 
REMARK   34  A    between atoms: C_35  and  C_36 
REMARK   35  A    between atoms: C_36  and  C_37 
REMARK   36  A    between atoms: C_37  and  C_38 
REMARK   37  A    between atoms: C_40  and  C_41 
REMARK   38  A    between atoms: C_41  and  C_42 
REMARK   39  A    between atoms: C_42  and  C_43 
REMARK   40  A    between atoms: C_43  and  C_44 
REMARK   41  A    between atoms: C_44  and  C_45 
REMARK   42  A    between atoms: C_45  and  C_46 
REMARK   43  A    between atoms: C_46  and  C_47 
REMARK   44  A    between atoms: C_47  and  C_48 
REMARK   45  A    between atoms: C_50  and  O_52 
REMARK   46  A    between atoms: O_52  and  C_53 
REMARK   47  A    between atoms: C_53  and  C_54 
REMARK   48  A    between atoms: C_54  and  C_55 
REMARK   49  A    between atoms: C_54  and  C_63 
REMARK   50  A    between atoms: C_55  and  C_56 
REMARK   51  A    between atoms: C_56  and  C_57 
REMARK   52  A    between atoms: C_57  and  C_58 
REMARK   53  A    between atoms: C_58  and  C_59 
REMARK   54  A    between atoms: C_59  and  C_60 
REMARK   55  A    between atoms: C_60  and  C_61 
REMARK   56  A    between atoms: C_63  and  C_64 
REMARK   57  A    between atoms: C_64  and  C_65 
REMARK   58  A    between atoms: C_65  and  C_66 
REMARK   59  A    between atoms: C_66  and  C_67 
REMARK   60  A    between atoms: C_67  and  C_68 
REMARK   61  A    between atoms: C_68  and  C_69 
REMARK   62  A    between atoms: C_69  and  C_70 
REMARK   63  A    between atoms: C_70  and  C_71 
ROOT
HETATM    1  C   UNL     1     -18.027 -10.566  -5.498  1.00  0.00     0.162 C 
ENDROOT
BRANCH   1   2
HETATM    2  C   UNL     1     -18.429  -9.070  -5.609  1.00  0.00     0.160 C 
BRANCH   2   3
HETATM    3  C   UNL     1     -19.715  -8.756  -4.849  1.00  0.00     0.262 C 
HETATM    4  O   UNL     1     -19.707  -8.566  -3.618  1.00  0.00    -0.265 OA
BRANCH   3   5
HETATM    5  O   UNL     1     -20.800  -8.694  -5.627  1.00  0.00    -0.321 OA
BRANCH   5   6
HETATM    6  C   UNL     1     -21.845  -7.716  -5.273  1.00  0.00     0.183 C 
BRANCH   6   7
HETATM    7  C   UNL     1     -21.592  -6.299  -5.842  1.00  0.00     0.010 C 
BRANCH   7   8
HETATM    8  C   UNL     1     -22.893  -5.645  -6.362  1.00  0.00     0.007 C 
BRANCH   8   9
HETATM    9  C   UNL     1     -22.699  -4.324  -7.126  1.00  0.00     0.000 C 
BRANCH   9  10
HETATM   10  C   UNL     1     -23.634  -4.210  -8.337  1.00  0.00     0.000 C 
BRANCH  10  11
HETATM   11  C   UNL     1     -23.238  -5.139  -9.493  1.00  0.00     0.000 C 
BRANCH  11  12
HETATM   12  C   UNL     1     -24.058  -4.823 -10.752  1.00  0.00     0.000 C 
BRANCH  12  13
HETATM   13  C   UNL     1     -24.428  -3.316 -10.924  1.00  0.00     0.000 C 
BRANCH  13  14
HETATM   14  C   UNL     1     -24.448  -2.932 -12.422  1.00  0.00     0.000 C 
BRANCH  14  15
HETATM   15  C   UNL     1     -23.477  -3.571 -13.473  1.00  0.00    -0.000 C 
BRANCH  15  16
HETATM   16  C   UNL     1     -22.995  -2.658 -14.678  1.00  0.00    -0.005 C 
HETATM   17  C   UNL     1     -23.642  -1.294 -14.885  1.00  0.00     0.005 C 
ENDBRANCH  15  16
ENDBRANCH  14  15
ENDBRANCH  13  14
ENDBRANCH  12  13
ENDBRANCH  11  12
ENDBRANCH  10  11
ENDBRANCH   9  10
ENDBRANCH   8   9
ENDBRANCH   7   8
BRANCH   7  18
HETATM   18  C   UNL     1     -20.800  -5.365  -4.868  1.00  0.00     0.007 C 
BRANCH  18  19
HETATM   19  C   UNL     1     -19.648  -4.560  -5.492  1.00  0.00     0.000 C 
BRANCH  19  20
HETATM   20  C   UNL     1     -19.073  -5.140  -6.802  1.00  0.00     0.000 C 
BRANCH  20  21
HETATM   21  C   UNL     1     -18.813  -4.114  -7.916  1.00  0.00     0.000 C 
BRANCH  21  22
HETATM   22  C   UNL     1     -19.992  -4.041  -8.904  1.00  0.00     0.000 C 
BRANCH  22  23
HETATM   23  C   UNL     1     -19.769  -4.806 -10.218  1.00  0.00    -0.000 C 
BRANCH  23  24
HETATM   24  C   UNL     1     -20.557  -4.235 -11.398  1.00  0.00    -0.005 C 
HETATM   25  C   UNL     1     -20.754  -2.731 -11.281  1.00  0.00     0.005 C 
ENDBRANCH  23  24
ENDBRANCH  22  23
ENDBRANCH  21  22
ENDBRANCH  20  21
ENDBRANCH  19  20
ENDBRANCH  18  19
ENDBRANCH   7  18
ENDBRANCH   6   7
ENDBRANCH   5   6
ENDBRANCH   3   5
ENDBRANCH   2   3
ENDBRANCH   1   2
BRANCH   1  26
HETATM   26  C   UNL     1     -18.219 -11.108  -4.076  1.00  0.00     0.160 C 
BRANCH  26  27
HETATM   27  C   UNL     1     -16.993 -11.071  -3.197  1.00  0.00     0.262 C 
HETATM   28  O   UNL     1     -16.486 -10.054  -2.745  1.00  0.00    -0.265 OA
BRANCH  27  29
HETATM   29  O   UNL     1     -16.449 -12.320  -3.104  1.00  0.00    -0.321 OA
BRANCH  29  30
HETATM   30  C   UNL     1     -15.332 -12.378  -2.219  1.00  0.00     0.183 C 
BRANCH  30  31
HETATM   31  C   UNL     1     -15.640 -13.032  -0.869  1.00  0.00     0.010 C 
BRANCH  31  32
HETATM   32  C   UNL     1     -14.487 -13.962  -0.443  1.00  0.00     0.007 C 
BRANCH  32  33
HETATM   33  C   UNL     1     -14.571 -14.345   1.031  1.00  0.00     0.000 C 
BRANCH  33  34
HETATM   34  C   UNL     1     -13.302 -15.022   1.520  1.00  0.00     0.000 C 
BRANCH  34  35
HETATM   35  C   UNL     1     -12.097 -14.188   1.094  1.00  0.00     0.000 C 
BRANCH  35  36
HETATM   36  C   UNL     1     -10.944 -15.084   0.671  1.00  0.00     0.000 C 
BRANCH  36  37
HETATM   37  C   UNL     1     -10.277 -15.707   1.892  1.00  0.00    -0.000 C 
BRANCH  37  38
HETATM   38  C   UNL     1      -9.175 -14.796   2.419  1.00  0.00    -0.005 C 
HETATM   39  C   UNL     1      -8.290 -14.292   1.295  1.00  0.00     0.005 C 
ENDBRANCH  37  38
ENDBRANCH  36  37
ENDBRANCH  35  36
ENDBRANCH  34  35
ENDBRANCH  33  34
ENDBRANCH  32  33
ENDBRANCH  31  32
BRANCH  31  40
HETATM   40  C   UNL     1     -15.928 -11.921   0.175  1.00  0.00     0.007 C 
BRANCH  40  41
HETATM   41  C   UNL     1     -17.415 -11.902   0.547  1.00  0.00     0.000 C 
BRANCH  41  42
HETATM   42  C   UNL     1     -18.214 -13.079  -0.001  1.00  0.00     0.000 C 
BRANCH  42  43
HETATM   43  C   UNL     1     -19.478 -12.562  -0.776  1.00  0.00     0.000 C 
BRANCH  43  44
HETATM   44  C   UNL     1     -19.789 -11.085  -0.441  1.00  0.00     0.000 C 
BRANCH  44  45
HETATM   45  C   UNL     1     -20.590 -10.679   0.865  1.00  0.00     0.000 C 
BRANCH  45  46
HETATM   46  C   UNL     1     -21.205  -9.231   0.869  1.00  0.00     0.000 C 
BRANCH  46  47
HETATM   47  C   UNL     1     -21.194  -8.411  -0.437  1.00  0.00    -0.000 C 
BRANCH  47  48
HETATM   48  C   UNL     1     -22.324  -7.348  -0.456  1.00  0.00    -0.005 C 
HETATM   49  C   UNL     1     -22.244  -6.447  -1.683  1.00  0.00     0.005 C 
ENDBRANCH  47  48
ENDBRANCH  46  47
ENDBRANCH  45  46
ENDBRANCH  44  45
ENDBRANCH  43  44
ENDBRANCH  42  43
ENDBRANCH  41  42
ENDBRANCH  40  41
ENDBRANCH  31  40
ENDBRANCH  30  31
ENDBRANCH  29  30
ENDBRANCH  27  29
ENDBRANCH  26  27
ENDBRANCH   1  26
BRANCH   1  50
HETATM   50  C   UNL     1     -18.805 -11.437  -6.533  1.00  0.00     0.294 C 
HETATM   51  O   UNL     1     -18.537 -11.471  -7.733  1.00  0.00    -0.262 OA
BRANCH  50  52
HETATM   52  O   UNL     1     -19.777 -12.224  -5.954  1.00  0.00    -0.319 OA
BRANCH  52  53
HETATM   53  C   UNL     1     -21.121 -12.067  -6.459  1.00  0.00     0.183 C 
BRANCH  53  54
HETATM   54  C   UNL     1     -22.238 -12.224  -5.391  1.00  0.00     0.010 C 
BRANCH  54  55
HETATM   55  C   UNL     1     -23.293 -13.282  -5.796  1.00  0.00     0.007 C 
BRANCH  55  56
HETATM   56  C   UNL     1     -22.844 -14.761  -5.716  1.00  0.00     0.000 C 
BRANCH  56  57
HETATM   57  C   UNL     1     -22.515 -15.472  -7.047  1.00  0.00     0.000 C 
BRANCH  57  58
HETATM   58  C   UNL     1     -21.788 -16.804  -6.836  1.00  0.00     0.000 C 
BRANCH  58  59
HETATM   59  C   UNL     1     -20.258 -16.778  -6.990  1.00  0.00     0.000 C 
BRANCH  59  60
HETATM   60  C   UNL     1     -19.626 -15.391  -7.178  1.00  0.00    -0.000 C 
BRANCH  60  61
HETATM   61  C   UNL     1     -18.374 -15.481  -8.069  1.00  0.00    -0.005 C 
HETATM   62  C   UNL     1     -18.484 -14.639  -9.333  1.00  0.00     0.005 C 
ENDBRANCH  60  61
ENDBRANCH  59  60
ENDBRANCH  58  59
ENDBRANCH  57  58
ENDBRANCH  56  57
ENDBRANCH  55  56
ENDBRANCH  54  55
BRANCH  54  63
HETATM   63  C   UNL     1     -21.610 -12.613  -4.029  1.00  0.00     0.007 C 
BRANCH  63  64
HETATM   64  C   UNL     1     -22.594 -12.583  -2.863  1.00  0.00     0.000 C 
BRANCH  64  65
HETATM   65  C   UNL     1     -22.909 -11.146  -2.456  1.00  0.00     0.000 C 
BRANCH  65  66
HETATM   66  C   UNL     1     -23.823 -11.138  -1.237  1.00  0.00     0.000 C 
BRANCH  66  67
HETATM   67  C   UNL     1     -23.893 -12.516  -0.595  1.00  0.00     0.000 C 
BRANCH  67  68
HETATM   68  C   UNL     1     -23.471 -12.438   0.868  1.00  0.00     0.000 C 
BRANCH  68  69
HETATM   69  C   UNL     1     -22.718 -13.697   1.281  1.00  0.00     0.000 C 
BRANCH  69  70
HETATM   70  C   UNL     1     -23.422 -14.389   2.444  1.00  0.00    -0.000 C 
BRANCH  70  71
HETATM   71  C   UNL     1     -22.419 -14.825   3.507  1.00  0.00    -0.005 C 
HETATM   72  C   UNL     1     -21.345 -15.717   2.911  1.00  0.00     0.005 C 
ENDBRANCH  70  71
ENDBRANCH  69  70
ENDBRANCH  68  69
ENDBRANCH  67  68
ENDBRANCH  66  67
ENDBRANCH  65  66
ENDBRANCH  64  65
ENDBRANCH  63  64
ENDBRANCH  54  63
ENDBRANCH  53  54
ENDBRANCH  52  53
ENDBRANCH  50  52
ENDBRANCH   1  50
BRANCH   1  73
HETATM   73  O   UNL     1     -16.634 -10.708  -5.843  1.00  0.00    -0.379 OA
HETATM   74  H   UNL     1     -16.302  -9.827  -6.118  1.00  0.00     0.211 HD
ENDBRANCH   1  73
TORSDOF 63
ENDMDL
MODEL 8
REMARK VINA RESULT:      -5.0      1.931      4.677
REMARK WARNING: 32 MAX_TORS EXCEEDED!!!
REMARK  63 active torsions:
REMARK  status: ('A' for Active; 'I' for Inactive)
REMARK    1  A    between atoms: C_2  and  C_3 
REMARK    2  A    between atoms: C_3  and  C_4 
REMARK    3  A    between atoms: C_4  and  C_5 
REMARK    4  A    between atoms: C_5  and  C_6 
REMARK    5  A    between atoms: C_6  and  C_7 
REMARK    6  A    between atoms: C_7  and  C_8 
REMARK    7  A    between atoms: C_8  and  C_9 
REMARK    8  A    between atoms: C_9  and  C_10 
REMARK    9  A    between atoms: C_10  and  C_11 
REMARK   10  A    between atoms: C_11  and  C_12 
REMARK   11  A    between atoms: C_11  and  C_20 
REMARK   12  A    between atoms: C_12  and  C_13 
REMARK   13  A    between atoms: C_13  and  C_14 
REMARK   14  A    between atoms: C_14  and  C_15 
REMARK   15  A    between atoms: C_15  and  C_16 
REMARK   16  A    between atoms: C_16  and  C_17 
REMARK   17  A    between atoms: C_17  and  C_18 
REMARK   18  A    between atoms: C_20  and  O_21 
REMARK   19  A    between atoms: O_21  and  C_22 
REMARK   20  A    between atoms: C_22  and  C_24 
REMARK   21  A    between atoms: C_24  and  C_25 
REMARK   22  A    between atoms: C_25  and  C_26 
REMARK   23  A    between atoms: C_25  and  C_50 
REMARK   24  A    between atoms: C_25  and  O_73 
REMARK   25  A    between atoms: C_26  and  C_27 
REMARK   26  A    between atoms: C_27  and  O_29 
REMARK   27  A    between atoms: O_29  and  C_30 
REMARK   28  A    between atoms: C_30  and  C_31 
REMARK   29  A    between atoms: C_31  and  C_32 
REMARK   30  A    between atoms: C_31  and  C_40 
REMARK   31  A    between atoms: C_32  and  C_33 
REMARK   32  A    between atoms: C_33  and  C_34 
REMARK   33  A    between atoms: C_34  and  C_35 
REMARK   34  A    between atoms: C_35  and  C_36 
REMARK   35  A    between atoms: C_36  and  C_37 
REMARK   36  A    between atoms: C_37  and  C_38 
REMARK   37  A    between atoms: C_40  and  C_41 
REMARK   38  A    between atoms: C_41  and  C_42 
REMARK   39  A    between atoms: C_42  and  C_43 
REMARK   40  A    between atoms: C_43  and  C_44 
REMARK   41  A    between atoms: C_44  and  C_45 
REMARK   42  A    between atoms: C_45  and  C_46 
REMARK   43  A    between atoms: C_46  and  C_47 
REMARK   44  A    between atoms: C_47  and  C_48 
REMARK   45  A    between atoms: C_50  and  O_52 
REMARK   46  A    between atoms: O_52  and  C_53 
REMARK   47  A    between atoms: C_53  and  C_54 
REMARK   48  A    between atoms: C_54  and  C_55 
REMARK   49  A    between atoms: C_54  and  C_63 
REMARK   50  A    between atoms: C_55  and  C_56 
REMARK   51  A    between atoms: C_56  and  C_57 
REMARK   52  A    between atoms: C_57  and  C_58 
REMARK   53  A    between atoms: C_58  and  C_59 
REMARK   54  A    between atoms: C_59  and  C_60 
REMARK   55  A    between atoms: C_60  and  C_61 
REMARK   56  A    between atoms: C_63  and  C_64 
REMARK   57  A    between atoms: C_64  and  C_65 
REMARK   58  A    between atoms: C_65  and  C_66 
REMARK   59  A    between atoms: C_66  and  C_67 
REMARK   60  A    between atoms: C_67  and  C_68 
REMARK   61  A    between atoms: C_68  and  C_69 
REMARK   62  A    between atoms: C_69  and  C_70 
REMARK   63  A    between atoms: C_70  and  C_71 
ROOT
HETATM    1  C   UNL     1     -18.260 -11.795  -1.935  1.00  0.00     0.162 C 
ENDROOT
BRANCH   1   2
HETATM    2  C   UNL     1     -19.427 -12.806  -2.109  1.00  0.00     0.160 C 
BRANCH   2   3
HETATM    3  C   UNL     1     -20.127 -12.657  -3.456  1.00  0.00     0.262 C 
HETATM    4  O   UNL     1     -21.297 -12.236  -3.533  1.00  0.00    -0.265 OA
BRANCH   3   5
HETATM    5  O   UNL     1     -19.366 -12.998  -4.501  1.00  0.00    -0.321 OA
BRANCH   5   6
HETATM    6  C   UNL     1     -19.463 -12.174  -5.721  1.00  0.00     0.183 C 
BRANCH   6   7
HETATM    7  C   UNL     1     -18.279 -12.366  -6.699  1.00  0.00     0.010 C 
BRANCH   7   8
HETATM    8  C   UNL     1     -18.728 -12.266  -8.175  1.00  0.00     0.007 C 
BRANCH   8   9
HETATM    9  C   UNL     1     -19.155 -13.597  -8.819  1.00  0.00     0.000 C 
BRANCH   9  10
HETATM   10  C   UNL     1     -18.003 -14.274  -9.570  1.00  0.00     0.000 C 
BRANCH  10  11
HETATM   11  C   UNL     1     -18.301 -15.735  -9.939  1.00  0.00     0.000 C 
BRANCH  11  12
HETATM   12  C   UNL     1     -18.118 -16.652  -8.721  1.00  0.00     0.000 C 
BRANCH  12  13
HETATM   13  C   UNL     1     -16.831 -16.370  -7.883  1.00  0.00     0.000 C 
BRANCH  13  14
HETATM   14  C   UNL     1     -17.205 -15.983  -6.433  1.00  0.00     0.000 C 
BRANCH  14  15
HETATM   15  C   UNL     1     -16.132 -15.686  -5.332  1.00  0.00    -0.000 C 
BRANCH  15  16
HETATM   16  C   UNL     1     -16.636 -15.060  -3.964  1.00  0.00    -0.005 C 
HETATM   17  C   UNL     1     -17.481 -15.910  -3.022  1.00  0.00     0.005 C 
ENDBRANCH  15  16
ENDBRANCH  14  15
ENDBRANCH  13  14
ENDBRANCH  12  13
ENDBRANCH  11  12
ENDBRANCH  10  11
ENDBRANCH   9  10
ENDBRANCH   8   9
ENDBRANCH   7   8
BRANCH   7  18
HETATM   18  C   UNL     1     -17.051 -11.449  -6.383  1.00  0.00     0.007 C 
BRANCH  18  19
HETATM   19  C   UNL     1     -15.671 -12.127  -6.435  1.00  0.00     0.000 C 
BRANCH  19  20
HETATM   20  C   UNL     1     -14.683 -11.697  -5.330  1.00  0.00     0.000 C 
BRANCH  20  21
HETATM   21  C   UNL     1     -13.692 -12.780  -4.877  1.00  0.00     0.000 C 
BRANCH  21  22
HETATM   22  C   UNL     1     -13.643 -12.896  -3.342  1.00  0.00     0.000 C 
BRANCH  22  23
HETATM   23  C   UNL     1     -12.679 -13.971  -2.816  1.00  0.00    -0.000 C 
BRANCH  23  24
HETATM   24  C   UNL     1     -13.241 -15.391  -2.906  1.00  0.00    -0.005 C 
HETATM   25  C   UNL     1     -12.626 -16.179  -4.053  1.00  0.00     0.005 C 
ENDBRANCH  23  24
ENDBRANCH  22  23
ENDBRANCH  21  22
ENDBRANCH  20  21
ENDBRANCH  19  20
ENDBRANCH  18  19
ENDBRANCH   7  18
ENDBRANCH   6   7
ENDBRANCH   5   6
ENDBRANCH   3   5
ENDBRANCH   2   3
ENDBRANCH   1   2
BRANCH   1  26
HETATM   26  C   UNL     1     -18.716 -10.348  -2.164  1.00  0.00     0.160 C 
BRANCH  26  27
HETATM   27  C   UNL     1     -17.894  -9.559  -3.154  1.00  0.00     0.262 C 
HETATM   28  O   UNL     1     -16.710  -9.284  -3.020  1.00  0.00    -0.265 OA
BRANCH  27  29
HETATM   29  O   UNL     1     -18.700  -9.072  -4.144  1.00  0.00    -0.321 OA
BRANCH  29  30
HETATM   30  C   UNL     1     -20.033  -8.818  -3.703  1.00  0.00     0.183 C 
BRANCH  30  31
HETATM   31  C   UNL     1     -20.519  -7.393  -3.981  1.00  0.00     0.010 C 
BRANCH  31  32
HETATM   32  C   UNL     1     -20.932  -7.242  -5.459  1.00  0.00     0.007 C 
BRANCH  32  33
HETATM   33  C   UNL     1     -21.552  -5.877  -5.747  1.00  0.00     0.000 C 
BRANCH  33  34
HETATM   34  C   UNL     1     -20.500  -4.796  -5.918  1.00  0.00     0.000 C 
BRANCH  34  35
HETATM   35  C   UNL     1     -20.876  -3.919  -7.109  1.00  0.00     0.000 C 
BRANCH  35  36
HETATM   36  C   UNL     1     -22.239  -4.311  -7.657  1.00  0.00     0.000 C 
BRANCH  36  37
HETATM   37  C   UNL     1     -22.466  -3.677  -9.024  1.00  0.00    -0.000 C 
BRANCH  37  38
HETATM   38  C   UNL     1     -21.604  -4.361 -10.079  1.00  0.00    -0.005 C 
HETATM   39  C   UNL     1     -21.202  -3.394 -11.176  1.00  0.00     0.005 C 
ENDBRANCH  37  38
ENDBRANCH  36  37
ENDBRANCH  35  36
ENDBRANCH  34  35
ENDBRANCH  33  34
ENDBRANCH  32  33
ENDBRANCH  31  32
BRANCH  31  40
HETATM   40  C   UNL     1     -21.672  -7.053  -3.000  1.00  0.00     0.007 C 
BRANCH  40  41
HETATM   41  C   UNL     1     -21.246  -7.323  -1.553  1.00  0.00     0.000 C 
BRANCH  41  42
HETATM   42  C   UNL     1     -22.402  -7.384  -0.560  1.00  0.00     0.000 C 
BRANCH  42  43
HETATM   43  C   UNL     1     -21.954  -8.131   0.747  1.00  0.00     0.000 C 
BRANCH  43  44
HETATM   44  C   UNL     1     -21.351  -9.520   0.432  1.00  0.00     0.000 C 
BRANCH  44  45
HETATM   45  C   UNL     1     -22.037 -10.512  -0.596  1.00  0.00     0.000 C 
BRANCH  45  46
HETATM   46  C   UNL     1     -23.484 -11.000  -0.217  1.00  0.00     0.000 C 
BRANCH  46  47
HETATM   47  C   UNL     1     -24.011 -12.317  -0.823  1.00  0.00    -0.000 C 
BRANCH  47  48
HETATM   48  C   UNL     1     -23.411 -13.556  -0.108  1.00  0.00    -0.005 C 
HETATM   49  C   UNL     1     -23.222 -13.320   1.387  1.00  0.00     0.005 C 
ENDBRANCH  47  48
ENDBRANCH  46  47
ENDBRANCH  45  46
ENDBRANCH  44  45
ENDBRANCH  43  44
ENDBRANCH  42  43
ENDBRANCH  41  42
ENDBRANCH  40  41
ENDBRANCH  31  40
ENDBRANCH  30  31
ENDBRANCH  29  30
ENDBRANCH  27  29
ENDBRANCH  26  27
ENDBRANCH   1  26
BRANCH   1  50
HETATM   50  C   UNL     1     -17.585 -11.948  -0.536  1.00  0.00     0.294 C 
HETATM   51  O   UNL     1     -18.194 -11.849   0.529  1.00  0.00    -0.262 OA
BRANCH  50  52
HETATM   52  O   UNL     1     -16.250 -12.278  -0.614  1.00  0.00    -0.319 OA
BRANCH  52  53
HETATM   53  C   UNL     1     -15.919 -13.675  -0.461  1.00  0.00     0.183 C 
BRANCH  53  54
HETATM   54  C   UNL     1     -15.070 -14.008   0.796  1.00  0.00     0.010 C 
BRANCH  54  55
HETATM   55  C   UNL     1     -15.894 -13.910   2.104  1.00  0.00     0.007 C 
BRANCH  55  56
HETATM   56  C   UNL     1     -15.290 -14.608   3.346  1.00  0.00     0.000 C 
BRANCH  56  57
HETATM   57  C   UNL     1     -15.489 -16.135   3.465  1.00  0.00     0.000 C 
BRANCH  57  58
HETATM   58  C   UNL     1     -16.950 -16.518   3.717  1.00  0.00     0.000 C 
BRANCH  58  59
HETATM   59  C   UNL     1     -17.790 -16.859   2.474  1.00  0.00     0.000 C 
BRANCH  59  60
HETATM   60  C   UNL     1     -19.087 -16.056   2.300  1.00  0.00    -0.000 C 
BRANCH  60  61
HETATM   61  C   UNL     1     -19.094 -15.322   0.947  1.00  0.00    -0.005 C 
HETATM   62  C   UNL     1     -20.286 -15.697   0.076  1.00  0.00     0.005 C 
ENDBRANCH  60  61
ENDBRANCH  59  60
ENDBRANCH  58  59
ENDBRANCH  57  58
ENDBRANCH  56  57
ENDBRANCH  55  56
ENDBRANCH  54  55
BRANCH  54  63
HETATM   63  C   UNL     1     -14.474 -15.431   0.664  1.00  0.00     0.007 C 
BRANCH  63  64
HETATM   64  C   UNL     1     -12.948 -15.465   0.650  1.00  0.00     0.000 C 
BRANCH  64  65
HETATM   65  C   UNL     1     -12.373 -14.084   0.952  1.00  0.00     0.000 C 
BRANCH  65  66
HETATM   66  C   UNL     1     -10.919 -14.015   0.503  1.00  0.00     0.000 C 
BRANCH  66  67
HETATM   67  C   UNL     1     -10.115 -13.071   1.386  1.00  0.00     0.000 C 
BRANCH  67  68
HETATM   68  C   UNL     1      -8.974 -13.823   2.062  1.00  0.00     0.000 C 
BRANCH  68  69
HETATM   69  C   UNL     1      -9.135 -13.800   3.577  1.00  0.00     0.000 C 
BRANCH  69  70
HETATM   70  C   UNL     1      -8.950 -15.198   4.159  1.00  0.00    -0.000 C 
BRANCH  70  71
HETATM   71  C   UNL     1      -9.913 -16.190   3.515  1.00  0.00    -0.005 C 
HETATM   72  C   UNL     1     -11.330 -15.977   4.013  1.00  0.00     0.005 C 
ENDBRANCH  70  71
ENDBRANCH  69  70
ENDBRANCH  68  69
ENDBRANCH  67  68
ENDBRANCH  66  67
ENDBRANCH  65  66
ENDBRANCH  64  65
ENDBRANCH  63  64
ENDBRANCH  54  63
ENDBRANCH  53  54
ENDBRANCH  52  53
ENDBRANCH  50  52
ENDBRANCH   1  50
BRANCH   1  73
HETATM   73  O   UNL     1     -17.229 -12.093  -2.897  1.00  0.00    -0.379 OA
HETATM   74  H   UNL     1     -16.902 -13.000  -2.715  1.00  0.00     0.211 HD
ENDBRANCH   1  73
TORSDOF 63
ENDMDL
MODEL 9
REMARK VINA RESULT:      -5.0      1.769      3.879
REMARK WARNING: 32 MAX_TORS EXCEEDED!!!
REMARK  63 active torsions:
REMARK  status: ('A' for Active; 'I' for Inactive)
REMARK    1  A    between atoms: C_2  and  C_3 
REMARK    2  A    between atoms: C_3  and  C_4 
REMARK    3  A    between atoms: C_4  and  C_5 
REMARK    4  A    between atoms: C_5  and  C_6 
REMARK    5  A    between atoms: C_6  and  C_7 
REMARK    6  A    between atoms: C_7  and  C_8 
REMARK    7  A    between atoms: C_8  and  C_9 
REMARK    8  A    between atoms: C_9  and  C_10 
REMARK    9  A    between atoms: C_10  and  C_11 
REMARK   10  A    between atoms: C_11  and  C_12 
REMARK   11  A    between atoms: C_11  and  C_20 
REMARK   12  A    between atoms: C_12  and  C_13 
REMARK   13  A    between atoms: C_13  and  C_14 
REMARK   14  A    between atoms: C_14  and  C_15 
REMARK   15  A    between atoms: C_15  and  C_16 
REMARK   16  A    between atoms: C_16  and  C_17 
REMARK   17  A    between atoms: C_17  and  C_18 
REMARK   18  A    between atoms: C_20  and  O_21 
REMARK   19  A    between atoms: O_21  and  C_22 
REMARK   20  A    between atoms: C_22  and  C_24 
REMARK   21  A    between atoms: C_24  and  C_25 
REMARK   22  A    between atoms: C_25  and  C_26 
REMARK   23  A    between atoms: C_25  and  C_50 
REMARK   24  A    between atoms: C_25  and  O_73 
REMARK   25  A    between atoms: C_26  and  C_27 
REMARK   26  A    between atoms: C_27  and  O_29 
REMARK   27  A    between atoms: O_29  and  C_30 
REMARK   28  A    between atoms: C_30  and  C_31 
REMARK   29  A    between atoms: C_31  and  C_32 
REMARK   30  A    between atoms: C_31  and  C_40 
REMARK   31  A    between atoms: C_32  and  C_33 
REMARK   32  A    between atoms: C_33  and  C_34 
REMARK   33  A    between atoms: C_34  and  C_35 
REMARK   34  A    between atoms: C_35  and  C_36 
REMARK   35  A    between atoms: C_36  and  C_37 
REMARK   36  A    between atoms: C_37  and  C_38 
REMARK   37  A    between atoms: C_40  and  C_41 
REMARK   38  A    between atoms: C_41  and  C_42 
REMARK   39  A    between atoms: C_42  and  C_43 
REMARK   40  A    between atoms: C_43  and  C_44 
REMARK   41  A    between atoms: C_44  and  C_45 
REMARK   42  A    between atoms: C_45  and  C_46 
REMARK   43  A    between atoms: C_46  and  C_47 
REMARK   44  A    between atoms: C_47  and  C_48 
REMARK   45  A    between atoms: C_50  and  O_52 
REMARK   46  A    between atoms: O_52  and  C_53 
REMARK   47  A    between atoms: C_53  and  C_54 
REMARK   48  A    between atoms: C_54  and  C_55 
REMARK   49  A    between atoms: C_54  and  C_63 
REMARK   50  A    between atoms: C_55  and  C_56 
REMARK   51  A    between atoms: C_56  and  C_57 
REMARK   52  A    between atoms: C_57  and  C_58 
REMARK   53  A    between atoms: C_58  and  C_59 
REMARK   54  A    between atoms: C_59  and  C_60 
REMARK   55  A    between atoms: C_60  and  C_61 
REMARK   56  A    between atoms: C_63  and  C_64 
REMARK   57  A    between atoms: C_64  and  C_65 
REMARK   58  A    between atoms: C_65  and  C_66 
REMARK   59  A    between atoms: C_66  and  C_67 
REMARK   60  A    between atoms: C_67  and  C_68 
REMARK   61  A    between atoms: C_68  and  C_69 
REMARK   62  A    between atoms: C_69  and  C_70 
REMARK   63  A    between atoms: C_70  and  C_71 
ROOT
HETATM    1  C   UNL     1     -17.423 -10.663  -4.099  1.00  0.00     0.162 C 
ENDROOT
BRANCH   1   2
HETATM    2  C   UNL     1     -17.071 -12.058  -4.684  1.00  0.00     0.160 C 
BRANCH   2   3
HETATM    3  C   UNL     1     -16.712 -11.992  -6.166  1.00  0.00     0.262 C 
HETATM    4  O   UNL     1     -15.541 -12.163  -6.555  1.00  0.00    -0.265 OA
BRANCH   3   5
HETATM    5  O   UNL     1     -17.758 -11.757  -6.965  1.00  0.00    -0.321 OA
BRANCH   5   6
HETATM    6  C   UNL     1     -18.255 -12.870  -7.794  1.00  0.00     0.183 C 
BRANCH   6   7
HETATM    7  C   UNL     1     -19.015 -13.954  -6.993  1.00  0.00     0.010 C 
BRANCH   7   8
HETATM    8  C   UNL     1     -20.548 -13.778  -7.095  1.00  0.00     0.007 C 
BRANCH   8   9
HETATM    9  C   UNL     1     -21.274 -13.589  -5.752  1.00  0.00     0.000 C 
BRANCH   9  10
HETATM   10  C   UNL     1     -22.360 -14.648  -5.524  1.00  0.00     0.000 C 
BRANCH  10  11
HETATM   11  C   UNL     1     -22.791 -15.355  -6.817  1.00  0.00     0.000 C 
BRANCH  11  12
HETATM   12  C   UNL     1     -24.068 -16.176  -6.589  1.00  0.00     0.000 C 
BRANCH  12  13
HETATM   13  C   UNL     1     -25.083 -15.535  -5.590  1.00  0.00     0.000 C 
BRANCH  13  14
HETATM   14  C   UNL     1     -26.469 -15.374  -6.257  1.00  0.00     0.000 C 
BRANCH  14  15
HETATM   15  C   UNL     1     -27.728 -16.188  -5.802  1.00  0.00    -0.000 C 
BRANCH  15  16
HETATM   16  C   UNL     1     -29.117 -15.832  -6.482  1.00  0.00    -0.005 C 
HETATM   17  C   UNL     1     -29.211 -15.775  -8.001  1.00  0.00     0.005 C 
ENDBRANCH  15  16
ENDBRANCH  14  15
ENDBRANCH  13  14
ENDBRANCH  12  13
ENDBRANCH  11  12
ENDBRANCH  10  11
ENDBRANCH   9  10
ENDBRANCH   8   9
ENDBRANCH   7   8
BRANCH   7  18
HETATM   18  C   UNL     1     -18.557 -15.414  -7.323  1.00  0.00     0.007 C 
BRANCH  18  19
HETATM   19  C   UNL     1     -17.252 -15.879  -6.655  1.00  0.00     0.000 C 
BRANCH  19  20
HETATM   20  C   UNL     1     -17.169 -15.639  -5.133  1.00  0.00     0.000 C 
BRANCH  20  21
HETATM   21  C   UNL     1     -15.756 -15.706  -4.533  1.00  0.00     0.000 C 
BRANCH  21  22
HETATM   22  C   UNL     1     -14.681 -15.341  -5.574  1.00  0.00     0.000 C 
BRANCH  22  23
HETATM   23  C   UNL     1     -13.355 -14.852  -4.974  1.00  0.00    -0.000 C 
BRANCH  23  24
HETATM   24  C   UNL     1     -13.505 -14.233  -3.583  1.00  0.00    -0.005 C 
HETATM   25  C   UNL     1     -13.554 -12.713  -3.635  1.00  0.00     0.005 C 
ENDBRANCH  23  24
ENDBRANCH  22  23
ENDBRANCH  21  22
ENDBRANCH  20  21
ENDBRANCH  19  20
ENDBRANCH  18  19
ENDBRANCH   7  18
ENDBRANCH   6   7
ENDBRANCH   5   6
ENDBRANCH   3   5
ENDBRANCH   2   3
ENDBRANCH   1   2
BRANCH   1  26
HETATM   26  C   UNL     1     -18.929 -10.510  -3.847  1.00  0.00     0.160 C 
BRANCH  26  27
HETATM   27  C   UNL     1     -19.664  -9.626  -4.825  1.00  0.00     0.262 C 
HETATM   28  O   UNL     1     -20.266 -10.023  -5.812  1.00  0.00    -0.265 OA
BRANCH  27  29
HETATM   29  O   UNL     1     -19.433  -8.313  -4.529  1.00  0.00    -0.321 OA
BRANCH  29  30
HETATM   30  C   UNL     1     -20.081  -7.416  -5.430  1.00  0.00     0.183 C 
BRANCH  30  31
HETATM   31  C   UNL     1     -20.708  -6.196  -4.750  1.00  0.00     0.010 C 
BRANCH  31  32
HETATM   32  C   UNL     1     -20.896  -5.050  -5.763  1.00  0.00     0.007 C 
BRANCH  32  33
HETATM   33  C   UNL     1     -19.645  -4.813  -6.603  1.00  0.00     0.000 C 
BRANCH  33  34
HETATM   34  C   UNL     1     -19.980  -4.394  -8.024  1.00  0.00     0.000 C 
BRANCH  34  35
HETATM   35  C   UNL     1     -21.449  -4.700  -8.300  1.00  0.00     0.000 C 
BRANCH  35  36
HETATM   36  C   UNL     1     -21.824  -4.303  -9.719  1.00  0.00     0.000 C 
BRANCH  36  37
HETATM   37  C   UNL     1     -23.215  -3.680  -9.748  1.00  0.00    -0.000 C 
BRANCH  37  38
HETATM   38  C   UNL     1     -23.579  -3.255 -11.166  1.00  0.00    -0.005 C 
HETATM   39  C   UNL     1     -22.344  -2.889 -11.967  1.00  0.00     0.005 C 
ENDBRANCH  37  38
ENDBRANCH  36  37
ENDBRANCH  35  36
ENDBRANCH  34  35
ENDBRANCH  33  34
ENDBRANCH  32  33
ENDBRANCH  31  32
BRANCH  31  40
HETATM   40  C   UNL     1     -22.038  -6.623  -4.076  1.00  0.00     0.007 C 
BRANCH  40  41
HETATM   41  C   UNL     1     -21.994  -6.344  -2.569  1.00  0.00     0.000 C 
BRANCH  41  42
HETATM   42  C   UNL     1     -21.603  -7.548  -1.719  1.00  0.00     0.000 C 
BRANCH  42  43
HETATM   43  C   UNL     1     -22.081  -7.343  -0.238  1.00  0.00     0.000 C 
BRANCH  43  44
HETATM   44  C   UNL     1     -23.049  -8.464   0.210  1.00  0.00     0.000 C 
BRANCH  44  45
HETATM   45  C   UNL     1     -22.688  -9.996   0.030  1.00  0.00     0.000 C 
BRANCH  45  46
HETATM   46  C   UNL     1     -23.705 -10.844  -0.820  1.00  0.00     0.000 C 
BRANCH  46  47
HETATM   47  C   UNL     1     -23.347 -11.196  -2.279  1.00  0.00    -0.000 C 
BRANCH  47  48
HETATM   48  C   UNL     1     -22.773 -12.633  -2.397  1.00  0.00    -0.005 C 
HETATM   49  C   UNL     1     -21.263 -12.665  -2.190  1.00  0.00     0.005 C 
ENDBRANCH  47  48
ENDBRANCH  46  47
ENDBRANCH  45  46
ENDBRANCH  44  45
ENDBRANCH  43  44
ENDBRANCH  42  43
ENDBRANCH  41  42
ENDBRANCH  40  41
ENDBRANCH  31  40
ENDBRANCH  30  31
ENDBRANCH  29  30
ENDBRANCH  27  29
ENDBRANCH  26  27
ENDBRANCH   1  26
BRANCH   1  50
HETATM   50  C   UNL     1     -16.612 -10.376  -2.797  1.00  0.00     0.294 C 
HETATM   51  O   UNL     1     -15.885  -9.394  -2.651  1.00  0.00    -0.262 OA
BRANCH  50  52
HETATM   52  O   UNL     1     -16.849 -11.295  -1.799  1.00  0.00    -0.319 OA
BRANCH  52  53
HETATM   53  C   UNL     1     -15.769 -11.533  -0.870  1.00  0.00     0.183 C 
BRANCH  53  54
HETATM   54  C   UNL     1     -15.823 -12.908  -0.149  1.00  0.00     0.010 C 
BRANCH  54  55
HETATM   55  C   UNL     1     -16.211 -14.059  -1.109  1.00  0.00     0.007 C 
BRANCH  55  56
HETATM   56  C   UNL     1     -17.684 -14.531  -1.052  1.00  0.00     0.000 C 
BRANCH  56  57
HETATM   57  C   UNL     1     -18.602 -13.853  -0.011  1.00  0.00     0.000 C 
BRANCH  57  58
HETATM   58  C   UNL     1     -19.413 -14.865   0.803  1.00  0.00     0.000 C 
BRANCH  58  59
HETATM   59  C   UNL     1     -20.944 -14.735   0.723  1.00  0.00     0.000 C 
BRANCH  59  60
HETATM   60  C   UNL     1     -21.546 -13.487   1.384  1.00  0.00    -0.000 C 
BRANCH  60  61
HETATM   61  C   UNL     1     -23.084 -13.557   1.378  1.00  0.00    -0.005 C 
HETATM   62  C   UNL     1     -23.649 -14.281   2.593  1.00  0.00     0.005 C 
ENDBRANCH  60  61
ENDBRANCH  59  60
ENDBRANCH  58  59
ENDBRANCH  57  58
ENDBRANCH  56  57
ENDBRANCH  55  56
ENDBRANCH  54  55
BRANCH  54  63
HETATM   63  C   UNL     1     -14.450 -13.214   0.499  1.00  0.00     0.007 C 
BRANCH  63  64
HETATM   64  C   UNL     1     -13.973 -14.649   0.292  1.00  0.00     0.000 C 
BRANCH  64  65
HETATM   65  C   UNL     1     -12.480 -14.685  -0.020  1.00  0.00     0.000 C 
BRANCH  65  66
HETATM   66  C   UNL     1     -11.677 -14.373   1.236  1.00  0.00     0.000 C 
BRANCH  66  67
HETATM   67  C   UNL     1     -10.631 -13.300   0.968  1.00  0.00     0.000 C 
BRANCH  67  68
HETATM   68  C   UNL     1      -9.296 -13.698   1.587  1.00  0.00     0.000 C 
BRANCH  68  69
HETATM   69  C   UNL     1      -9.381 -13.687   3.108  1.00  0.00     0.000 C 
BRANCH  69  70
HETATM   70  C   UNL     1      -8.187 -14.413   3.720  1.00  0.00    -0.000 C 
BRANCH  70  71
HETATM   71  C   UNL     1      -8.479 -14.828   5.158  1.00  0.00    -0.005 C 
HETATM   72  C   UNL     1      -8.791 -13.620   6.022  1.00  0.00     0.005 C 
ENDBRANCH  70  71
ENDBRANCH  69  70
ENDBRANCH  68  69
ENDBRANCH  67  68
ENDBRANCH  66  67
ENDBRANCH  65  66
ENDBRANCH  64  65
ENDBRANCH  63  64
ENDBRANCH  54  63
ENDBRANCH  53  54
ENDBRANCH  52  53
ENDBRANCH  50  52
ENDBRANCH   1  50
BRANCH   1  73
HETATM   73  O   UNL     1     -17.025  -9.642  -5.036  1.00  0.00    -0.379 OA
HETATM   74  H   UNL     1     -17.108 -10.016  -5.939  1.00  0.00     0.211 HD
ENDBRANCH   1  73
TORSDOF 63
ENDMDL
