MODEL 1
REMARK VINA RESULT:      -6.6      0.000      0.000
REMARK  25 active torsions:
REMARK  status: ('A' for Active; 'I' for Inactive)
REMARK    1  A    between atoms: C_2  and  C_3 
REMARK    2  A    between atoms: C_3  and  C_4 
REMARK    3  A    between atoms: C_4  and  C_5 
REMARK    4  A    between atoms: C_5  and  C_6 
REMARK    5  A    between atoms: C_6  and  C_7 
REMARK    6  A    between atoms: C_7  and  C_8 
REMARK    7  A    between atoms: C_8  and  C_9 
REMARK    8  A    between atoms: C_9  and  C_10 
REMARK    9  A    between atoms: C_10  and  C_11 
REMARK   10  A    between atoms: C_11  and  C_12 
REMARK   11  A    between atoms: C_12  and  O_14 
REMARK   12  A    between atoms: O_14  and  C_15 
REMARK   13  A    between atoms: C_15  and  C_16 
REMARK   14  A    between atoms: C_16  and  C_17 
REMARK   15  A    between atoms: C_16  and  C_23 
REMARK   16  A    between atoms: C_17  and  C_18 
REMARK   17  A    between atoms: C_18  and  C_19 
REMARK   18  A    between atoms: C_19  and  C_20 
REMARK   19  A    between atoms: C_20  and  C_21 
REMARK   20  A    between atoms: C_23  and  C_24 
REMARK   21  A    between atoms: C_24  and  C_25 
REMARK   22  A    between atoms: C_25  and  C_26 
REMARK   23  A    between atoms: C_26  and  C_27 
REMARK   24  A    between atoms: C_27  and  C_28 
REMARK   25  A    between atoms: C_28  and  C_29 
ROOT
HETATM    1  C   UNL     1     -21.885  -6.154  -2.438  1.00  0.00     0.183 C 
ENDROOT
BRANCH   1   2
HETATM    2  O   UNL     1     -21.213  -6.042  -3.694  1.00  0.00    -0.321 OA
BRANCH   2   3
HETATM    3  C   UNL     1     -21.993  -6.334  -4.784  1.00  0.00     0.258 C 
HETATM    4  O   UNL     1     -23.166  -6.066  -4.912  1.00  0.00    -0.265 OA
BRANCH   3   5
HETATM    5  C   UNL     1     -21.145  -6.938  -5.885  1.00  0.00     0.111 C 
BRANCH   5   6
HETATM    6  C   UNL     1     -20.264  -5.864  -6.495  1.00  0.00     0.010 C 
BRANCH   6   7
HETATM    7  C   UNL     1     -21.054  -4.840  -7.295  1.00  0.00     0.000 C 
BRANCH   7   8
HETATM    8  C   UNL     1     -20.114  -4.077  -8.221  1.00  0.00     0.000 C 
BRANCH   8   9
HETATM    9  C   UNL     1     -20.138  -4.675  -9.618  1.00  0.00     0.000 C 
BRANCH   9  10
HETATM   10  C   UNL     1     -20.394  -3.591 -10.655  1.00  0.00     0.000 C 
BRANCH  10  11
HETATM   11  C   UNL     1     -21.252  -4.141 -11.783  1.00  0.00     0.000 C 
BRANCH  11  12
HETATM   12  C   UNL     1     -22.682  -3.637 -11.652  1.00  0.00     0.000 C 
BRANCH  12  13
HETATM   13  C   UNL     1     -23.634  -4.806 -11.452  1.00  0.00    -0.000 C 
BRANCH  13  14
HETATM   14  C   UNL     1     -24.158  -4.827 -10.021  1.00  0.00    -0.005 C 
HETATM   15  C   UNL     1     -24.067  -3.442  -9.407  1.00  0.00     0.005 C 
ENDBRANCH  13  14
ENDBRANCH  12  13
ENDBRANCH  11  12
ENDBRANCH  10  11
ENDBRANCH   9  10
ENDBRANCH   8   9
ENDBRANCH   7   8
ENDBRANCH   6   7
ENDBRANCH   5   6
ENDBRANCH   3   5
ENDBRANCH   2   3
ENDBRANCH   1   2
BRANCH   1  16
HETATM   16  C   UNL     1     -21.787  -7.544  -1.797  1.00  0.00     0.010 C 
BRANCH  16  17
HETATM   17  C   UNL     1     -20.323  -7.999  -1.664  1.00  0.00     0.007 C 
BRANCH  17  18
HETATM   18  C   UNL     1     -20.036  -9.231  -2.509  1.00  0.00     0.000 C 
BRANCH  18  19
HETATM   19  C   UNL     1     -19.001  -8.939  -3.570  1.00  0.00     0.000 C 
BRANCH  19  20
HETATM   20  C   UNL     1     -18.422 -10.265  -4.036  1.00  0.00    -0.000 C 
BRANCH  20  21
HETATM   21  C   UNL     1     -17.297 -10.686  -3.119  1.00  0.00    -0.005 C 
HETATM   22  C   UNL     1     -16.336  -9.535  -2.905  1.00  0.00     0.005 C 
ENDBRANCH  20  21
ENDBRANCH  19  20
ENDBRANCH  18  19
ENDBRANCH  17  18
ENDBRANCH  16  17
BRANCH  16  23
HETATM   23  C   UNL     1     -22.483  -7.556  -0.429  1.00  0.00     0.007 C 
BRANCH  23  24
HETATM   24  C   UNL     1     -22.240  -8.842   0.342  1.00  0.00     0.000 C 
BRANCH  24  25
HETATM   25  C   UNL     1     -23.434  -9.770   0.245  1.00  0.00     0.000 C 
BRANCH  25  26
HETATM   26  C   UNL     1     -23.353 -10.565  -1.050  1.00  0.00     0.000 C 
BRANCH  26  27
HETATM   27  C   UNL     1     -24.007 -11.923  -0.866  1.00  0.00     0.000 C 
BRANCH  27  28
HETATM   28  C   UNL     1     -22.974 -12.949  -0.429  1.00  0.00    -0.000 C 
BRANCH  28  29
HETATM   29  C   UNL     1     -23.427 -13.642   0.848  1.00  0.00    -0.005 C 
HETATM   30  C   UNL     1     -22.322 -13.608   1.887  1.00  0.00     0.005 C 
ENDBRANCH  28  29
ENDBRANCH  27  28
ENDBRANCH  26  27
ENDBRANCH  25  26
ENDBRANCH  24  25
ENDBRANCH  23  24
ENDBRANCH  16  23
ENDBRANCH   1  16
TORSDOF 25
ENDMDL
MODEL 2
REMARK VINA RESULT:      -6.6      1.256      2.015
REMARK  25 active torsions:
REMARK  status: ('A' for Active; 'I' for Inactive)
REMARK    1  A    between atoms: C_2  and  C_3 
REMARK    2  A    between atoms: C_3  and  C_4 
REMARK    3  A    between atoms: C_4  and  C_5 
REMARK    4  A    between atoms: C_5  and  C_6 
REMARK    5  A    between atoms: C_6  and  C_7 
REMARK    6  A    between atoms: C_7  and  C_8 
REMARK    7  A    between atoms: C_8  and  C_9 
REMARK    8  A    between atoms: C_9  and  C_10 
REMARK    9  A    between atoms: C_10  and  C_11 
REMARK   10  A    between atoms: C_11  and  C_12 
REMARK   11  A    between atoms: C_12  and  O_14 
REMARK   12  A    between atoms: O_14  and  C_15 
REMARK   13  A    between atoms: C_15  and  C_16 
REMARK   14  A    between atoms: C_16  and  C_17 
REMARK   15  A    between atoms: C_16  and  C_23 
REMARK   16  A    between atoms: C_17  and  C_18 
REMARK   17  A    between atoms: C_18  and  C_19 
REMARK   18  A    between atoms: C_19  and  C_20 
REMARK   19  A    between atoms: C_20  and  C_21 
REMARK   20  A    between atoms: C_23  and  C_24 
REMARK   21  A    between atoms: C_24  and  C_25 
REMARK   22  A    between atoms: C_25  and  C_26 
REMARK   23  A    between atoms: C_26  and  C_27 
REMARK   24  A    between atoms: C_27  and  C_28 
REMARK   25  A    between atoms: C_28  and  C_29 
ROOT
HETATM    1  C   UNL     1     -21.567  -7.691  -3.954  1.00  0.00     0.183 C 
ENDROOT
BRANCH   1   2
HETATM    2  O   UNL     1     -21.243  -6.344  -4.301  1.00  0.00    -0.321 OA
BRANCH   2   3
HETATM    3  C   UNL     1     -20.638  -6.202  -5.524  1.00  0.00     0.258 C 
HETATM    4  O   UNL     1     -20.613  -7.030  -6.405  1.00  0.00    -0.265 OA
BRANCH   3   5
HETATM    5  C   UNL     1     -20.099  -4.794  -5.679  1.00  0.00     0.111 C 
BRANCH   5   6
HETATM    6  C   UNL     1     -20.819  -4.098  -6.818  1.00  0.00     0.010 C 
BRANCH   6   7
HETATM    7  C   UNL     1     -19.932  -3.894  -8.037  1.00  0.00     0.000 C 
BRANCH   7   8
HETATM    8  C   UNL     1     -20.287  -4.920  -9.107  1.00  0.00     0.000 C 
BRANCH   8   9
HETATM    9  C   UNL     1     -20.063  -4.345 -10.496  1.00  0.00     0.000 C 
BRANCH   9  10
HETATM   10  C   UNL     1     -21.345  -4.413 -11.312  1.00  0.00     0.000 C 
BRANCH  10  11
HETATM   11  C   UNL     1     -22.553  -4.340 -10.392  1.00  0.00     0.000 C 
BRANCH  11  12
HETATM   12  C   UNL     1     -23.562  -3.334 -10.924  1.00  0.00     0.000 C 
BRANCH  12  13
HETATM   13  C   UNL     1     -22.982  -2.590 -12.116  1.00  0.00    -0.000 C 
BRANCH  13  14
HETATM   14  C   UNL     1     -23.822  -2.842 -13.362  1.00  0.00    -0.005 C 
HETATM   15  C   UNL     1     -22.974  -2.681 -14.611  1.00  0.00     0.005 C 
ENDBRANCH  13  14
ENDBRANCH  12  13
ENDBRANCH  11  12
ENDBRANCH  10  11
ENDBRANCH   9  10
ENDBRANCH   8   9
ENDBRANCH   7   8
ENDBRANCH   6   7
ENDBRANCH   5   6
ENDBRANCH   3   5
ENDBRANCH   2   3
ENDBRANCH   1   2
BRANCH   1  16
HETATM   16  C   UNL     1     -21.294  -8.042  -2.487  1.00  0.00     0.010 C 
BRANCH  16  17
HETATM   17  C   UNL     1     -19.838  -8.495  -2.279  1.00  0.00     0.007 C 
BRANCH  17  18
HETATM   18  C   UNL     1     -19.713 -10.011  -2.283  1.00  0.00     0.000 C 
BRANCH  18  19
HETATM   19  C   UNL     1     -18.265 -10.442  -2.293  1.00  0.00     0.000 C 
BRANCH  19  20
HETATM   20  C   UNL     1     -17.495  -9.473  -3.174  1.00  0.00    -0.000 C 
BRANCH  20  21
HETATM   21  C   UNL     1     -16.023  -9.524  -2.832  1.00  0.00    -0.005 C 
HETATM   22  C   UNL     1     -15.627 -10.929  -2.425  1.00  0.00     0.005 C 
ENDBRANCH  20  21
ENDBRANCH  19  20
ENDBRANCH  18  19
ENDBRANCH  17  18
ENDBRANCH  16  17
BRANCH  16  23
HETATM   23  C   UNL     1     -21.623  -6.851  -1.577  1.00  0.00     0.007 C 
BRANCH  23  24
HETATM   24  C   UNL     1     -22.592  -7.211  -0.463  1.00  0.00     0.000 C 
BRANCH  24  25
HETATM   25  C   UNL     1     -22.217  -8.532   0.179  1.00  0.00     0.000 C 
BRANCH  25  26
HETATM   26  C   UNL     1     -23.386  -9.499   0.069  1.00  0.00     0.000 C 
BRANCH  26  27
HETATM   27  C   UNL     1     -22.907 -10.830  -0.485  1.00  0.00     0.000 C 
BRANCH  27  28
HETATM   28  C   UNL     1     -24.006 -11.873  -0.368  1.00  0.00    -0.000 C 
BRANCH  28  29
HETATM   29  C   UNL     1     -23.409 -13.232  -0.030  1.00  0.00    -0.005 C 
HETATM   30  C   UNL     1     -23.268 -13.387   1.471  1.00  0.00     0.005 C 
ENDBRANCH  28  29
ENDBRANCH  27  28
ENDBRANCH  26  27
ENDBRANCH  25  26
ENDBRANCH  24  25
ENDBRANCH  23  24
ENDBRANCH  16  23
ENDBRANCH   1  16
TORSDOF 25
ENDMDL
MODEL 3
REMARK VINA RESULT:      -6.4      1.697      9.915
REMARK  25 active torsions:
REMARK  status: ('A' for Active; 'I' for Inactive)
REMARK    1  A    between atoms: C_2  and  C_3 
REMARK    2  A    between atoms: C_3  and  C_4 
REMARK    3  A    between atoms: C_4  and  C_5 
REMARK    4  A    between atoms: C_5  and  C_6 
REMARK    5  A    between atoms: C_6  and  C_7 
REMARK    6  A    between atoms: C_7  and  C_8 
REMARK    7  A    between atoms: C_8  and  C_9 
REMARK    8  A    between atoms: C_9  and  C_10 
REMARK    9  A    between atoms: C_10  and  C_11 
REMARK   10  A    between atoms: C_11  and  C_12 
REMARK   11  A    between atoms: C_12  and  O_14 
REMARK   12  A    between atoms: O_14  and  C_15 
REMARK   13  A    between atoms: C_15  and  C_16 
REMARK   14  A    between atoms: C_16  and  C_17 
REMARK   15  A    between atoms: C_16  and  C_23 
REMARK   16  A    between atoms: C_17  and  C_18 
REMARK   17  A    between atoms: C_18  and  C_19 
REMARK   18  A    between atoms: C_19  and  C_20 
REMARK   19  A    between atoms: C_20  and  C_21 
REMARK   20  A    between atoms: C_23  and  C_24 
REMARK   21  A    between atoms: C_24  and  C_25 
REMARK   22  A    between atoms: C_25  and  C_26 
REMARK   23  A    between atoms: C_26  and  C_27 
REMARK   24  A    between atoms: C_27  and  C_28 
REMARK   25  A    between atoms: C_28  and  C_29 
ROOT
HETATM    1  C   UNL     1     -21.499  -8.198  -5.325  1.00  0.00     0.183 C 
ENDROOT
BRANCH   1   2
HETATM    2  O   UNL     1     -20.100  -8.222  -5.611  1.00  0.00    -0.321 OA
BRANCH   2   3
HETATM    3  C   UNL     1     -19.445  -9.337  -5.154  1.00  0.00     0.258 C 
HETATM    4  O   UNL     1     -18.554  -9.923  -5.726  1.00  0.00    -0.265 OA
BRANCH   3   5
HETATM    5  C   UNL     1     -19.905  -9.673  -3.750  1.00  0.00     0.111 C 
BRANCH   5   6
HETATM    6  C   UNL     1     -20.027 -11.177  -3.602  1.00  0.00     0.010 C 
BRANCH   6   7
HETATM    7  C   UNL     1     -21.286 -11.733  -4.252  1.00  0.00     0.000 C 
BRANCH   7   8
HETATM    8  C   UNL     1     -22.516 -11.168  -3.553  1.00  0.00     0.000 C 
BRANCH   8   9
HETATM    9  C   UNL     1     -22.581 -11.648  -2.112  1.00  0.00     0.000 C 
BRANCH   9  10
HETATM   10  C   UNL     1     -23.530 -10.776  -1.304  1.00  0.00     0.000 C 
BRANCH  10  11
HETATM   11  C   UNL     1     -23.901 -11.474  -0.005  1.00  0.00     0.000 C 
BRANCH  11  12
HETATM   12  C   UNL     1     -22.860 -12.526   0.345  1.00  0.00     0.000 C 
BRANCH  12  13
HETATM   13  C   UNL     1     -23.540 -13.826   0.742  1.00  0.00    -0.000 C 
BRANCH  13  14
HETATM   14  C   UNL     1     -23.499 -14.008   2.255  1.00  0.00    -0.005 C 
HETATM   15  C   UNL     1     -22.112 -14.440   2.695  1.00  0.00     0.005 C 
ENDBRANCH  13  14
ENDBRANCH  12  13
ENDBRANCH  11  12
ENDBRANCH  10  11
ENDBRANCH   9  10
ENDBRANCH   8   9
ENDBRANCH   7   8
ENDBRANCH   6   7
ENDBRANCH   5   6
ENDBRANCH   3   5
ENDBRANCH   2   3
ENDBRANCH   1   2
BRANCH   1  16
HETATM   16  C   UNL     1     -22.017  -6.838  -4.841  1.00  0.00     0.010 C 
BRANCH  16  17
HETATM   17  C   UNL     1     -21.237  -6.346  -3.609  1.00  0.00     0.007 C 
BRANCH  17  18
HETATM   18  C   UNL     1     -22.114  -6.305  -2.367  1.00  0.00     0.000 C 
BRANCH  18  19
HETATM   19  C   UNL     1     -21.754  -7.413  -1.405  1.00  0.00     0.000 C 
BRANCH  19  20
HETATM   20  C   UNL     1     -22.568  -7.215  -0.137  1.00  0.00    -0.000 C 
BRANCH  20  21
HETATM   21  C   UNL     1     -22.095  -8.174   0.932  1.00  0.00    -0.005 C 
HETATM   22  C   UNL     1     -20.969  -9.038   0.403  1.00  0.00     0.005 C 
ENDBRANCH  20  21
ENDBRANCH  19  20
ENDBRANCH  18  19
ENDBRANCH  17  18
ENDBRANCH  16  17
BRANCH  16  23
HETATM   23  C   UNL     1     -21.949  -5.803  -5.972  1.00  0.00     0.007 C 
BRANCH  23  24
HETATM   24  C   UNL     1     -20.730  -4.901  -5.871  1.00  0.00     0.000 C 
BRANCH  24  25
HETATM   25  C   UNL     1     -20.706  -3.889  -6.999  1.00  0.00     0.000 C 
BRANCH  25  26
HETATM   26  C   UNL     1     -19.712  -4.336  -8.060  1.00  0.00     0.000 C 
BRANCH  26  27
HETATM   27  C   UNL     1     -20.407  -4.454  -9.405  1.00  0.00     0.000 C 
BRANCH  27  28
HETATM   28  C   UNL     1     -21.863  -4.039  -9.282  1.00  0.00    -0.000 C 
BRANCH  28  29
HETATM   29  C   UNL     1     -22.461  -3.796 -10.661  1.00  0.00    -0.005 C 
HETATM   30  C   UNL     1     -21.381  -3.365 -11.634  1.00  0.00     0.005 C 
ENDBRANCH  28  29
ENDBRANCH  27  28
ENDBRANCH  26  27
ENDBRANCH  25  26
ENDBRANCH  24  25
ENDBRANCH  23  24
ENDBRANCH  16  23
ENDBRANCH   1  16
TORSDOF 25
ENDMDL
MODEL 4
REMARK VINA RESULT:      -6.3      1.877      8.503
REMARK  25 active torsions:
REMARK  status: ('A' for Active; 'I' for Inactive)
REMARK    1  A    between atoms: C_2  and  C_3 
REMARK    2  A    between atoms: C_3  and  C_4 
REMARK    3  A    between atoms: C_4  and  C_5 
REMARK    4  A    between atoms: C_5  and  C_6 
REMARK    5  A    between atoms: C_6  and  C_7 
REMARK    6  A    between atoms: C_7  and  C_8 
REMARK    7  A    between atoms: C_8  and  C_9 
REMARK    8  A    between atoms: C_9  and  C_10 
REMARK    9  A    between atoms: C_10  and  C_11 
REMARK   10  A    between atoms: C_11  and  C_12 
REMARK   11  A    between atoms: C_12  and  O_14 
REMARK   12  A    between atoms: O_14  and  C_15 
REMARK   13  A    between atoms: C_15  and  C_16 
REMARK   14  A    between atoms: C_16  and  C_17 
REMARK   15  A    between atoms: C_16  and  C_23 
REMARK   16  A    between atoms: C_17  and  C_18 
REMARK   17  A    between atoms: C_18  and  C_19 
REMARK   18  A    between atoms: C_19  and  C_20 
REMARK   19  A    between atoms: C_20  and  C_21 
REMARK   20  A    between atoms: C_23  and  C_24 
REMARK   21  A    between atoms: C_24  and  C_25 
REMARK   22  A    between atoms: C_25  and  C_26 
REMARK   23  A    between atoms: C_26  and  C_27 
REMARK   24  A    between atoms: C_27  and  C_28 
REMARK   25  A    between atoms: C_28  and  C_29 
ROOT
HETATM    1  C   UNL     1     -21.279  -6.490  -2.520  1.00  0.00     0.183 C 
ENDROOT
BRANCH   1   2
HETATM    2  O   UNL     1     -22.454  -6.378  -1.716  1.00  0.00    -0.321 OA
BRANCH   2   3
HETATM    3  C   UNL     1     -22.506  -7.250  -0.659  1.00  0.00     0.258 C 
HETATM    4  O   UNL     1     -23.436  -7.390   0.103  1.00  0.00    -0.265 OA
BRANCH   3   5
HETATM    5  C   UNL     1     -21.269  -8.125  -0.644  1.00  0.00     0.111 C 
BRANCH   5   6
HETATM    6  C   UNL     1     -21.377  -9.136   0.481  1.00  0.00     0.010 C 
BRANCH   6   7
HETATM    7  C   UNL     1     -20.178 -10.070   0.549  1.00  0.00     0.000 C 
BRANCH   7   8
HETATM    8  C   UNL     1     -20.652 -11.518   0.497  1.00  0.00     0.000 C 
BRANCH   8   9
HETATM    9  C   UNL     1     -19.599 -12.403  -0.148  1.00  0.00     0.000 C 
BRANCH   9  10
HETATM   10  C   UNL     1     -19.986 -12.729  -1.583  1.00  0.00     0.000 C 
BRANCH  10  11
HETATM   11  C   UNL     1     -21.499 -12.789  -1.714  1.00  0.00     0.000 C 
BRANCH  11  12
HETATM   12  C   UNL     1     -21.974 -11.834  -2.799  1.00  0.00     0.000 C 
BRANCH  12  13
HETATM   13  C   UNL     1     -23.153 -11.015  -2.299  1.00  0.00    -0.000 C 
BRANCH  13  14
HETATM   14  C   UNL     1     -23.919 -11.784  -1.229  1.00  0.00    -0.005 C 
HETATM   15  C   UNL     1     -24.236 -10.876  -0.054  1.00  0.00     0.005 C 
ENDBRANCH  13  14
ENDBRANCH  12  13
ENDBRANCH  11  12
ENDBRANCH  10  11
ENDBRANCH   9  10
ENDBRANCH   8   9
ENDBRANCH   7   8
ENDBRANCH   6   7
ENDBRANCH   5   6
ENDBRANCH   3   5
ENDBRANCH   2   3
ENDBRANCH   1   2
BRANCH   1  16
HETATM   16  C   UNL     1     -21.556  -6.576  -4.026  1.00  0.00     0.010 C 
BRANCH  16  17
HETATM   17  C   UNL     1     -20.671  -5.597  -4.817  1.00  0.00     0.007 C 
BRANCH  17  18
HETATM   18  C   UNL     1     -21.319  -5.186  -6.130  1.00  0.00     0.000 C 
BRANCH  18  19
HETATM   19  C   UNL     1     -20.290  -4.690  -7.118  1.00  0.00     0.000 C 
BRANCH  19  20
HETATM   20  C   UNL     1     -21.028  -4.175  -8.343  1.00  0.00    -0.000 C 
BRANCH  20  21
HETATM   21  C   UNL     1     -22.520  -4.293  -8.132  1.00  0.00    -0.005 C 
HETATM   22  C   UNL     1     -23.266  -3.708  -9.313  1.00  0.00     0.005 C 
ENDBRANCH  20  21
ENDBRANCH  19  20
ENDBRANCH  18  19
ENDBRANCH  17  18
ENDBRANCH  16  17
BRANCH  16  23
HETATM   23  C   UNL     1     -21.355  -8.013  -4.529  1.00  0.00     0.007 C 
BRANCH  23  24
HETATM   24  C   UNL     1     -19.895  -8.348  -4.783  1.00  0.00     0.000 C 
BRANCH  24  25
HETATM   25  C   UNL     1     -19.478  -9.585  -4.012  1.00  0.00     0.000 C 
BRANCH  25  26
HETATM   26  C   UNL     1     -18.636  -9.176  -2.813  1.00  0.00     0.000 C 
BRANCH  26  27
HETATM   27  C   UNL     1     -17.507 -10.170  -2.609  1.00  0.00     0.000 C 
BRANCH  27  28
HETATM   28  C   UNL     1     -16.173  -9.528  -2.950  1.00  0.00    -0.000 C 
BRANCH  28  29
HETATM   29  C   UNL     1     -15.808  -9.808  -4.401  1.00  0.00    -0.005 C 
HETATM   30  C   UNL     1     -15.907 -11.292  -4.693  1.00  0.00     0.005 C 
ENDBRANCH  28  29
ENDBRANCH  27  28
ENDBRANCH  26  27
ENDBRANCH  25  26
ENDBRANCH  24  25
ENDBRANCH  23  24
ENDBRANCH  16  23
ENDBRANCH   1  16
TORSDOF 25
ENDMDL
MODEL 5
REMARK VINA RESULT:      -6.2      1.454      9.367
REMARK  25 active torsions:
REMARK  status: ('A' for Active; 'I' for Inactive)
REMARK    1  A    between atoms: C_2  and  C_3 
REMARK    2  A    between atoms: C_3  and  C_4 
REMARK    3  A    between atoms: C_4  and  C_5 
REMARK    4  A    between atoms: C_5  and  C_6 
REMARK    5  A    between atoms: C_6  and  C_7 
REMARK    6  A    between atoms: C_7  and  C_8 
REMARK    7  A    between atoms: C_8  and  C_9 
REMARK    8  A    between atoms: C_9  and  C_10 
REMARK    9  A    between atoms: C_10  and  C_11 
REMARK   10  A    between atoms: C_11  and  C_12 
REMARK   11  A    between atoms: C_12  and  O_14 
REMARK   12  A    between atoms: O_14  and  C_15 
REMARK   13  A    between atoms: C_15  and  C_16 
REMARK   14  A    between atoms: C_16  and  C_17 
REMARK   15  A    between atoms: C_16  and  C_23 
REMARK   16  A    between atoms: C_17  and  C_18 
REMARK   17  A    between atoms: C_18  and  C_19 
REMARK   18  A    between atoms: C_19  and  C_20 
REMARK   19  A    between atoms: C_20  and  C_21 
REMARK   20  A    between atoms: C_23  and  C_24 
REMARK   21  A    between atoms: C_24  and  C_25 
REMARK   22  A    between atoms: C_25  and  C_26 
REMARK   23  A    between atoms: C_26  and  C_27 
REMARK   24  A    between atoms: C_27  and  C_28 
REMARK   25  A    between atoms: C_28  and  C_29 
ROOT
HETATM    1  C   UNL     1     -20.957  -5.874  -4.244  1.00  0.00     0.183 C 
ENDROOT
BRANCH   1   2
HETATM    2  O   UNL     1     -22.124  -6.379  -3.594  1.00  0.00    -0.321 OA
BRANCH   2   3
HETATM    3  C   UNL     1     -22.033  -6.437  -2.227  1.00  0.00     0.258 C 
HETATM    4  O   UNL     1     -22.419  -5.591  -1.452  1.00  0.00    -0.265 OA
BRANCH   3   5
HETATM    5  C   UNL     1     -21.489  -7.784  -1.797  1.00  0.00     0.111 C 
BRANCH   5   6
HETATM    6  C   UNL     1     -21.514  -7.883  -0.285  1.00  0.00     0.010 C 
BRANCH   6   7
HETATM    7  C   UNL     1     -21.747  -9.303   0.209  1.00  0.00     0.000 C 
BRANCH   7   8
HETATM    8  C   UNL     1     -23.214  -9.675   0.028  1.00  0.00     0.000 C 
BRANCH   8   9
HETATM    9  C   UNL     1     -23.381 -11.184  -0.019  1.00  0.00     0.000 C 
BRANCH   9  10
HETATM   10  C   UNL     1     -24.017 -11.607  -1.334  1.00  0.00     0.000 C 
BRANCH  10  11
HETATM   11  C   UNL     1     -23.187 -11.098  -2.502  1.00  0.00     0.000 C 
BRANCH  11  12
HETATM   12  C   UNL     1     -21.853 -11.828  -2.559  1.00  0.00     0.000 C 
BRANCH  12  13
HETATM   13  C   UNL     1     -22.079 -13.328  -2.662  1.00  0.00    -0.000 C 
BRANCH  13  14
HETATM   14  C   UNL     1     -21.203 -14.068  -1.658  1.00  0.00    -0.005 C 
HETATM   15  C   UNL     1     -20.246 -13.103  -0.983  1.00  0.00     0.005 C 
ENDBRANCH  13  14
ENDBRANCH  12  13
ENDBRANCH  11  12
ENDBRANCH  10  11
ENDBRANCH   9  10
ENDBRANCH   8   9
ENDBRANCH   7   8
ENDBRANCH   6   7
ENDBRANCH   5   6
ENDBRANCH   3   5
ENDBRANCH   2   3
ENDBRANCH   1   2
BRANCH   1  16
HETATM   16  C   UNL     1     -20.414  -6.783  -5.353  1.00  0.00     0.010 C 
BRANCH  16  17
HETATM   17  C   UNL     1     -21.326  -8.002  -5.577  1.00  0.00     0.007 C 
BRANCH  17  18
HETATM   18  C   UNL     1     -20.692  -9.284  -5.056  1.00  0.00     0.000 C 
BRANCH  18  19
HETATM   19  C   UNL     1     -19.215  -9.098  -4.795  1.00  0.00     0.000 C 
BRANCH  19  20
HETATM   20  C   UNL     1     -18.813 -10.053  -3.683  1.00  0.00    -0.000 C 
BRANCH  20  21
HETATM   21  C   UNL     1     -17.905  -9.346  -2.702  1.00  0.00    -0.005 C 
HETATM   22  C   UNL     1     -16.454  -9.600  -3.054  1.00  0.00     0.005 C 
ENDBRANCH  20  21
ENDBRANCH  19  20
ENDBRANCH  18  19
ENDBRANCH  17  18
ENDBRANCH  16  17
BRANCH  16  23
HETATM   23  C   UNL     1     -20.237  -5.995  -6.658  1.00  0.00     0.007 C 
BRANCH  23  24
HETATM   24  C   UNL     1     -20.772  -4.576  -6.565  1.00  0.00     0.000 C 
BRANCH  24  25
HETATM   25  C   UNL     1     -20.869  -3.938  -7.936  1.00  0.00     0.000 C 
BRANCH  25  26
HETATM   26  C   UNL     1     -22.320  -3.928  -8.389  1.00  0.00     0.000 C 
BRANCH  26  27
HETATM   27  C   UNL     1     -22.420  -4.417  -9.824  1.00  0.00     0.000 C 
BRANCH  27  28
HETATM   28  C   UNL     1     -21.214  -3.951 -10.622  1.00  0.00    -0.000 C 
BRANCH  28  29
HETATM   29  C   UNL     1     -21.662  -3.150 -11.837  1.00  0.00    -0.005 C 
HETATM   30  C   UNL     1     -23.157  -2.903 -11.782  1.00  0.00     0.005 C 
ENDBRANCH  28  29
ENDBRANCH  27  28
ENDBRANCH  26  27
ENDBRANCH  25  26
ENDBRANCH  24  25
ENDBRANCH  23  24
ENDBRANCH  16  23
ENDBRANCH   1  16
TORSDOF 25
ENDMDL
MODEL 6
REMARK VINA RESULT:      -6.1      2.493      9.362
REMARK  25 active torsions:
REMARK  status: ('A' for Active; 'I' for Inactive)
REMARK    1  A    between atoms: C_2  and  C_3 
REMARK    2  A    between atoms: C_3  and  C_4 
REMARK    3  A    between atoms: C_4  and  C_5 
REMARK    4  A    between atoms: C_5  and  C_6 
REMARK    5  A    between atoms: C_6  and  C_7 
REMARK    6  A    between atoms: C_7  and  C_8 
REMARK    7  A    between atoms: C_8  and  C_9 
REMARK    8  A    between atoms: C_9  and  C_10 
REMARK    9  A    between atoms: C_10  and  C_11 
REMARK   10  A    between atoms: C_11  and  C_12 
REMARK   11  A    between atoms: C_12  and  O_14 
REMARK   12  A    between atoms: O_14  and  C_15 
REMARK   13  A    between atoms: C_15  and  C_16 
REMARK   14  A    between atoms: C_16  and  C_17 
REMARK   15  A    between atoms: C_16  and  C_23 
REMARK   16  A    between atoms: C_17  and  C_18 
REMARK   17  A    between atoms: C_18  and  C_19 
REMARK   18  A    between atoms: C_19  and  C_20 
REMARK   19  A    between atoms: C_20  and  C_21 
REMARK   20  A    between atoms: C_23  and  C_24 
REMARK   21  A    between atoms: C_24  and  C_25 
REMARK   22  A    between atoms: C_25  and  C_26 
REMARK   23  A    between atoms: C_26  and  C_27 
REMARK   24  A    between atoms: C_27  and  C_28 
REMARK   25  A    between atoms: C_28  and  C_29 
ROOT
HETATM    1  C   UNL     1     -20.585  -8.352  -5.079  1.00  0.00     0.183 C 
ENDROOT
BRANCH   1   2
HETATM    2  O   UNL     1     -19.690  -8.838  -4.078  1.00  0.00    -0.321 OA
BRANCH   2   3
HETATM    3  C   UNL     1     -19.042 -10.001  -4.410  1.00  0.00     0.258 C 
HETATM    4  O   UNL     1     -19.345 -11.114  -4.043  1.00  0.00    -0.265 OA
BRANCH   3   5
HETATM    5  C   UNL     1     -17.950  -9.719  -5.421  1.00  0.00     0.111 C 
BRANCH   5   6
HETATM    6  C   UNL     1     -17.260 -11.015  -5.799  1.00  0.00     0.010 C 
BRANCH   6   7
HETATM    7  C   UNL     1     -15.765 -10.842  -6.024  1.00  0.00     0.000 C 
BRANCH   7   8
HETATM    8  C   UNL     1     -15.244 -11.973  -6.903  1.00  0.00     0.000 C 
BRANCH   8   9
HETATM    9  C   UNL     1     -13.920 -12.497  -6.372  1.00  0.00     0.000 C 
BRANCH   9  10
HETATM   10  C   UNL     1     -13.671 -11.980  -4.964  1.00  0.00     0.000 C 
BRANCH  10  11
HETATM   11  C   UNL     1     -13.636 -13.139  -3.980  1.00  0.00     0.000 C 
BRANCH  11  12
HETATM   12  C   UNL     1     -15.014 -13.358  -3.375  1.00  0.00     0.000 C 
BRANCH  12  13
HETATM   13  C   UNL     1     -15.165 -12.539  -2.103  1.00  0.00    -0.000 C 
BRANCH  13  14
HETATM   14  C   UNL     1     -16.319 -11.553  -2.238  1.00  0.00    -0.005 C 
HETATM   15  C   UNL     1     -15.788 -10.140  -2.395  1.00  0.00     0.005 C 
ENDBRANCH  13  14
ENDBRANCH  12  13
ENDBRANCH  11  12
ENDBRANCH  10  11
ENDBRANCH   9  10
ENDBRANCH   8   9
ENDBRANCH   7   8
ENDBRANCH   6   7
ENDBRANCH   5   6
ENDBRANCH   3   5
ENDBRANCH   2   3
ENDBRANCH   1   2
BRANCH   1  16
HETATM   16  C   UNL     1     -21.518  -7.235  -4.596  1.00  0.00     0.010 C 
BRANCH  16  17
HETATM   17  C   UNL     1     -21.102  -6.715  -3.209  1.00  0.00     0.007 C 
BRANCH  17  18
HETATM   18  C   UNL     1     -22.304  -6.267  -2.391  1.00  0.00     0.000 C 
BRANCH  18  19
HETATM   19  C   UNL     1     -22.238  -6.804  -0.981  1.00  0.00     0.000 C 
BRANCH  19  20
HETATM   20  C   UNL     1     -21.783  -8.252  -1.053  1.00  0.00    -0.000 C 
BRANCH  20  21
HETATM   21  C   UNL     1     -22.257  -9.002   0.171  1.00  0.00    -0.005 C 
HETATM   22  C   UNL     1     -23.372  -9.959  -0.198  1.00  0.00     0.005 C 
ENDBRANCH  20  21
ENDBRANCH  19  20
ENDBRANCH  18  19
ENDBRANCH  17  18
ENDBRANCH  16  17
BRANCH  16  23
HETATM   23  C   UNL     1     -21.556  -6.087  -5.614  1.00  0.00     0.007 C 
BRANCH  23  24
HETATM   24  C   UNL     1     -20.490  -5.036  -5.354  1.00  0.00     0.000 C 
BRANCH  24  25
HETATM   25  C   UNL     1     -19.714  -4.721  -6.618  1.00  0.00     0.000 C 
BRANCH  25  26
HETATM   26  C   UNL     1     -20.286  -5.524  -7.776  1.00  0.00     0.000 C 
BRANCH  26  27
HETATM   27  C   UNL     1     -20.031  -4.799  -9.086  1.00  0.00     0.000 C 
BRANCH  27  28
HETATM   28  C   UNL     1     -21.214  -3.913  -9.436  1.00  0.00    -0.000 C 
BRANCH  28  29
HETATM   29  C   UNL     1     -22.497  -4.734  -9.469  1.00  0.00    -0.005 C 
HETATM   30  C   UNL     1     -23.595  -4.027  -8.699  1.00  0.00     0.005 C 
ENDBRANCH  28  29
ENDBRANCH  27  28
ENDBRANCH  26  27
ENDBRANCH  25  26
ENDBRANCH  24  25
ENDBRANCH  23  24
ENDBRANCH  16  23
ENDBRANCH   1  16
TORSDOF 25
ENDMDL
MODEL 7
REMARK VINA RESULT:      -6.1      1.852      4.617
REMARK  25 active torsions:
REMARK  status: ('A' for Active; 'I' for Inactive)
REMARK    1  A    between atoms: C_2  and  C_3 
REMARK    2  A    between atoms: C_3  and  C_4 
REMARK    3  A    between atoms: C_4  and  C_5 
REMARK    4  A    between atoms: C_5  and  C_6 
REMARK    5  A    between atoms: C_6  and  C_7 
REMARK    6  A    between atoms: C_7  and  C_8 
REMARK    7  A    between atoms: C_8  and  C_9 
REMARK    8  A    between atoms: C_9  and  C_10 
REMARK    9  A    between atoms: C_10  and  C_11 
REMARK   10  A    between atoms: C_11  and  C_12 
REMARK   11  A    between atoms: C_12  and  O_14 
REMARK   12  A    between atoms: O_14  and  C_15 
REMARK   13  A    between atoms: C_15  and  C_16 
REMARK   14  A    between atoms: C_16  and  C_17 
REMARK   15  A    between atoms: C_16  and  C_23 
REMARK   16  A    between atoms: C_17  and  C_18 
REMARK   17  A    between atoms: C_18  and  C_19 
REMARK   18  A    between atoms: C_19  and  C_20 
REMARK   19  A    between atoms: C_20  and  C_21 
REMARK   20  A    between atoms: C_23  and  C_24 
REMARK   21  A    between atoms: C_24  and  C_25 
REMARK   22  A    between atoms: C_25  and  C_26 
REMARK   23  A    between atoms: C_26  and  C_27 
REMARK   24  A    between atoms: C_27  and  C_28 
REMARK   25  A    between atoms: C_28  and  C_29 
ROOT
HETATM    1  C   UNL     1     -21.012  -8.899  -2.801  1.00  0.00     0.183 C 
ENDROOT
BRANCH   1   2
HETATM    2  O   UNL     1     -20.942  -7.635  -2.140  1.00  0.00    -0.321 OA
BRANCH   2   3
HETATM    3  C   UNL     1     -21.584  -6.615  -2.794  1.00  0.00     0.258 C 
HETATM    4  O   UNL     1     -22.429  -5.889  -2.321  1.00  0.00    -0.265 OA
BRANCH   3   5
HETATM    5  C   UNL     1     -20.995  -6.430  -4.177  1.00  0.00     0.111 C 
BRANCH   5   6
HETATM    6  C   UNL     1     -22.114  -6.295  -5.191  1.00  0.00     0.010 C 
BRANCH   6   7
HETATM    7  C   UNL     1     -21.610  -5.925  -6.578  1.00  0.00     0.000 C 
BRANCH   7   8
HETATM    8  C   UNL     1     -22.253  -4.617  -7.026  1.00  0.00     0.000 C 
BRANCH   8   9
HETATM    9  C   UNL     1     -21.193  -3.631  -7.488  1.00  0.00     0.000 C 
BRANCH   9  10
HETATM   10  C   UNL     1     -20.225  -4.304  -8.449  1.00  0.00     0.000 C 
BRANCH  10  11
HETATM   11  C   UNL     1     -20.239  -3.590  -9.791  1.00  0.00     0.000 C 
BRANCH  11  12
HETATM   12  C   UNL     1     -20.579  -4.568 -10.906  1.00  0.00     0.000 C 
BRANCH  12  13
HETATM   13  C   UNL     1     -21.644  -3.977 -11.816  1.00  0.00    -0.000 C 
BRANCH  13  14
HETATM   14  C   UNL     1     -22.697  -3.242 -10.996  1.00  0.00    -0.005 C 
HETATM   15  C   UNL     1     -24.015  -3.199 -11.748  1.00  0.00     0.005 C 
ENDBRANCH  13  14
ENDBRANCH  12  13
ENDBRANCH  11  12
ENDBRANCH  10  11
ENDBRANCH   9  10
ENDBRANCH   8   9
ENDBRANCH   7   8
ENDBRANCH   6   7
ENDBRANCH   5   6
ENDBRANCH   3   5
ENDBRANCH   2   3
ENDBRANCH   1   2
BRANCH   1  16
HETATM   16  C   UNL     1     -19.893  -9.873  -2.412  1.00  0.00     0.010 C 
BRANCH  16  17
HETATM   17  C   UNL     1     -20.442 -11.073  -1.621  1.00  0.00     0.007 C 
BRANCH  17  18
HETATM   18  C   UNL     1     -20.205 -10.919  -0.126  1.00  0.00     0.000 C 
BRANCH  18  19
HETATM   19  C   UNL     1     -21.412 -10.325   0.562  1.00  0.00     0.000 C 
BRANCH  19  20
HETATM   20  C   UNL     1     -20.970  -9.053   1.268  1.00  0.00    -0.000 C 
BRANCH  20  21
HETATM   21  C   UNL     1     -22.012  -7.973   1.082  1.00  0.00    -0.005 C 
HETATM   22  C   UNL     1     -23.211  -8.522   0.337  1.00  0.00     0.005 C 
ENDBRANCH  20  21
ENDBRANCH  19  20
ENDBRANCH  18  19
ENDBRANCH  17  18
ENDBRANCH  16  17
BRANCH  16  23
HETATM   23  C   UNL     1     -19.137 -10.351  -3.660  1.00  0.00     0.007 C 
BRANCH  23  24
HETATM   24  C   UNL     1     -17.851  -9.578  -3.899  1.00  0.00     0.000 C 
BRANCH  24  25
HETATM   25  C   UNL     1     -17.043  -9.456  -2.623  1.00  0.00     0.000 C 
BRANCH  25  26
HETATM   26  C   UNL     1     -15.873 -10.426  -2.668  1.00  0.00     0.000 C 
BRANCH  26  27
HETATM   27  C   UNL     1     -16.273 -11.750  -2.040  1.00  0.00     0.000 C 
BRANCH  27  28
HETATM   28  C   UNL     1     -15.721 -11.850  -0.628  1.00  0.00    -0.000 C 
BRANCH  28  29
HETATM   29  C   UNL     1     -16.859 -11.962   0.377  1.00  0.00    -0.005 C 
HETATM   30  C   UNL     1     -17.179 -13.419   0.650  1.00  0.00     0.005 C 
ENDBRANCH  28  29
ENDBRANCH  27  28
ENDBRANCH  26  27
ENDBRANCH  25  26
ENDBRANCH  24  25
ENDBRANCH  23  24
ENDBRANCH  16  23
ENDBRANCH   1  16
TORSDOF 25
ENDMDL
MODEL 8
REMARK VINA RESULT:      -6.1      2.152      7.146
REMARK  25 active torsions:
REMARK  status: ('A' for Active; 'I' for Inactive)
REMARK    1  A    between atoms: C_2  and  C_3 
REMARK    2  A    between atoms: C_3  and  C_4 
REMARK    3  A    between atoms: C_4  and  C_5 
REMARK    4  A    between atoms: C_5  and  C_6 
REMARK    5  A    between atoms: C_6  and  C_7 
REMARK    6  A    between atoms: C_7  and  C_8 
REMARK    7  A    between atoms: C_8  and  C_9 
REMARK    8  A    between atoms: C_9  and  C_10 
REMARK    9  A    between atoms: C_10  and  C_11 
REMARK   10  A    between atoms: C_11  and  C_12 
REMARK   11  A    between atoms: C_12  and  O_14 
REMARK   12  A    between atoms: O_14  and  C_15 
REMARK   13  A    between atoms: C_15  and  C_16 
REMARK   14  A    between atoms: C_16  and  C_17 
REMARK   15  A    between atoms: C_16  and  C_23 
REMARK   16  A    between atoms: C_17  and  C_18 
REMARK   17  A    between atoms: C_18  and  C_19 
REMARK   18  A    between atoms: C_19  and  C_20 
REMARK   19  A    between atoms: C_20  and  C_21 
REMARK   20  A    between atoms: C_23  and  C_24 
REMARK   21  A    between atoms: C_24  and  C_25 
REMARK   22  A    between atoms: C_25  and  C_26 
REMARK   23  A    between atoms: C_26  and  C_27 
REMARK   24  A    between atoms: C_27  and  C_28 
REMARK   25  A    between atoms: C_28  and  C_29 
ROOT
HETATM    1  C   UNL     1     -21.538  -8.574  -4.874  1.00  0.00     0.183 C 
ENDROOT
BRANCH   1   2
HETATM    2  O   UNL     1     -20.855  -9.563  -5.646  1.00  0.00    -0.321 OA
BRANCH   2   3
HETATM    3  C   UNL     1     -21.215 -10.855  -5.360  1.00  0.00     0.258 C 
HETATM    4  O   UNL     1     -22.023 -11.201  -4.528  1.00  0.00    -0.265 OA
BRANCH   3   5
HETATM    5  C   UNL     1     -20.549 -11.809  -6.331  1.00  0.00     0.111 C 
BRANCH   5   6
HETATM    6  C   UNL     1     -19.115 -12.052  -5.900  1.00  0.00     0.010 C 
BRANCH   6   7
HETATM    7  C   UNL     1     -18.102 -11.448  -6.862  1.00  0.00     0.000 C 
BRANCH   7   8
HETATM    8  C   UNL     1     -17.515 -10.179  -6.257  1.00  0.00     0.000 C 
BRANCH   8   9
HETATM    9  C   UNL     1     -16.042 -10.371  -5.936  1.00  0.00     0.000 C 
BRANCH   9  10
HETATM   10  C   UNL     1     -15.716  -9.787  -4.569  1.00  0.00     0.000 C 
BRANCH  10  11
HETATM   11  C   UNL     1     -16.522 -10.497  -3.493  1.00  0.00     0.000 C 
BRANCH  11  12
HETATM   12  C   UNL     1     -17.278  -9.484  -2.646  1.00  0.00     0.000 C 
BRANCH  12  13
HETATM   13  C   UNL     1     -18.773  -9.753  -2.718  1.00  0.00    -0.000 C 
BRANCH  13  14
HETATM   14  C   UNL     1     -19.070 -11.208  -2.376  1.00  0.00    -0.005 C 
HETATM   15  C   UNL     1     -18.942 -11.434  -0.881  1.00  0.00     0.005 C 
ENDBRANCH  13  14
ENDBRANCH  12  13
ENDBRANCH  11  12
ENDBRANCH  10  11
ENDBRANCH   9  10
ENDBRANCH   8   9
ENDBRANCH   7   8
ENDBRANCH   6   7
ENDBRANCH   5   6
ENDBRANCH   3   5
ENDBRANCH   2   3
ENDBRANCH   1   2
BRANCH   1  16
HETATM   16  C   UNL     1     -20.740  -7.281  -4.666  1.00  0.00     0.010 C 
BRANCH  16  17
HETATM   17  C   UNL     1     -20.298  -6.670  -6.007  1.00  0.00     0.007 C 
BRANCH  17  18
HETATM   18  C   UNL     1     -20.120  -5.163  -5.909  1.00  0.00     0.000 C 
BRANCH  18  19
HETATM   19  C   UNL     1     -19.288  -4.633  -7.054  1.00  0.00     0.000 C 
BRANCH  19  20
HETATM   20  C   UNL     1     -20.237  -4.098  -8.113  1.00  0.00    -0.000 C 
BRANCH  20  21
HETATM   21  C   UNL     1     -21.554  -3.715  -7.477  1.00  0.00    -0.005 C 
HETATM   22  C   UNL     1     -22.708  -4.148  -8.357  1.00  0.00     0.005 C 
ENDBRANCH  20  21
ENDBRANCH  19  20
ENDBRANCH  18  19
ENDBRANCH  17  18
ENDBRANCH  16  17
BRANCH  16  23
HETATM   23  C   UNL     1     -21.560  -6.267  -3.856  1.00  0.00     0.007 C 
BRANCH  23  24
HETATM   24  C   UNL     1     -21.268  -6.330  -2.367  1.00  0.00     0.000 C 
BRANCH  24  25
HETATM   25  C   UNL     1     -22.463  -6.859  -1.599  1.00  0.00     0.000 C 
BRANCH  25  26
HETATM   26  C   UNL     1     -22.018  -7.306  -0.215  1.00  0.00     0.000 C 
BRANCH  26  27
HETATM   27  C   UNL     1     -21.582  -8.760  -0.254  1.00  0.00     0.000 C 
BRANCH  27  28
HETATM   28  C   UNL     1     -22.317  -9.499  -1.359  1.00  0.00    -0.000 C 
BRANCH  28  29
HETATM   29  C   UNL     1     -22.663 -10.912  -0.909  1.00  0.00    -0.005 C 
HETATM   30  C   UNL     1     -24.007 -10.927  -0.208  1.00  0.00     0.005 C 
ENDBRANCH  28  29
ENDBRANCH  27  28
ENDBRANCH  26  27
ENDBRANCH  25  26
ENDBRANCH  24  25
ENDBRANCH  23  24
ENDBRANCH  16  23
ENDBRANCH   1  16
TORSDOF 25
ENDMDL
MODEL 9
REMARK VINA RESULT:      -6.1      1.678      9.544
REMARK  25 active torsions:
REMARK  status: ('A' for Active; 'I' for Inactive)
REMARK    1  A    between atoms: C_2  and  C_3 
REMARK    2  A    between atoms: C_3  and  C_4 
REMARK    3  A    between atoms: C_4  and  C_5 
REMARK    4  A    between atoms: C_5  and  C_6 
REMARK    5  A    between atoms: C_6  and  C_7 
REMARK    6  A    between atoms: C_7  and  C_8 
REMARK    7  A    between atoms: C_8  and  C_9 
REMARK    8  A    between atoms: C_9  and  C_10 
REMARK    9  A    between atoms: C_10  and  C_11 
REMARK   10  A    between atoms: C_11  and  C_12 
REMARK   11  A    between atoms: C_12  and  O_14 
REMARK   12  A    between atoms: O_14  and  C_15 
REMARK   13  A    between atoms: C_15  and  C_16 
REMARK   14  A    between atoms: C_16  and  C_17 
REMARK   15  A    between atoms: C_16  and  C_23 
REMARK   16  A    between atoms: C_17  and  C_18 
REMARK   17  A    between atoms: C_18  and  C_19 
REMARK   18  A    between atoms: C_19  and  C_20 
REMARK   19  A    between atoms: C_20  and  C_21 
REMARK   20  A    between atoms: C_23  and  C_24 
REMARK   21  A    between atoms: C_24  and  C_25 
REMARK   22  A    between atoms: C_25  and  C_26 
REMARK   23  A    between atoms: C_26  and  C_27 
REMARK   24  A    between atoms: C_27  and  C_28 
REMARK   25  A    between atoms: C_28  and  C_29 
ROOT
HETATM    1  C   UNL     1     -21.772  -6.271  -4.092  1.00  0.00     0.183 C 
ENDROOT
BRANCH   1   2
HETATM    2  O   UNL     1     -21.479  -5.959  -2.729  1.00  0.00    -0.321 OA
BRANCH   2   3
HETATM    3  C   UNL     1     -21.399  -7.049  -1.900  1.00  0.00     0.258 C 
HETATM    4  O   UNL     1     -20.545  -7.906  -1.934  1.00  0.00    -0.265 OA
BRANCH   3   5
HETATM    5  C   UNL     1     -22.471  -6.974  -0.833  1.00  0.00     0.111 C 
BRANCH   5   6
HETATM    6  C   UNL     1     -22.474  -8.257  -0.025  1.00  0.00     0.010 C 
BRANCH   6   7
HETATM    7  C   UNL     1     -21.810  -8.098   1.335  1.00  0.00     0.000 C 
BRANCH   7   8
HETATM    8  C   UNL     1     -20.732  -9.161   1.507  1.00  0.00     0.000 C 
BRANCH   8   9
HETATM    9  C   UNL     1     -21.137 -10.451   0.814  1.00  0.00     0.000 C 
BRANCH   9  10
HETATM   10  C   UNL     1     -19.998 -10.970  -0.051  1.00  0.00     0.000 C 
BRANCH  10  11
HETATM   11  C   UNL     1     -20.254 -12.418  -0.438  1.00  0.00     0.000 C 
BRANCH  11  12
HETATM   12  C   UNL     1     -21.650 -12.569  -1.024  1.00  0.00     0.000 C 
BRANCH  12  13
HETATM   13  C   UNL     1     -21.733 -11.863  -2.368  1.00  0.00    -0.000 C 
BRANCH  13  14
HETATM   14  C   UNL     1     -23.054 -11.113  -2.495  1.00  0.00    -0.005 C 
HETATM   15  C   UNL     1     -23.927 -11.375  -1.281  1.00  0.00     0.005 C 
ENDBRANCH  13  14
ENDBRANCH  12  13
ENDBRANCH  11  12
ENDBRANCH  10  11
ENDBRANCH   9  10
ENDBRANCH   8   9
ENDBRANCH   7   8
ENDBRANCH   6   7
ENDBRANCH   5   6
ENDBRANCH   3   5
ENDBRANCH   2   3
ENDBRANCH   1   2
BRANCH   1  16
HETATM   16  C   UNL     1     -20.609  -6.012  -5.057  1.00  0.00     0.010 C 
BRANCH  16  17
HETATM   17  C   UNL     1     -20.153  -7.309  -5.749  1.00  0.00     0.007 C 
BRANCH  17  18
HETATM   18  C   UNL     1     -21.050  -8.484  -5.391  1.00  0.00     0.000 C 
BRANCH  18  19
HETATM   19  C   UNL     1     -20.237  -9.720  -5.083  1.00  0.00     0.000 C 
BRANCH  19  20
HETATM   20  C   UNL     1     -18.776  -9.310  -5.001  1.00  0.00    -0.000 C 
BRANCH  20  21
HETATM   21  C   UNL     1     -17.941 -10.206  -5.888  1.00  0.00    -0.005 C 
HETATM   22  C   UNL     1     -18.588 -11.569  -6.016  1.00  0.00     0.005 C 
ENDBRANCH  20  21
ENDBRANCH  19  20
ENDBRANCH  18  19
ENDBRANCH  17  18
ENDBRANCH  16  17
BRANCH  16  23
HETATM   23  C   UNL     1     -21.000  -4.954  -6.099  1.00  0.00     0.007 C 
BRANCH  23  24
HETATM   24  C   UNL     1     -20.312  -5.165  -7.437  1.00  0.00     0.000 C 
BRANCH  24  25
HETATM   25  C   UNL     1     -21.207  -4.736  -8.583  1.00  0.00     0.000 C 
BRANCH  25  26
HETATM   26  C   UNL     1     -20.350  -4.360  -9.782  1.00  0.00     0.000 C 
BRANCH  26  27
HETATM   27  C   UNL     1     -21.235  -4.073 -10.982  1.00  0.00     0.000 C 
BRANCH  27  28
HETATM   28  C   UNL     1     -22.660  -4.522 -10.705  1.00  0.00    -0.000 C 
BRANCH  28  29
HETATM   29  C   UNL     1     -23.628  -3.819 -11.646  1.00  0.00    -0.005 C 
HETATM   30  C   UNL     1     -22.928  -2.685 -12.371  1.00  0.00     0.005 C 
ENDBRANCH  28  29
ENDBRANCH  27  28
ENDBRANCH  26  27
ENDBRANCH  25  26
ENDBRANCH  24  25
ENDBRANCH  23  24
ENDBRANCH  16  23
ENDBRANCH   1  16
TORSDOF 25
ENDMDL
