MODEL 1
REMARK VINA RESULT:      -1.3      0.000      0.000
REMARK WARNING: 32 MAX_TORS EXCEEDED!!!
REMARK  98 active torsions:
REMARK  status: ('A' for Active; 'I' for Inactive)
REMARK    1  A    between atoms: C_2  and  C_3 
REMARK    2  A    between atoms: C_3  and  C_4 
REMARK    3  A    between atoms: C_4  and  C_5 
REMARK    4  A    between atoms: C_5  and  C_6 
REMARK    5  A    between atoms: C_6  and  C_7 
REMARK    6  A    between atoms: C_7  and  C_8 
REMARK    7  A    between atoms: C_8  and  C_9 
REMARK    8  A    between atoms: C_9  and  C_10 
REMARK    9  A    between atoms: C_10  and  C_11 
REMARK   10  A    between atoms: C_11  and  C_12 
REMARK   11  A    between atoms: C_12  and  C_13 
REMARK   12  A    between atoms: C_13  and  C_14 
REMARK   13  A    between atoms: C_14  and  C_15 
REMARK   14  A    between atoms: C_15  and  C_16 
REMARK   15  A    between atoms: C_16  and  C_17 
REMARK   16  A    between atoms: C_17  and  C_18 
REMARK   17  A    between atoms: C_22  and  C_23 
REMARK   18  A    between atoms: C_23  and  C_24 
REMARK   19  A    between atoms: C_24  and  C_25 
REMARK   20  A    between atoms: C_25  and  C_26 
REMARK   21  A    between atoms: C_26  and  C_27 
REMARK   22  A    between atoms: C_27  and  C_28 
REMARK   23  A    between atoms: C_28  and  C_29 
REMARK   24  A    between atoms: C_29  and  C_30 
REMARK   25  A    between atoms: C_30  and  C_31 
REMARK   26  A    between atoms: C_31  and  C_32 
REMARK   27  A    between atoms: C_32  and  C_33 
REMARK   28  A    between atoms: C_33  and  C_34 
REMARK   29  A    between atoms: C_34  and  C_35 
REMARK   30  A    between atoms: C_35  and  C_36 
REMARK   31  A    between atoms: C_36  and  C_37 
REMARK   32  A    between atoms: C_37  and  C_38 
REMARK   33  A    between atoms: C_42  and  C_43 
REMARK   34  A    between atoms: C_43  and  C_44 
REMARK   35  A    between atoms: C_44  and  C_45 
REMARK   36  A    between atoms: C_45  and  C_46 
REMARK   37  A    between atoms: C_46  and  C_47 
REMARK   38  A    between atoms: C_47  and  C_48 
REMARK   39  A    between atoms: C_48  and  C_49 
REMARK   40  A    between atoms: C_49  and  C_50 
REMARK   41  A    between atoms: C_50  and  C_51 
REMARK   42  A    between atoms: C_51  and  C_52 
REMARK   43  A    between atoms: C_52  and  C_53 
REMARK   44  A    between atoms: C_53  and  C_54 
REMARK   45  A    between atoms: C_54  and  C_55 
REMARK   46  A    between atoms: C_55  and  C_56 
REMARK   47  A    between atoms: C_56  and  C_57 
REMARK   48  A    between atoms: C_57  and  C_58 
REMARK   49  A    between atoms: C_58  and  O_60 
REMARK   50  A    between atoms: O_60  and  C_61 
REMARK   51  A    between atoms: C_61  and  C_62 
REMARK   52  A    between atoms: C_62  and  C_63 
REMARK   53  A    between atoms: C_62  and  O_65 
REMARK   54  A    between atoms: C_63  and  O_64 
REMARK   55  A    between atoms: C_69  and  C_70 
REMARK   56  A    between atoms: C_70  and  C_71 
REMARK   57  A    between atoms: C_71  and  C_72 
REMARK   58  A    between atoms: C_72  and  C_73 
REMARK   59  A    between atoms: C_73  and  C_74 
REMARK   60  A    between atoms: C_74  and  C_75 
REMARK   61  A    between atoms: C_75  and  C_76 
REMARK   62  A    between atoms: C_76  and  C_77 
REMARK   63  A    between atoms: C_77  and  C_78 
REMARK   64  A    between atoms: C_78  and  C_79 
REMARK   65  A    between atoms: C_79  and  C_80 
REMARK   66  A    between atoms: C_80  and  C_81 
REMARK   67  A    between atoms: C_81  and  C_82 
REMARK   68  A    between atoms: C_82  and  C_83 
REMARK   69  A    between atoms: C_83  and  C_84 
REMARK   70  A    between atoms: C_84  and  C_85 
REMARK   71  A    between atoms: C_85  and  O_87 
REMARK   72  A    between atoms: O_87  and  C_88 
REMARK   73  A    between atoms: C_88  and  C_89 
REMARK   74  A    between atoms: C_89  and  C_90 
REMARK   75  A    between atoms: C_89  and  O_92 
REMARK   76  A    between atoms: C_90  and  O_91 
REMARK   77  A    between atoms: C_96  and  C_97 
REMARK   78  A    between atoms: C_97  and  C_98 
REMARK   79  A    between atoms: C_98  and  C_99 
REMARK   80  A    between atoms: C_99  and  C_100 
REMARK   81  A    between atoms: C_100  and  C_101 
REMARK   82  A    between atoms: C_101  and  C_102 
REMARK   83  A    between atoms: C_102  and  C_103 
REMARK   84  A    between atoms: C_103  and  C_104 
REMARK   85  A    between atoms: C_104  and  C_105 
REMARK   86  A    between atoms: C_105  and  C_106 
REMARK   87  A    between atoms: C_106  and  C_107 
REMARK   88  A    between atoms: C_107  and  C_108 
REMARK   89  A    between atoms: C_108  and  C_109 
REMARK   90  A    between atoms: C_109  and  C_110 
REMARK   91  A    between atoms: C_110  and  C_111 
REMARK   92  A    between atoms: C_111  and  C_112 
REMARK   93  A    between atoms: C_112  and  O_114 
REMARK   94  A    between atoms: O_114  and  C_115 
REMARK   95  A    between atoms: C_115  and  C_116 
REMARK   96  A    between atoms: C_115  and  C_118 
REMARK   97  A    between atoms: C_116  and  O_117 
REMARK   98  A    between atoms: C_118  and  O_119 
ROOT
HETATM    1 NA   UNL     6     -32.324  -8.576   4.529  1.00  0.00     0.000 Na
ENDROOT
TORSDOF 98
ENDMDL
MODEL 2
REMARK VINA RESULT:      -1.3     23.494     23.494
REMARK WARNING: 32 MAX_TORS EXCEEDED!!!
REMARK  98 active torsions:
REMARK  status: ('A' for Active; 'I' for Inactive)
REMARK    1  A    between atoms: C_2  and  C_3 
REMARK    2  A    between atoms: C_3  and  C_4 
REMARK    3  A    between atoms: C_4  and  C_5 
REMARK    4  A    between atoms: C_5  and  C_6 
REMARK    5  A    between atoms: C_6  and  C_7 
REMARK    6  A    between atoms: C_7  and  C_8 
REMARK    7  A    between atoms: C_8  and  C_9 
REMARK    8  A    between atoms: C_9  and  C_10 
REMARK    9  A    between atoms: C_10  and  C_11 
REMARK   10  A    between atoms: C_11  and  C_12 
REMARK   11  A    between atoms: C_12  and  C_13 
REMARK   12  A    between atoms: C_13  and  C_14 
REMARK   13  A    between atoms: C_14  and  C_15 
REMARK   14  A    between atoms: C_15  and  C_16 
REMARK   15  A    between atoms: C_16  and  C_17 
REMARK   16  A    between atoms: C_17  and  C_18 
REMARK   17  A    between atoms: C_22  and  C_23 
REMARK   18  A    between atoms: C_23  and  C_24 
REMARK   19  A    between atoms: C_24  and  C_25 
REMARK   20  A    between atoms: C_25  and  C_26 
REMARK   21  A    between atoms: C_26  and  C_27 
REMARK   22  A    between atoms: C_27  and  C_28 
REMARK   23  A    between atoms: C_28  and  C_29 
REMARK   24  A    between atoms: C_29  and  C_30 
REMARK   25  A    between atoms: C_30  and  C_31 
REMARK   26  A    between atoms: C_31  and  C_32 
REMARK   27  A    between atoms: C_32  and  C_33 
REMARK   28  A    between atoms: C_33  and  C_34 
REMARK   29  A    between atoms: C_34  and  C_35 
REMARK   30  A    between atoms: C_35  and  C_36 
REMARK   31  A    between atoms: C_36  and  C_37 
REMARK   32  A    between atoms: C_37  and  C_38 
REMARK   33  A    between atoms: C_42  and  C_43 
REMARK   34  A    between atoms: C_43  and  C_44 
REMARK   35  A    between atoms: C_44  and  C_45 
REMARK   36  A    between atoms: C_45  and  C_46 
REMARK   37  A    between atoms: C_46  and  C_47 
REMARK   38  A    between atoms: C_47  and  C_48 
REMARK   39  A    between atoms: C_48  and  C_49 
REMARK   40  A    between atoms: C_49  and  C_50 
REMARK   41  A    between atoms: C_50  and  C_51 
REMARK   42  A    between atoms: C_51  and  C_52 
REMARK   43  A    between atoms: C_52  and  C_53 
REMARK   44  A    between atoms: C_53  and  C_54 
REMARK   45  A    between atoms: C_54  and  C_55 
REMARK   46  A    between atoms: C_55  and  C_56 
REMARK   47  A    between atoms: C_56  and  C_57 
REMARK   48  A    between atoms: C_57  and  C_58 
REMARK   49  A    between atoms: C_58  and  O_60 
REMARK   50  A    between atoms: O_60  and  C_61 
REMARK   51  A    between atoms: C_61  and  C_62 
REMARK   52  A    between atoms: C_62  and  C_63 
REMARK   53  A    between atoms: C_62  and  O_65 
REMARK   54  A    between atoms: C_63  and  O_64 
REMARK   55  A    between atoms: C_69  and  C_70 
REMARK   56  A    between atoms: C_70  and  C_71 
REMARK   57  A    between atoms: C_71  and  C_72 
REMARK   58  A    between atoms: C_72  and  C_73 
REMARK   59  A    between atoms: C_73  and  C_74 
REMARK   60  A    between atoms: C_74  and  C_75 
REMARK   61  A    between atoms: C_75  and  C_76 
REMARK   62  A    between atoms: C_76  and  C_77 
REMARK   63  A    between atoms: C_77  and  C_78 
REMARK   64  A    between atoms: C_78  and  C_79 
REMARK   65  A    between atoms: C_79  and  C_80 
REMARK   66  A    between atoms: C_80  and  C_81 
REMARK   67  A    between atoms: C_81  and  C_82 
REMARK   68  A    between atoms: C_82  and  C_83 
REMARK   69  A    between atoms: C_83  and  C_84 
REMARK   70  A    between atoms: C_84  and  C_85 
REMARK   71  A    between atoms: C_85  and  O_87 
REMARK   72  A    between atoms: O_87  and  C_88 
REMARK   73  A    between atoms: C_88  and  C_89 
REMARK   74  A    between atoms: C_89  and  C_90 
REMARK   75  A    between atoms: C_89  and  O_92 
REMARK   76  A    between atoms: C_90  and  O_91 
REMARK   77  A    between atoms: C_96  and  C_97 
REMARK   78  A    between atoms: C_97  and  C_98 
REMARK   79  A    between atoms: C_98  and  C_99 
REMARK   80  A    between atoms: C_99  and  C_100 
REMARK   81  A    between atoms: C_100  and  C_101 
REMARK   82  A    between atoms: C_101  and  C_102 
REMARK   83  A    between atoms: C_102  and  C_103 
REMARK   84  A    between atoms: C_103  and  C_104 
REMARK   85  A    between atoms: C_104  and  C_105 
REMARK   86  A    between atoms: C_105  and  C_106 
REMARK   87  A    between atoms: C_106  and  C_107 
REMARK   88  A    between atoms: C_107  and  C_108 
REMARK   89  A    between atoms: C_108  and  C_109 
REMARK   90  A    between atoms: C_109  and  C_110 
REMARK   91  A    between atoms: C_110  and  C_111 
REMARK   92  A    between atoms: C_111  and  C_112 
REMARK   93  A    between atoms: C_112  and  O_114 
REMARK   94  A    between atoms: O_114  and  C_115 
REMARK   95  A    between atoms: C_115  and  C_116 
REMARK   96  A    between atoms: C_115  and  C_118 
REMARK   97  A    between atoms: C_116  and  O_117 
REMARK   98  A    between atoms: C_118  and  O_119 
ROOT
HETATM    1 NA   UNL     6     -11.257   1.620   2.468  1.00  0.00     0.000 Na
ENDROOT
TORSDOF 98
ENDMDL
MODEL 3
REMARK VINA RESULT:      -1.2     19.033     19.033
REMARK WARNING: 32 MAX_TORS EXCEEDED!!!
REMARK  98 active torsions:
REMARK  status: ('A' for Active; 'I' for Inactive)
REMARK    1  A    between atoms: C_2  and  C_3 
REMARK    2  A    between atoms: C_3  and  C_4 
REMARK    3  A    between atoms: C_4  and  C_5 
REMARK    4  A    between atoms: C_5  and  C_6 
REMARK    5  A    between atoms: C_6  and  C_7 
REMARK    6  A    between atoms: C_7  and  C_8 
REMARK    7  A    between atoms: C_8  and  C_9 
REMARK    8  A    between atoms: C_9  and  C_10 
REMARK    9  A    between atoms: C_10  and  C_11 
REMARK   10  A    between atoms: C_11  and  C_12 
REMARK   11  A    between atoms: C_12  and  C_13 
REMARK   12  A    between atoms: C_13  and  C_14 
REMARK   13  A    between atoms: C_14  and  C_15 
REMARK   14  A    between atoms: C_15  and  C_16 
REMARK   15  A    between atoms: C_16  and  C_17 
REMARK   16  A    between atoms: C_17  and  C_18 
REMARK   17  A    between atoms: C_22  and  C_23 
REMARK   18  A    between atoms: C_23  and  C_24 
REMARK   19  A    between atoms: C_24  and  C_25 
REMARK   20  A    between atoms: C_25  and  C_26 
REMARK   21  A    between atoms: C_26  and  C_27 
REMARK   22  A    between atoms: C_27  and  C_28 
REMARK   23  A    between atoms: C_28  and  C_29 
REMARK   24  A    between atoms: C_29  and  C_30 
REMARK   25  A    between atoms: C_30  and  C_31 
REMARK   26  A    between atoms: C_31  and  C_32 
REMARK   27  A    between atoms: C_32  and  C_33 
REMARK   28  A    between atoms: C_33  and  C_34 
REMARK   29  A    between atoms: C_34  and  C_35 
REMARK   30  A    between atoms: C_35  and  C_36 
REMARK   31  A    between atoms: C_36  and  C_37 
REMARK   32  A    between atoms: C_37  and  C_38 
REMARK   33  A    between atoms: C_42  and  C_43 
REMARK   34  A    between atoms: C_43  and  C_44 
REMARK   35  A    between atoms: C_44  and  C_45 
REMARK   36  A    between atoms: C_45  and  C_46 
REMARK   37  A    between atoms: C_46  and  C_47 
REMARK   38  A    between atoms: C_47  and  C_48 
REMARK   39  A    between atoms: C_48  and  C_49 
REMARK   40  A    between atoms: C_49  and  C_50 
REMARK   41  A    between atoms: C_50  and  C_51 
REMARK   42  A    between atoms: C_51  and  C_52 
REMARK   43  A    between atoms: C_52  and  C_53 
REMARK   44  A    between atoms: C_53  and  C_54 
REMARK   45  A    between atoms: C_54  and  C_55 
REMARK   46  A    between atoms: C_55  and  C_56 
REMARK   47  A    between atoms: C_56  and  C_57 
REMARK   48  A    between atoms: C_57  and  C_58 
REMARK   49  A    between atoms: C_58  and  O_60 
REMARK   50  A    between atoms: O_60  and  C_61 
REMARK   51  A    between atoms: C_61  and  C_62 
REMARK   52  A    between atoms: C_62  and  C_63 
REMARK   53  A    between atoms: C_62  and  O_65 
REMARK   54  A    between atoms: C_63  and  O_64 
REMARK   55  A    between atoms: C_69  and  C_70 
REMARK   56  A    between atoms: C_70  and  C_71 
REMARK   57  A    between atoms: C_71  and  C_72 
REMARK   58  A    between atoms: C_72  and  C_73 
REMARK   59  A    between atoms: C_73  and  C_74 
REMARK   60  A    between atoms: C_74  and  C_75 
REMARK   61  A    between atoms: C_75  and  C_76 
REMARK   62  A    between atoms: C_76  and  C_77 
REMARK   63  A    between atoms: C_77  and  C_78 
REMARK   64  A    between atoms: C_78  and  C_79 
REMARK   65  A    between atoms: C_79  and  C_80 
REMARK   66  A    between atoms: C_80  and  C_81 
REMARK   67  A    between atoms: C_81  and  C_82 
REMARK   68  A    between atoms: C_82  and  C_83 
REMARK   69  A    between atoms: C_83  and  C_84 
REMARK   70  A    between atoms: C_84  and  C_85 
REMARK   71  A    between atoms: C_85  and  O_87 
REMARK   72  A    between atoms: O_87  and  C_88 
REMARK   73  A    between atoms: C_88  and  C_89 
REMARK   74  A    between atoms: C_89  and  C_90 
REMARK   75  A    between atoms: C_89  and  O_92 
REMARK   76  A    between atoms: C_90  and  O_91 
REMARK   77  A    between atoms: C_96  and  C_97 
REMARK   78  A    between atoms: C_97  and  C_98 
REMARK   79  A    between atoms: C_98  and  C_99 
REMARK   80  A    between atoms: C_99  and  C_100 
REMARK   81  A    between atoms: C_100  and  C_101 
REMARK   82  A    between atoms: C_101  and  C_102 
REMARK   83  A    between atoms: C_102  and  C_103 
REMARK   84  A    between atoms: C_103  and  C_104 
REMARK   85  A    between atoms: C_104  and  C_105 
REMARK   86  A    between atoms: C_105  and  C_106 
REMARK   87  A    between atoms: C_106  and  C_107 
REMARK   88  A    between atoms: C_107  and  C_108 
REMARK   89  A    between atoms: C_108  and  C_109 
REMARK   90  A    between atoms: C_109  and  C_110 
REMARK   91  A    between atoms: C_110  and  C_111 
REMARK   92  A    between atoms: C_111  and  C_112 
REMARK   93  A    between atoms: C_112  and  O_114 
REMARK   94  A    between atoms: O_114  and  C_115 
REMARK   95  A    between atoms: C_115  and  C_116 
REMARK   96  A    between atoms: C_115  and  C_118 
REMARK   97  A    between atoms: C_116  and  O_117 
REMARK   98  A    between atoms: C_118  and  O_119 
ROOT
HETATM    1 NA   UNL     6     -27.015 -13.665 -13.026  1.00  0.00     0.000 Na
ENDROOT
TORSDOF 98
ENDMDL
MODEL 4
REMARK VINA RESULT:      -1.2     22.209     22.209
REMARK WARNING: 32 MAX_TORS EXCEEDED!!!
REMARK  98 active torsions:
REMARK  status: ('A' for Active; 'I' for Inactive)
REMARK    1  A    between atoms: C_2  and  C_3 
REMARK    2  A    between atoms: C_3  and  C_4 
REMARK    3  A    between atoms: C_4  and  C_5 
REMARK    4  A    between atoms: C_5  and  C_6 
REMARK    5  A    between atoms: C_6  and  C_7 
REMARK    6  A    between atoms: C_7  and  C_8 
REMARK    7  A    between atoms: C_8  and  C_9 
REMARK    8  A    between atoms: C_9  and  C_10 
REMARK    9  A    between atoms: C_10  and  C_11 
REMARK   10  A    between atoms: C_11  and  C_12 
REMARK   11  A    between atoms: C_12  and  C_13 
REMARK   12  A    between atoms: C_13  and  C_14 
REMARK   13  A    between atoms: C_14  and  C_15 
REMARK   14  A    between atoms: C_15  and  C_16 
REMARK   15  A    between atoms: C_16  and  C_17 
REMARK   16  A    between atoms: C_17  and  C_18 
REMARK   17  A    between atoms: C_22  and  C_23 
REMARK   18  A    between atoms: C_23  and  C_24 
REMARK   19  A    between atoms: C_24  and  C_25 
REMARK   20  A    between atoms: C_25  and  C_26 
REMARK   21  A    between atoms: C_26  and  C_27 
REMARK   22  A    between atoms: C_27  and  C_28 
REMARK   23  A    between atoms: C_28  and  C_29 
REMARK   24  A    between atoms: C_29  and  C_30 
REMARK   25  A    between atoms: C_30  and  C_31 
REMARK   26  A    between atoms: C_31  and  C_32 
REMARK   27  A    between atoms: C_32  and  C_33 
REMARK   28  A    between atoms: C_33  and  C_34 
REMARK   29  A    between atoms: C_34  and  C_35 
REMARK   30  A    between atoms: C_35  and  C_36 
REMARK   31  A    between atoms: C_36  and  C_37 
REMARK   32  A    between atoms: C_37  and  C_38 
REMARK   33  A    between atoms: C_42  and  C_43 
REMARK   34  A    between atoms: C_43  and  C_44 
REMARK   35  A    between atoms: C_44  and  C_45 
REMARK   36  A    between atoms: C_45  and  C_46 
REMARK   37  A    between atoms: C_46  and  C_47 
REMARK   38  A    between atoms: C_47  and  C_48 
REMARK   39  A    between atoms: C_48  and  C_49 
REMARK   40  A    between atoms: C_49  and  C_50 
REMARK   41  A    between atoms: C_50  and  C_51 
REMARK   42  A    between atoms: C_51  and  C_52 
REMARK   43  A    between atoms: C_52  and  C_53 
REMARK   44  A    between atoms: C_53  and  C_54 
REMARK   45  A    between atoms: C_54  and  C_55 
REMARK   46  A    between atoms: C_55  and  C_56 
REMARK   47  A    between atoms: C_56  and  C_57 
REMARK   48  A    between atoms: C_57  and  C_58 
REMARK   49  A    between atoms: C_58  and  O_60 
REMARK   50  A    between atoms: O_60  and  C_61 
REMARK   51  A    between atoms: C_61  and  C_62 
REMARK   52  A    between atoms: C_62  and  C_63 
REMARK   53  A    between atoms: C_62  and  O_65 
REMARK   54  A    between atoms: C_63  and  O_64 
REMARK   55  A    between atoms: C_69  and  C_70 
REMARK   56  A    between atoms: C_70  and  C_71 
REMARK   57  A    between atoms: C_71  and  C_72 
REMARK   58  A    between atoms: C_72  and  C_73 
REMARK   59  A    between atoms: C_73  and  C_74 
REMARK   60  A    between atoms: C_74  and  C_75 
REMARK   61  A    between atoms: C_75  and  C_76 
REMARK   62  A    between atoms: C_76  and  C_77 
REMARK   63  A    between atoms: C_77  and  C_78 
REMARK   64  A    between atoms: C_78  and  C_79 
REMARK   65  A    between atoms: C_79  and  C_80 
REMARK   66  A    between atoms: C_80  and  C_81 
REMARK   67  A    between atoms: C_81  and  C_82 
REMARK   68  A    between atoms: C_82  and  C_83 
REMARK   69  A    between atoms: C_83  and  C_84 
REMARK   70  A    between atoms: C_84  and  C_85 
REMARK   71  A    between atoms: C_85  and  O_87 
REMARK   72  A    between atoms: O_87  and  C_88 
REMARK   73  A    between atoms: C_88  and  C_89 
REMARK   74  A    between atoms: C_89  and  C_90 
REMARK   75  A    between atoms: C_89  and  O_92 
REMARK   76  A    between atoms: C_90  and  O_91 
REMARK   77  A    between atoms: C_96  and  C_97 
REMARK   78  A    between atoms: C_97  and  C_98 
REMARK   79  A    between atoms: C_98  and  C_99 
REMARK   80  A    between atoms: C_99  and  C_100 
REMARK   81  A    between atoms: C_100  and  C_101 
REMARK   82  A    between atoms: C_101  and  C_102 
REMARK   83  A    between atoms: C_102  and  C_103 
REMARK   84  A    between atoms: C_103  and  C_104 
REMARK   85  A    between atoms: C_104  and  C_105 
REMARK   86  A    between atoms: C_105  and  C_106 
REMARK   87  A    between atoms: C_106  and  C_107 
REMARK   88  A    between atoms: C_107  and  C_108 
REMARK   89  A    between atoms: C_108  and  C_109 
REMARK   90  A    between atoms: C_109  and  C_110 
REMARK   91  A    between atoms: C_110  and  C_111 
REMARK   92  A    between atoms: C_111  and  C_112 
REMARK   93  A    between atoms: C_112  and  O_114 
REMARK   94  A    between atoms: O_114  and  C_115 
REMARK   95  A    between atoms: C_115  and  C_116 
REMARK   96  A    between atoms: C_115  and  C_118 
REMARK   97  A    between atoms: C_116  and  O_117 
REMARK   98  A    between atoms: C_118  and  O_119 
ROOT
HETATM    1 NA   UNL     6     -25.113   0.407 -14.459  1.00  0.00     0.000 Na
ENDROOT
TORSDOF 98
ENDMDL
MODEL 5
REMARK VINA RESULT:      -1.2     34.909     34.909
REMARK WARNING: 32 MAX_TORS EXCEEDED!!!
REMARK  98 active torsions:
REMARK  status: ('A' for Active; 'I' for Inactive)
REMARK    1  A    between atoms: C_2  and  C_3 
REMARK    2  A    between atoms: C_3  and  C_4 
REMARK    3  A    between atoms: C_4  and  C_5 
REMARK    4  A    between atoms: C_5  and  C_6 
REMARK    5  A    between atoms: C_6  and  C_7 
REMARK    6  A    between atoms: C_7  and  C_8 
REMARK    7  A    between atoms: C_8  and  C_9 
REMARK    8  A    between atoms: C_9  and  C_10 
REMARK    9  A    between atoms: C_10  and  C_11 
REMARK   10  A    between atoms: C_11  and  C_12 
REMARK   11  A    between atoms: C_12  and  C_13 
REMARK   12  A    between atoms: C_13  and  C_14 
REMARK   13  A    between atoms: C_14  and  C_15 
REMARK   14  A    between atoms: C_15  and  C_16 
REMARK   15  A    between atoms: C_16  and  C_17 
REMARK   16  A    between atoms: C_17  and  C_18 
REMARK   17  A    between atoms: C_22  and  C_23 
REMARK   18  A    between atoms: C_23  and  C_24 
REMARK   19  A    between atoms: C_24  and  C_25 
REMARK   20  A    between atoms: C_25  and  C_26 
REMARK   21  A    between atoms: C_26  and  C_27 
REMARK   22  A    between atoms: C_27  and  C_28 
REMARK   23  A    between atoms: C_28  and  C_29 
REMARK   24  A    between atoms: C_29  and  C_30 
REMARK   25  A    between atoms: C_30  and  C_31 
REMARK   26  A    between atoms: C_31  and  C_32 
REMARK   27  A    between atoms: C_32  and  C_33 
REMARK   28  A    between atoms: C_33  and  C_34 
REMARK   29  A    between atoms: C_34  and  C_35 
REMARK   30  A    between atoms: C_35  and  C_36 
REMARK   31  A    between atoms: C_36  and  C_37 
REMARK   32  A    between atoms: C_37  and  C_38 
REMARK   33  A    between atoms: C_42  and  C_43 
REMARK   34  A    between atoms: C_43  and  C_44 
REMARK   35  A    between atoms: C_44  and  C_45 
REMARK   36  A    between atoms: C_45  and  C_46 
REMARK   37  A    between atoms: C_46  and  C_47 
REMARK   38  A    between atoms: C_47  and  C_48 
REMARK   39  A    between atoms: C_48  and  C_49 
REMARK   40  A    between atoms: C_49  and  C_50 
REMARK   41  A    between atoms: C_50  and  C_51 
REMARK   42  A    between atoms: C_51  and  C_52 
REMARK   43  A    between atoms: C_52  and  C_53 
REMARK   44  A    between atoms: C_53  and  C_54 
REMARK   45  A    between atoms: C_54  and  C_55 
REMARK   46  A    between atoms: C_55  and  C_56 
REMARK   47  A    between atoms: C_56  and  C_57 
REMARK   48  A    between atoms: C_57  and  C_58 
REMARK   49  A    between atoms: C_58  and  O_60 
REMARK   50  A    between atoms: O_60  and  C_61 
REMARK   51  A    between atoms: C_61  and  C_62 
REMARK   52  A    between atoms: C_62  and  C_63 
REMARK   53  A    between atoms: C_62  and  O_65 
REMARK   54  A    between atoms: C_63  and  O_64 
REMARK   55  A    between atoms: C_69  and  C_70 
REMARK   56  A    between atoms: C_70  and  C_71 
REMARK   57  A    between atoms: C_71  and  C_72 
REMARK   58  A    between atoms: C_72  and  C_73 
REMARK   59  A    between atoms: C_73  and  C_74 
REMARK   60  A    between atoms: C_74  and  C_75 
REMARK   61  A    between atoms: C_75  and  C_76 
REMARK   62  A    between atoms: C_76  and  C_77 
REMARK   63  A    between atoms: C_77  and  C_78 
REMARK   64  A    between atoms: C_78  and  C_79 
REMARK   65  A    between atoms: C_79  and  C_80 
REMARK   66  A    between atoms: C_80  and  C_81 
REMARK   67  A    between atoms: C_81  and  C_82 
REMARK   68  A    between atoms: C_82  and  C_83 
REMARK   69  A    between atoms: C_83  and  C_84 
REMARK   70  A    between atoms: C_84  and  C_85 
REMARK   71  A    between atoms: C_85  and  O_87 
REMARK   72  A    between atoms: O_87  and  C_88 
REMARK   73  A    between atoms: C_88  and  C_89 
REMARK   74  A    between atoms: C_89  and  C_90 
REMARK   75  A    between atoms: C_89  and  O_92 
REMARK   76  A    between atoms: C_90  and  O_91 
REMARK   77  A    between atoms: C_96  and  C_97 
REMARK   78  A    between atoms: C_97  and  C_98 
REMARK   79  A    between atoms: C_98  and  C_99 
REMARK   80  A    between atoms: C_99  and  C_100 
REMARK   81  A    between atoms: C_100  and  C_101 
REMARK   82  A    between atoms: C_101  and  C_102 
REMARK   83  A    between atoms: C_102  and  C_103 
REMARK   84  A    between atoms: C_103  and  C_104 
REMARK   85  A    between atoms: C_104  and  C_105 
REMARK   86  A    between atoms: C_105  and  C_106 
REMARK   87  A    between atoms: C_106  and  C_107 
REMARK   88  A    between atoms: C_107  and  C_108 
REMARK   89  A    between atoms: C_108  and  C_109 
REMARK   90  A    between atoms: C_109  and  C_110 
REMARK   91  A    between atoms: C_110  and  C_111 
REMARK   92  A    between atoms: C_111  and  C_112 
REMARK   93  A    between atoms: C_112  and  O_114 
REMARK   94  A    between atoms: O_114  and  C_115 
REMARK   95  A    between atoms: C_115  and  C_116 
REMARK   96  A    between atoms: C_115  and  C_118 
REMARK   97  A    between atoms: C_116  and  O_117 
REMARK   98  A    between atoms: C_118  and  O_119 
ROOT
HETATM    1 NA   UNL     6      -9.118   5.886 -17.175  1.00  0.00     0.000 Na
ENDROOT
TORSDOF 98
ENDMDL
MODEL 6
REMARK VINA RESULT:      -1.1     12.328     12.328
REMARK WARNING: 32 MAX_TORS EXCEEDED!!!
REMARK  98 active torsions:
REMARK  status: ('A' for Active; 'I' for Inactive)
REMARK    1  A    between atoms: C_2  and  C_3 
REMARK    2  A    between atoms: C_3  and  C_4 
REMARK    3  A    between atoms: C_4  and  C_5 
REMARK    4  A    between atoms: C_5  and  C_6 
REMARK    5  A    between atoms: C_6  and  C_7 
REMARK    6  A    between atoms: C_7  and  C_8 
REMARK    7  A    between atoms: C_8  and  C_9 
REMARK    8  A    between atoms: C_9  and  C_10 
REMARK    9  A    between atoms: C_10  and  C_11 
REMARK   10  A    between atoms: C_11  and  C_12 
REMARK   11  A    between atoms: C_12  and  C_13 
REMARK   12  A    between atoms: C_13  and  C_14 
REMARK   13  A    between atoms: C_14  and  C_15 
REMARK   14  A    between atoms: C_15  and  C_16 
REMARK   15  A    between atoms: C_16  and  C_17 
REMARK   16  A    between atoms: C_17  and  C_18 
REMARK   17  A    between atoms: C_22  and  C_23 
REMARK   18  A    between atoms: C_23  and  C_24 
REMARK   19  A    between atoms: C_24  and  C_25 
REMARK   20  A    between atoms: C_25  and  C_26 
REMARK   21  A    between atoms: C_26  and  C_27 
REMARK   22  A    between atoms: C_27  and  C_28 
REMARK   23  A    between atoms: C_28  and  C_29 
REMARK   24  A    between atoms: C_29  and  C_30 
REMARK   25  A    between atoms: C_30  and  C_31 
REMARK   26  A    between atoms: C_31  and  C_32 
REMARK   27  A    between atoms: C_32  and  C_33 
REMARK   28  A    between atoms: C_33  and  C_34 
REMARK   29  A    between atoms: C_34  and  C_35 
REMARK   30  A    between atoms: C_35  and  C_36 
REMARK   31  A    between atoms: C_36  and  C_37 
REMARK   32  A    between atoms: C_37  and  C_38 
REMARK   33  A    between atoms: C_42  and  C_43 
REMARK   34  A    between atoms: C_43  and  C_44 
REMARK   35  A    between atoms: C_44  and  C_45 
REMARK   36  A    between atoms: C_45  and  C_46 
REMARK   37  A    between atoms: C_46  and  C_47 
REMARK   38  A    between atoms: C_47  and  C_48 
REMARK   39  A    between atoms: C_48  and  C_49 
REMARK   40  A    between atoms: C_49  and  C_50 
REMARK   41  A    between atoms: C_50  and  C_51 
REMARK   42  A    between atoms: C_51  and  C_52 
REMARK   43  A    between atoms: C_52  and  C_53 
REMARK   44  A    between atoms: C_53  and  C_54 
REMARK   45  A    between atoms: C_54  and  C_55 
REMARK   46  A    between atoms: C_55  and  C_56 
REMARK   47  A    between atoms: C_56  and  C_57 
REMARK   48  A    between atoms: C_57  and  C_58 
REMARK   49  A    between atoms: C_58  and  O_60 
REMARK   50  A    between atoms: O_60  and  C_61 
REMARK   51  A    between atoms: C_61  and  C_62 
REMARK   52  A    between atoms: C_62  and  C_63 
REMARK   53  A    between atoms: C_62  and  O_65 
REMARK   54  A    between atoms: C_63  and  O_64 
REMARK   55  A    between atoms: C_69  and  C_70 
REMARK   56  A    between atoms: C_70  and  C_71 
REMARK   57  A    between atoms: C_71  and  C_72 
REMARK   58  A    between atoms: C_72  and  C_73 
REMARK   59  A    between atoms: C_73  and  C_74 
REMARK   60  A    between atoms: C_74  and  C_75 
REMARK   61  A    between atoms: C_75  and  C_76 
REMARK   62  A    between atoms: C_76  and  C_77 
REMARK   63  A    between atoms: C_77  and  C_78 
REMARK   64  A    between atoms: C_78  and  C_79 
REMARK   65  A    between atoms: C_79  and  C_80 
REMARK   66  A    between atoms: C_80  and  C_81 
REMARK   67  A    between atoms: C_81  and  C_82 
REMARK   68  A    between atoms: C_82  and  C_83 
REMARK   69  A    between atoms: C_83  and  C_84 
REMARK   70  A    between atoms: C_84  and  C_85 
REMARK   71  A    between atoms: C_85  and  O_87 
REMARK   72  A    between atoms: O_87  and  C_88 
REMARK   73  A    between atoms: C_88  and  C_89 
REMARK   74  A    between atoms: C_89  and  C_90 
REMARK   75  A    between atoms: C_89  and  O_92 
REMARK   76  A    between atoms: C_90  and  O_91 
REMARK   77  A    between atoms: C_96  and  C_97 
REMARK   78  A    between atoms: C_97  and  C_98 
REMARK   79  A    between atoms: C_98  and  C_99 
REMARK   80  A    between atoms: C_99  and  C_100 
REMARK   81  A    between atoms: C_100  and  C_101 
REMARK   82  A    between atoms: C_101  and  C_102 
REMARK   83  A    between atoms: C_102  and  C_103 
REMARK   84  A    between atoms: C_103  and  C_104 
REMARK   85  A    between atoms: C_104  and  C_105 
REMARK   86  A    between atoms: C_105  and  C_106 
REMARK   87  A    between atoms: C_106  and  C_107 
REMARK   88  A    between atoms: C_107  and  C_108 
REMARK   89  A    between atoms: C_108  and  C_109 
REMARK   90  A    between atoms: C_109  and  C_110 
REMARK   91  A    between atoms: C_110  and  C_111 
REMARK   92  A    between atoms: C_111  and  C_112 
REMARK   93  A    between atoms: C_112  and  O_114 
REMARK   94  A    between atoms: O_114  and  C_115 
REMARK   95  A    between atoms: C_115  and  C_116 
REMARK   96  A    between atoms: C_115  and  C_118 
REMARK   97  A    between atoms: C_116  and  O_117 
REMARK   98  A    between atoms: C_118  and  O_119 
ROOT
HETATM    1 NA   UNL     6     -25.223  -5.219  -4.974  1.00  0.00     0.000 Na
ENDROOT
TORSDOF 98
ENDMDL
MODEL 7
REMARK VINA RESULT:      -1.1      9.568      9.568
REMARK WARNING: 32 MAX_TORS EXCEEDED!!!
REMARK  98 active torsions:
REMARK  status: ('A' for Active; 'I' for Inactive)
REMARK    1  A    between atoms: C_2  and  C_3 
REMARK    2  A    between atoms: C_3  and  C_4 
REMARK    3  A    between atoms: C_4  and  C_5 
REMARK    4  A    between atoms: C_5  and  C_6 
REMARK    5  A    between atoms: C_6  and  C_7 
REMARK    6  A    between atoms: C_7  and  C_8 
REMARK    7  A    between atoms: C_8  and  C_9 
REMARK    8  A    between atoms: C_9  and  C_10 
REMARK    9  A    between atoms: C_10  and  C_11 
REMARK   10  A    between atoms: C_11  and  C_12 
REMARK   11  A    between atoms: C_12  and  C_13 
REMARK   12  A    between atoms: C_13  and  C_14 
REMARK   13  A    between atoms: C_14  and  C_15 
REMARK   14  A    between atoms: C_15  and  C_16 
REMARK   15  A    between atoms: C_16  and  C_17 
REMARK   16  A    between atoms: C_17  and  C_18 
REMARK   17  A    between atoms: C_22  and  C_23 
REMARK   18  A    between atoms: C_23  and  C_24 
REMARK   19  A    between atoms: C_24  and  C_25 
REMARK   20  A    between atoms: C_25  and  C_26 
REMARK   21  A    between atoms: C_26  and  C_27 
REMARK   22  A    between atoms: C_27  and  C_28 
REMARK   23  A    between atoms: C_28  and  C_29 
REMARK   24  A    between atoms: C_29  and  C_30 
REMARK   25  A    between atoms: C_30  and  C_31 
REMARK   26  A    between atoms: C_31  and  C_32 
REMARK   27  A    between atoms: C_32  and  C_33 
REMARK   28  A    between atoms: C_33  and  C_34 
REMARK   29  A    between atoms: C_34  and  C_35 
REMARK   30  A    between atoms: C_35  and  C_36 
REMARK   31  A    between atoms: C_36  and  C_37 
REMARK   32  A    between atoms: C_37  and  C_38 
REMARK   33  A    between atoms: C_42  and  C_43 
REMARK   34  A    between atoms: C_43  and  C_44 
REMARK   35  A    between atoms: C_44  and  C_45 
REMARK   36  A    between atoms: C_45  and  C_46 
REMARK   37  A    between atoms: C_46  and  C_47 
REMARK   38  A    between atoms: C_47  and  C_48 
REMARK   39  A    between atoms: C_48  and  C_49 
REMARK   40  A    between atoms: C_49  and  C_50 
REMARK   41  A    between atoms: C_50  and  C_51 
REMARK   42  A    between atoms: C_51  and  C_52 
REMARK   43  A    between atoms: C_52  and  C_53 
REMARK   44  A    between atoms: C_53  and  C_54 
REMARK   45  A    between atoms: C_54  and  C_55 
REMARK   46  A    between atoms: C_55  and  C_56 
REMARK   47  A    between atoms: C_56  and  C_57 
REMARK   48  A    between atoms: C_57  and  C_58 
REMARK   49  A    between atoms: C_58  and  O_60 
REMARK   50  A    between atoms: O_60  and  C_61 
REMARK   51  A    between atoms: C_61  and  C_62 
REMARK   52  A    between atoms: C_62  and  C_63 
REMARK   53  A    between atoms: C_62  and  O_65 
REMARK   54  A    between atoms: C_63  and  O_64 
REMARK   55  A    between atoms: C_69  and  C_70 
REMARK   56  A    between atoms: C_70  and  C_71 
REMARK   57  A    between atoms: C_71  and  C_72 
REMARK   58  A    between atoms: C_72  and  C_73 
REMARK   59  A    between atoms: C_73  and  C_74 
REMARK   60  A    between atoms: C_74  and  C_75 
REMARK   61  A    between atoms: C_75  and  C_76 
REMARK   62  A    between atoms: C_76  and  C_77 
REMARK   63  A    between atoms: C_77  and  C_78 
REMARK   64  A    between atoms: C_78  and  C_79 
REMARK   65  A    between atoms: C_79  and  C_80 
REMARK   66  A    between atoms: C_80  and  C_81 
REMARK   67  A    between atoms: C_81  and  C_82 
REMARK   68  A    between atoms: C_82  and  C_83 
REMARK   69  A    between atoms: C_83  and  C_84 
REMARK   70  A    between atoms: C_84  and  C_85 
REMARK   71  A    between atoms: C_85  and  O_87 
REMARK   72  A    between atoms: O_87  and  C_88 
REMARK   73  A    between atoms: C_88  and  C_89 
REMARK   74  A    between atoms: C_89  and  C_90 
REMARK   75  A    between atoms: C_89  and  O_92 
REMARK   76  A    between atoms: C_90  and  O_91 
REMARK   77  A    between atoms: C_96  and  C_97 
REMARK   78  A    between atoms: C_97  and  C_98 
REMARK   79  A    between atoms: C_98  and  C_99 
REMARK   80  A    between atoms: C_99  and  C_100 
REMARK   81  A    between atoms: C_100  and  C_101 
REMARK   82  A    between atoms: C_101  and  C_102 
REMARK   83  A    between atoms: C_102  and  C_103 
REMARK   84  A    between atoms: C_103  and  C_104 
REMARK   85  A    between atoms: C_104  and  C_105 
REMARK   86  A    between atoms: C_105  and  C_106 
REMARK   87  A    between atoms: C_106  and  C_107 
REMARK   88  A    between atoms: C_107  and  C_108 
REMARK   89  A    between atoms: C_108  and  C_109 
REMARK   90  A    between atoms: C_109  and  C_110 
REMARK   91  A    between atoms: C_110  and  C_111 
REMARK   92  A    between atoms: C_111  and  C_112 
REMARK   93  A    between atoms: C_112  and  O_114 
REMARK   94  A    between atoms: O_114  and  C_115 
REMARK   95  A    between atoms: C_115  and  C_116 
REMARK   96  A    between atoms: C_115  and  C_118 
REMARK   97  A    between atoms: C_116  and  O_117 
REMARK   98  A    between atoms: C_118  and  O_119 
ROOT
HETATM    1 NA   UNL     6     -30.945   0.745   2.864  1.00  0.00     0.000 Na
ENDROOT
TORSDOF 98
ENDMDL
MODEL 8
REMARK VINA RESULT:      -1.1     27.173     27.173
REMARK WARNING: 32 MAX_TORS EXCEEDED!!!
REMARK  98 active torsions:
REMARK  status: ('A' for Active; 'I' for Inactive)
REMARK    1  A    between atoms: C_2  and  C_3 
REMARK    2  A    between atoms: C_3  and  C_4 
REMARK    3  A    between atoms: C_4  and  C_5 
REMARK    4  A    between atoms: C_5  and  C_6 
REMARK    5  A    between atoms: C_6  and  C_7 
REMARK    6  A    between atoms: C_7  and  C_8 
REMARK    7  A    between atoms: C_8  and  C_9 
REMARK    8  A    between atoms: C_9  and  C_10 
REMARK    9  A    between atoms: C_10  and  C_11 
REMARK   10  A    between atoms: C_11  and  C_12 
REMARK   11  A    between atoms: C_12  and  C_13 
REMARK   12  A    between atoms: C_13  and  C_14 
REMARK   13  A    between atoms: C_14  and  C_15 
REMARK   14  A    between atoms: C_15  and  C_16 
REMARK   15  A    between atoms: C_16  and  C_17 
REMARK   16  A    between atoms: C_17  and  C_18 
REMARK   17  A    between atoms: C_22  and  C_23 
REMARK   18  A    between atoms: C_23  and  C_24 
REMARK   19  A    between atoms: C_24  and  C_25 
REMARK   20  A    between atoms: C_25  and  C_26 
REMARK   21  A    between atoms: C_26  and  C_27 
REMARK   22  A    between atoms: C_27  and  C_28 
REMARK   23  A    between atoms: C_28  and  C_29 
REMARK   24  A    between atoms: C_29  and  C_30 
REMARK   25  A    between atoms: C_30  and  C_31 
REMARK   26  A    between atoms: C_31  and  C_32 
REMARK   27  A    between atoms: C_32  and  C_33 
REMARK   28  A    between atoms: C_33  and  C_34 
REMARK   29  A    between atoms: C_34  and  C_35 
REMARK   30  A    between atoms: C_35  and  C_36 
REMARK   31  A    between atoms: C_36  and  C_37 
REMARK   32  A    between atoms: C_37  and  C_38 
REMARK   33  A    between atoms: C_42  and  C_43 
REMARK   34  A    between atoms: C_43  and  C_44 
REMARK   35  A    between atoms: C_44  and  C_45 
REMARK   36  A    between atoms: C_45  and  C_46 
REMARK   37  A    between atoms: C_46  and  C_47 
REMARK   38  A    between atoms: C_47  and  C_48 
REMARK   39  A    between atoms: C_48  and  C_49 
REMARK   40  A    between atoms: C_49  and  C_50 
REMARK   41  A    between atoms: C_50  and  C_51 
REMARK   42  A    between atoms: C_51  and  C_52 
REMARK   43  A    between atoms: C_52  and  C_53 
REMARK   44  A    between atoms: C_53  and  C_54 
REMARK   45  A    between atoms: C_54  and  C_55 
REMARK   46  A    between atoms: C_55  and  C_56 
REMARK   47  A    between atoms: C_56  and  C_57 
REMARK   48  A    between atoms: C_57  and  C_58 
REMARK   49  A    between atoms: C_58  and  O_60 
REMARK   50  A    between atoms: O_60  and  C_61 
REMARK   51  A    between atoms: C_61  and  C_62 
REMARK   52  A    between atoms: C_62  and  C_63 
REMARK   53  A    between atoms: C_62  and  O_65 
REMARK   54  A    between atoms: C_63  and  O_64 
REMARK   55  A    between atoms: C_69  and  C_70 
REMARK   56  A    between atoms: C_70  and  C_71 
REMARK   57  A    between atoms: C_71  and  C_72 
REMARK   58  A    between atoms: C_72  and  C_73 
REMARK   59  A    between atoms: C_73  and  C_74 
REMARK   60  A    between atoms: C_74  and  C_75 
REMARK   61  A    between atoms: C_75  and  C_76 
REMARK   62  A    between atoms: C_76  and  C_77 
REMARK   63  A    between atoms: C_77  and  C_78 
REMARK   64  A    between atoms: C_78  and  C_79 
REMARK   65  A    between atoms: C_79  and  C_80 
REMARK   66  A    between atoms: C_80  and  C_81 
REMARK   67  A    between atoms: C_81  and  C_82 
REMARK   68  A    between atoms: C_82  and  C_83 
REMARK   69  A    between atoms: C_83  and  C_84 
REMARK   70  A    between atoms: C_84  and  C_85 
REMARK   71  A    between atoms: C_85  and  O_87 
REMARK   72  A    between atoms: O_87  and  C_88 
REMARK   73  A    between atoms: C_88  and  C_89 
REMARK   74  A    between atoms: C_89  and  C_90 
REMARK   75  A    between atoms: C_89  and  O_92 
REMARK   76  A    between atoms: C_90  and  O_91 
REMARK   77  A    between atoms: C_96  and  C_97 
REMARK   78  A    between atoms: C_97  and  C_98 
REMARK   79  A    between atoms: C_98  and  C_99 
REMARK   80  A    between atoms: C_99  and  C_100 
REMARK   81  A    between atoms: C_100  and  C_101 
REMARK   82  A    between atoms: C_101  and  C_102 
REMARK   83  A    between atoms: C_102  and  C_103 
REMARK   84  A    between atoms: C_103  and  C_104 
REMARK   85  A    between atoms: C_104  and  C_105 
REMARK   86  A    between atoms: C_105  and  C_106 
REMARK   87  A    between atoms: C_106  and  C_107 
REMARK   88  A    between atoms: C_107  and  C_108 
REMARK   89  A    between atoms: C_108  and  C_109 
REMARK   90  A    between atoms: C_109  and  C_110 
REMARK   91  A    between atoms: C_110  and  C_111 
REMARK   92  A    between atoms: C_111  and  C_112 
REMARK   93  A    between atoms: C_112  and  O_114 
REMARK   94  A    between atoms: O_114  and  C_115 
REMARK   95  A    between atoms: C_115  and  C_116 
REMARK   96  A    between atoms: C_115  and  C_118 
REMARK   97  A    between atoms: C_116  and  O_117 
REMARK   98  A    between atoms: C_118  and  O_119 
ROOT
HETATM    1 NA   UNL     6     -11.561   1.297  -9.956  1.00  0.00     0.000 Na
ENDROOT
TORSDOF 98
ENDMDL
MODEL 9
REMARK VINA RESULT:      -1.0      9.902      9.902
REMARK WARNING: 32 MAX_TORS EXCEEDED!!!
REMARK  98 active torsions:
REMARK  status: ('A' for Active; 'I' for Inactive)
REMARK    1  A    between atoms: C_2  and  C_3 
REMARK    2  A    between atoms: C_3  and  C_4 
REMARK    3  A    between atoms: C_4  and  C_5 
REMARK    4  A    between atoms: C_5  and  C_6 
REMARK    5  A    between atoms: C_6  and  C_7 
REMARK    6  A    between atoms: C_7  and  C_8 
REMARK    7  A    between atoms: C_8  and  C_9 
REMARK    8  A    between atoms: C_9  and  C_10 
REMARK    9  A    between atoms: C_10  and  C_11 
REMARK   10  A    between atoms: C_11  and  C_12 
REMARK   11  A    between atoms: C_12  and  C_13 
REMARK   12  A    between atoms: C_13  and  C_14 
REMARK   13  A    between atoms: C_14  and  C_15 
REMARK   14  A    between atoms: C_15  and  C_16 
REMARK   15  A    between atoms: C_16  and  C_17 
REMARK   16  A    between atoms: C_17  and  C_18 
REMARK   17  A    between atoms: C_22  and  C_23 
REMARK   18  A    between atoms: C_23  and  C_24 
REMARK   19  A    between atoms: C_24  and  C_25 
REMARK   20  A    between atoms: C_25  and  C_26 
REMARK   21  A    between atoms: C_26  and  C_27 
REMARK   22  A    between atoms: C_27  and  C_28 
REMARK   23  A    between atoms: C_28  and  C_29 
REMARK   24  A    between atoms: C_29  and  C_30 
REMARK   25  A    between atoms: C_30  and  C_31 
REMARK   26  A    between atoms: C_31  and  C_32 
REMARK   27  A    between atoms: C_32  and  C_33 
REMARK   28  A    between atoms: C_33  and  C_34 
REMARK   29  A    between atoms: C_34  and  C_35 
REMARK   30  A    between atoms: C_35  and  C_36 
REMARK   31  A    between atoms: C_36  and  C_37 
REMARK   32  A    between atoms: C_37  and  C_38 
REMARK   33  A    between atoms: C_42  and  C_43 
REMARK   34  A    between atoms: C_43  and  C_44 
REMARK   35  A    between atoms: C_44  and  C_45 
REMARK   36  A    between atoms: C_45  and  C_46 
REMARK   37  A    between atoms: C_46  and  C_47 
REMARK   38  A    between atoms: C_47  and  C_48 
REMARK   39  A    between atoms: C_48  and  C_49 
REMARK   40  A    between atoms: C_49  and  C_50 
REMARK   41  A    between atoms: C_50  and  C_51 
REMARK   42  A    between atoms: C_51  and  C_52 
REMARK   43  A    between atoms: C_52  and  C_53 
REMARK   44  A    between atoms: C_53  and  C_54 
REMARK   45  A    between atoms: C_54  and  C_55 
REMARK   46  A    between atoms: C_55  and  C_56 
REMARK   47  A    between atoms: C_56  and  C_57 
REMARK   48  A    between atoms: C_57  and  C_58 
REMARK   49  A    between atoms: C_58  and  O_60 
REMARK   50  A    between atoms: O_60  and  C_61 
REMARK   51  A    between atoms: C_61  and  C_62 
REMARK   52  A    between atoms: C_62  and  C_63 
REMARK   53  A    between atoms: C_62  and  O_65 
REMARK   54  A    between atoms: C_63  and  O_64 
REMARK   55  A    between atoms: C_69  and  C_70 
REMARK   56  A    between atoms: C_70  and  C_71 
REMARK   57  A    between atoms: C_71  and  C_72 
REMARK   58  A    between atoms: C_72  and  C_73 
REMARK   59  A    between atoms: C_73  and  C_74 
REMARK   60  A    between atoms: C_74  and  C_75 
REMARK   61  A    between atoms: C_75  and  C_76 
REMARK   62  A    between atoms: C_76  and  C_77 
REMARK   63  A    between atoms: C_77  and  C_78 
REMARK   64  A    between atoms: C_78  and  C_79 
REMARK   65  A    between atoms: C_79  and  C_80 
REMARK   66  A    between atoms: C_80  and  C_81 
REMARK   67  A    between atoms: C_81  and  C_82 
REMARK   68  A    between atoms: C_82  and  C_83 
REMARK   69  A    between atoms: C_83  and  C_84 
REMARK   70  A    between atoms: C_84  and  C_85 
REMARK   71  A    between atoms: C_85  and  O_87 
REMARK   72  A    between atoms: O_87  and  C_88 
REMARK   73  A    between atoms: C_88  and  C_89 
REMARK   74  A    between atoms: C_89  and  C_90 
REMARK   75  A    between atoms: C_89  and  O_92 
REMARK   76  A    between atoms: C_90  and  O_91 
REMARK   77  A    between atoms: C_96  and  C_97 
REMARK   78  A    between atoms: C_97  and  C_98 
REMARK   79  A    between atoms: C_98  and  C_99 
REMARK   80  A    between atoms: C_99  and  C_100 
REMARK   81  A    between atoms: C_100  and  C_101 
REMARK   82  A    between atoms: C_101  and  C_102 
REMARK   83  A    between atoms: C_102  and  C_103 
REMARK   84  A    between atoms: C_103  and  C_104 
REMARK   85  A    between atoms: C_104  and  C_105 
REMARK   86  A    between atoms: C_105  and  C_106 
REMARK   87  A    between atoms: C_106  and  C_107 
REMARK   88  A    between atoms: C_107  and  C_108 
REMARK   89  A    between atoms: C_108  and  C_109 
REMARK   90  A    between atoms: C_109  and  C_110 
REMARK   91  A    between atoms: C_110  and  C_111 
REMARK   92  A    between atoms: C_111  and  C_112 
REMARK   93  A    between atoms: C_112  and  O_114 
REMARK   94  A    between atoms: O_114  and  C_115 
REMARK   95  A    between atoms: C_115  and  C_116 
REMARK   96  A    between atoms: C_115  and  C_118 
REMARK   97  A    between atoms: C_116  and  O_117 
REMARK   98  A    between atoms: C_118  and  O_119 
ROOT
HETATM    1 NA   UNL     6     -32.732  -6.045  -5.036  1.00  0.00     0.000 Na
ENDROOT
TORSDOF 98
ENDMDL
