MODEL 1
REMARK VINA RESULT:      -7.2      0.000      0.000
REMARK  22 active torsions:
REMARK  status: ('A' for Active; 'I' for Inactive)
REMARK    1  A    between atoms: C_2  and  C_3 
REMARK    2  A    between atoms: C_3  and  C_4 
REMARK    3  A    between atoms: C_4  and  C_5 
REMARK    4  A    between atoms: C_5  and  C_6 
REMARK    5  A    between atoms: C_6  and  C_7 
REMARK    6  A    between atoms: C_7  and  C_8 
REMARK    7  A    between atoms: C_8  and  C_9 
REMARK    8  A    between atoms: C_9  and  C_10 
REMARK    9  A    between atoms: C_10  and  C_11 
REMARK   10  A    between atoms: C_11  and  C_12 
REMARK   11  A    between atoms: C_12  and  C_13 
REMARK   12  A    between atoms: C_13  and  C_14 
REMARK   13  A    between atoms: C_14  and  C_15 
REMARK   14  A    between atoms: C_15  and  C_16 
REMARK   15  A    between atoms: C_16  and  C_17 
REMARK   16  A    between atoms: C_17  and  C_18 
REMARK   17  A    between atoms: C_18  and  O_20 
REMARK   18  A    between atoms: O_20  and  C_21 
REMARK   19  A    between atoms: C_21  and  C_22 
REMARK   20  A    between atoms: C_22  and  C_23 
REMARK   21  A    between atoms: C_22  and  O_25 
REMARK   22  A    between atoms: C_23  and  O_24 
ROOT
HETATM    1  C   UNL     1     -21.742  -4.155  -7.437  1.00  0.00     0.000 C 
ENDROOT
BRANCH   1   2
HETATM    2  C   UNL     1     -20.332  -4.434  -6.944  1.00  0.00     0.000 C 
BRANCH   2   3
HETATM    3  C   UNL     1     -20.372  -5.187  -5.625  1.00  0.00     0.000 C 
BRANCH   3   4
HETATM    4  C   UNL     1     -21.238  -6.427  -5.763  1.00  0.00     0.000 C 
BRANCH   4   5
HETATM    5  C   UNL     1     -22.105  -6.594  -4.528  1.00  0.00     0.000 C 
BRANCH   5   6
HETATM    6  C   UNL     1     -21.291  -6.304  -3.281  1.00  0.00     0.000 C 
BRANCH   6   7
HETATM    7  C   UNL     1     -21.768  -7.181  -2.138  1.00  0.00     0.000 C 
BRANCH   7   8
HETATM    8  C   UNL     1     -20.583  -7.864  -1.484  1.00  0.00     0.000 C 
BRANCH   8   9
HETATM    9  C   UNL     1     -21.070  -8.856  -0.443  1.00  0.00     0.000 C 
BRANCH   9  10
HETATM   10  C   UNL     1     -22.587  -8.904  -0.444  1.00  0.00     0.000 C 
BRANCH  10  11
HETATM   11  C   UNL     1     -23.063 -10.286  -0.028  1.00  0.00     0.000 C 
BRANCH  11  12
HETATM   12  C   UNL     1     -23.613 -11.033  -1.233  1.00  0.00    -0.000 C 
BRANCH  12  13
HETATM   13  C   UNL     1     -22.486 -11.403  -2.188  1.00  0.00    -0.005 C 
HETATM   14  C   UNL     1     -22.727 -10.783  -3.550  1.00  0.00     0.005 C 
ENDBRANCH  12  13
ENDBRANCH  11  12
ENDBRANCH  10  11
ENDBRANCH   9  10
ENDBRANCH   8   9
ENDBRANCH   7   8
ENDBRANCH   6   7
ENDBRANCH   5   6
ENDBRANCH   4   5
ENDBRANCH   3   4
ENDBRANCH   2   3
ENDBRANCH   1   2
BRANCH   1  15
HETATM   15  C   UNL     1     -21.749  -3.964  -8.950  1.00  0.00     0.000 C 
BRANCH  15  16
HETATM   16  C   UNL     1     -22.956  -4.654  -9.565  1.00  0.00     0.010 C 
BRANCH  16  17
HETATM   17  C   UNL     1     -23.168  -4.263 -11.027  1.00  0.00     0.111 C 
BRANCH  17  18
HETATM   18  C   UNL     1     -24.338  -3.316 -11.138  1.00  0.00     0.258 C 
HETATM   19  O   UNL     1     -25.161  -3.131 -10.236  1.00  0.00    -0.265 OA
BRANCH  18  20
HETATM   20  O   UNL     1     -24.415  -2.772 -12.382  1.00  0.00    -0.319 OA
BRANCH  20  21
HETATM   21  C   UNL     1     -23.174  -2.811 -13.107  1.00  0.00     0.212 C 
BRANCH  21  22
HETATM   22  C   UNL     1     -23.334  -2.499 -14.593  1.00  0.00     0.166 C 
BRANCH  22  23
HETATM   23  C   UNL     1     -23.558  -1.007 -14.822  1.00  0.00     0.198 C 
BRANCH  23  24
HETATM   24  O   UNL     1     -24.933  -0.702 -14.679  1.00  0.00    -0.398 OA
HETATM   25  H   UNL     1     -25.055  -0.284 -13.806  1.00  0.00     0.209 HD
ENDBRANCH  23  24
ENDBRANCH  22  23
BRANCH  22  26
HETATM   26  O   UNL     1     -22.203  -2.971 -15.321  1.00  0.00    -0.391 OA
HETATM   27  H   UNL     1     -22.501  -3.422 -16.130  1.00  0.00     0.210 HD
ENDBRANCH  22  26
ENDBRANCH  21  22
ENDBRANCH  20  21
ENDBRANCH  18  20
ENDBRANCH  17  18
ENDBRANCH  16  17
ENDBRANCH  15  16
ENDBRANCH   1  15
TORSDOF 22
ENDMDL
MODEL 2
REMARK VINA RESULT:      -6.9      1.512      2.373
REMARK  22 active torsions:
REMARK  status: ('A' for Active; 'I' for Inactive)
REMARK    1  A    between atoms: C_2  and  C_3 
REMARK    2  A    between atoms: C_3  and  C_4 
REMARK    3  A    between atoms: C_4  and  C_5 
REMARK    4  A    between atoms: C_5  and  C_6 
REMARK    5  A    between atoms: C_6  and  C_7 
REMARK    6  A    between atoms: C_7  and  C_8 
REMARK    7  A    between atoms: C_8  and  C_9 
REMARK    8  A    between atoms: C_9  and  C_10 
REMARK    9  A    between atoms: C_10  and  C_11 
REMARK   10  A    between atoms: C_11  and  C_12 
REMARK   11  A    between atoms: C_12  and  C_13 
REMARK   12  A    between atoms: C_13  and  C_14 
REMARK   13  A    between atoms: C_14  and  C_15 
REMARK   14  A    between atoms: C_15  and  C_16 
REMARK   15  A    between atoms: C_16  and  C_17 
REMARK   16  A    between atoms: C_17  and  C_18 
REMARK   17  A    between atoms: C_18  and  O_20 
REMARK   18  A    between atoms: O_20  and  C_21 
REMARK   19  A    between atoms: C_21  and  C_22 
REMARK   20  A    between atoms: C_22  and  C_23 
REMARK   21  A    between atoms: C_22  and  O_25 
REMARK   22  A    between atoms: C_23  and  O_24 
ROOT
HETATM    1  C   UNL     1     -20.392  -4.879  -6.153  1.00  0.00     0.000 C 
ENDROOT
BRANCH   1   2
HETATM    2  C   UNL     1     -20.335  -6.394  -6.271  1.00  0.00     0.000 C 
BRANCH   2   3
HETATM    3  C   UNL     1     -21.463  -7.028  -5.476  1.00  0.00     0.000 C 
BRANCH   3   4
HETATM    4  C   UNL     1     -21.745  -6.206  -4.230  1.00  0.00     0.000 C 
BRANCH   4   5
HETATM    5  C   UNL     1     -21.618  -7.078  -2.994  1.00  0.00     0.000 C 
BRANCH   5   6
HETATM    6  C   UNL     1     -22.157  -6.339  -1.783  1.00  0.00     0.000 C 
BRANCH   6   7
HETATM    7  C   UNL     1     -22.433  -7.322  -0.660  1.00  0.00     0.000 C 
BRANCH   7   8
HETATM    8  C   UNL     1     -21.176  -8.110  -0.345  1.00  0.00     0.000 C 
BRANCH   8   9
HETATM    9  C   UNL     1     -21.290  -8.729   1.037  1.00  0.00     0.000 C 
BRANCH   9  10
HETATM   10  C   UNL     1     -20.872 -10.188   0.987  1.00  0.00     0.000 C 
BRANCH  10  11
HETATM   11  C   UNL     1     -21.484 -10.860  -0.231  1.00  0.00     0.000 C 
BRANCH  11  12
HETATM   12  C   UNL     1     -22.868 -11.390   0.107  1.00  0.00    -0.000 C 
BRANCH  12  13
HETATM   13  C   UNL     1     -23.817 -11.187  -1.066  1.00  0.00    -0.005 C 
HETATM   14  C   UNL     1     -23.037 -11.093  -2.363  1.00  0.00     0.005 C 
ENDBRANCH  12  13
ENDBRANCH  11  12
ENDBRANCH  10  11
ENDBRANCH   9  10
ENDBRANCH   8   9
ENDBRANCH   7   8
ENDBRANCH   6   7
ENDBRANCH   5   6
ENDBRANCH   4   5
ENDBRANCH   3   4
ENDBRANCH   2   3
ENDBRANCH   1   2
BRANCH   1  15
HETATM   15  C   UNL     1     -21.398  -4.306  -7.146  1.00  0.00     0.000 C 
BRANCH  15  16
HETATM   16  C   UNL     1     -21.013  -4.685  -8.567  1.00  0.00     0.010 C 
BRANCH  16  17
HETATM   17  C   UNL     1     -22.047  -4.222  -9.593  1.00  0.00     0.111 C 
BRANCH  17  18
HETATM   18  C   UNL     1     -21.457  -4.296 -10.980  1.00  0.00     0.258 C 
HETATM   19  O   UNL     1     -20.284  -4.016 -11.245  1.00  0.00    -0.265 OA
BRANCH  18  20
HETATM   20  O   UNL     1     -22.405  -4.616 -11.902  1.00  0.00    -0.319 OA
BRANCH  20  21
HETATM   21  C   UNL     1     -23.710  -4.101 -11.591  1.00  0.00     0.212 C 
BRANCH  21  22
HETATM   22  C   UNL     1     -24.085  -2.871 -12.414  1.00  0.00     0.166 C 
BRANCH  22  23
HETATM   23  C   UNL     1     -23.220  -2.762 -13.667  1.00  0.00     0.198 C 
BRANCH  23  24
HETATM   24  O   UNL     1     -23.677  -3.679 -14.644  1.00  0.00    -0.398 OA
HETATM   25  H   UNL     1     -24.562  -3.389 -14.933  1.00  0.00     0.209 HD
ENDBRANCH  23  24
ENDBRANCH  22  23
BRANCH  22  26
HETATM   26  O   UNL     1     -25.472  -2.899 -12.742  1.00  0.00    -0.391 OA
HETATM   27  H   UNL     1     -25.801  -3.813 -12.688  1.00  0.00     0.210 HD
ENDBRANCH  22  26
ENDBRANCH  21  22
ENDBRANCH  20  21
ENDBRANCH  18  20
ENDBRANCH  17  18
ENDBRANCH  16  17
ENDBRANCH  15  16
ENDBRANCH   1  15
TORSDOF 22
ENDMDL
MODEL 3
REMARK VINA RESULT:      -6.7      1.303      2.121
REMARK  22 active torsions:
REMARK  status: ('A' for Active; 'I' for Inactive)
REMARK    1  A    between atoms: C_2  and  C_3 
REMARK    2  A    between atoms: C_3  and  C_4 
REMARK    3  A    between atoms: C_4  and  C_5 
REMARK    4  A    between atoms: C_5  and  C_6 
REMARK    5  A    between atoms: C_6  and  C_7 
REMARK    6  A    between atoms: C_7  and  C_8 
REMARK    7  A    between atoms: C_8  and  C_9 
REMARK    8  A    between atoms: C_9  and  C_10 
REMARK    9  A    between atoms: C_10  and  C_11 
REMARK   10  A    between atoms: C_11  and  C_12 
REMARK   11  A    between atoms: C_12  and  C_13 
REMARK   12  A    between atoms: C_13  and  C_14 
REMARK   13  A    between atoms: C_14  and  C_15 
REMARK   14  A    between atoms: C_15  and  C_16 
REMARK   15  A    between atoms: C_16  and  C_17 
REMARK   16  A    between atoms: C_17  and  C_18 
REMARK   17  A    between atoms: C_18  and  O_20 
REMARK   18  A    between atoms: O_20  and  C_21 
REMARK   19  A    between atoms: C_21  and  C_22 
REMARK   20  A    between atoms: C_22  and  C_23 
REMARK   21  A    between atoms: C_22  and  O_25 
REMARK   22  A    between atoms: C_23  and  O_24 
ROOT
HETATM    1  C   UNL     1     -20.370  -5.011  -8.305  1.00  0.00     0.000 C 
ENDROOT
BRANCH   1   2
HETATM    2  C   UNL     1     -20.369  -4.566  -6.851  1.00  0.00     0.000 C 
BRANCH   2   3
HETATM    3  C   UNL     1     -20.274  -5.770  -5.930  1.00  0.00     0.000 C 
BRANCH   3   4
HETATM    4  C   UNL     1     -21.654  -6.137  -5.412  1.00  0.00     0.000 C 
BRANCH   4   5
HETATM    5  C   UNL     1     -21.572  -6.526  -3.947  1.00  0.00     0.000 C 
BRANCH   5   6
HETATM    6  C   UNL     1     -20.771  -7.805  -3.796  1.00  0.00     0.000 C 
BRANCH   6   7
HETATM    7  C   UNL     1     -21.709  -8.991  -3.678  1.00  0.00     0.000 C 
BRANCH   7   8
HETATM    8  C   UNL     1     -20.917 -10.246  -3.366  1.00  0.00     0.000 C 
BRANCH   8   9
HETATM    9  C   UNL     1     -21.151 -10.658  -1.923  1.00  0.00     0.000 C 
BRANCH   9  10
HETATM   10  C   UNL     1     -22.638 -10.823  -1.667  1.00  0.00     0.000 C 
BRANCH  10  11
HETATM   11  C   UNL     1     -23.055  -9.982  -0.472  1.00  0.00     0.000 C 
BRANCH  11  12
HETATM   12  C   UNL     1     -21.832  -9.594   0.344  1.00  0.00    -0.000 C 
BRANCH  12  13
HETATM   13  C   UNL     1     -21.881  -8.116   0.704  1.00  0.00    -0.005 C 
HETATM   14  C   UNL     1     -22.497  -7.318  -0.428  1.00  0.00     0.005 C 
ENDBRANCH  12  13
ENDBRANCH  11  12
ENDBRANCH  10  11
ENDBRANCH   9  10
ENDBRANCH   8   9
ENDBRANCH   7   8
ENDBRANCH   6   7
ENDBRANCH   5   6
ENDBRANCH   4   5
ENDBRANCH   3   4
ENDBRANCH   2   3
ENDBRANCH   1   2
BRANCH   1  15
HETATM   15  C   UNL     1     -21.252  -4.091  -9.142  1.00  0.00     0.000 C 
BRANCH  15  16
HETATM   16  C   UNL     1     -22.717  -4.312  -8.803  1.00  0.00     0.010 C 
BRANCH  16  17
HETATM   17  C   UNL     1     -23.562  -4.616 -10.040  1.00  0.00     0.111 C 
BRANCH  17  18
HETATM   18  C   UNL     1     -24.364  -3.397 -10.423  1.00  0.00     0.258 C 
HETATM   19  O   UNL     1     -25.556  -3.242 -10.142  1.00  0.00    -0.265 OA
BRANCH  18  20
HETATM   20  O   UNL     1     -23.631  -2.547 -11.191  1.00  0.00    -0.319 OA
BRANCH  20  21
HETATM   21  C   UNL     1     -23.031  -3.176 -12.335  1.00  0.00     0.212 C 
BRANCH  21  22
HETATM   22  C   UNL     1     -23.884  -3.073 -13.597  1.00  0.00     0.166 C 
BRANCH  22  23
HETATM   23  C   UNL     1     -23.188  -2.237 -14.667  1.00  0.00     0.198 C 
BRANCH  23  24
HETATM   24  O   UNL     1     -22.219  -3.025 -15.334  1.00  0.00    -0.398 OA
HETATM   25  H   UNL     1     -22.641  -3.408 -16.126  1.00  0.00     0.209 HD
ENDBRANCH  23  24
ENDBRANCH  22  23
BRANCH  22  26
HETATM   26  O   UNL     1     -24.205  -4.375 -14.083  1.00  0.00    -0.391 OA
HETATM   27  H   UNL     1     -23.412  -4.784 -14.470  1.00  0.00     0.210 HD
ENDBRANCH  22  26
ENDBRANCH  21  22
ENDBRANCH  20  21
ENDBRANCH  18  20
ENDBRANCH  17  18
ENDBRANCH  16  17
ENDBRANCH  15  16
ENDBRANCH   1  15
TORSDOF 22
ENDMDL
MODEL 4
REMARK VINA RESULT:      -6.7      1.287      2.066
REMARK  22 active torsions:
REMARK  status: ('A' for Active; 'I' for Inactive)
REMARK    1  A    between atoms: C_2  and  C_3 
REMARK    2  A    between atoms: C_3  and  C_4 
REMARK    3  A    between atoms: C_4  and  C_5 
REMARK    4  A    between atoms: C_5  and  C_6 
REMARK    5  A    between atoms: C_6  and  C_7 
REMARK    6  A    between atoms: C_7  and  C_8 
REMARK    7  A    between atoms: C_8  and  C_9 
REMARK    8  A    between atoms: C_9  and  C_10 
REMARK    9  A    between atoms: C_10  and  C_11 
REMARK   10  A    between atoms: C_11  and  C_12 
REMARK   11  A    between atoms: C_12  and  C_13 
REMARK   12  A    between atoms: C_13  and  C_14 
REMARK   13  A    between atoms: C_14  and  C_15 
REMARK   14  A    between atoms: C_15  and  C_16 
REMARK   15  A    between atoms: C_16  and  C_17 
REMARK   16  A    between atoms: C_17  and  C_18 
REMARK   17  A    between atoms: C_18  and  O_20 
REMARK   18  A    between atoms: O_20  and  C_21 
REMARK   19  A    between atoms: C_21  and  C_22 
REMARK   20  A    between atoms: C_22  and  C_23 
REMARK   21  A    between atoms: C_22  and  O_25 
REMARK   22  A    between atoms: C_23  and  O_24 
ROOT
HETATM    1  C   UNL     1     -20.947  -5.266  -6.438  1.00  0.00     0.000 C 
ENDROOT
BRANCH   1   2
HETATM    2  C   UNL     1     -21.674  -6.288  -5.580  1.00  0.00     0.000 C 
BRANCH   2   3
HETATM    3  C   UNL     1     -20.678  -7.228  -4.921  1.00  0.00     0.000 C 
BRANCH   3   4
HETATM    4  C   UNL     1     -21.053  -7.442  -3.464  1.00  0.00     0.000 C 
BRANCH   4   5
HETATM    5  C   UNL     1     -21.867  -6.264  -2.959  1.00  0.00     0.000 C 
BRANCH   5   6
HETATM    6  C   UNL     1     -22.207  -6.461  -1.494  1.00  0.00     0.000 C 
BRANCH   6   7
HETATM    7  C   UNL     1     -21.570  -7.741  -0.984  1.00  0.00     0.000 C 
BRANCH   7   8
HETATM    8  C   UNL     1     -22.165  -8.112   0.361  1.00  0.00     0.000 C 
BRANCH   8   9
HETATM    9  C   UNL     1     -23.339  -9.055   0.163  1.00  0.00     0.000 C 
BRANCH   9  10
HETATM   10  C   UNL     1     -22.840 -10.483   0.045  1.00  0.00     0.000 C 
BRANCH  10  11
HETATM   11  C   UNL     1     -23.921 -11.362  -0.562  1.00  0.00     0.000 C 
BRANCH  11  12
HETATM   12  C   UNL     1     -23.417 -11.994  -1.849  1.00  0.00    -0.000 C 
BRANCH  12  13
HETATM   13  C   UNL     1     -22.953 -10.921  -2.823  1.00  0.00    -0.005 C 
HETATM   14  C   UNL     1     -21.550 -11.222  -3.310  1.00  0.00     0.005 C 
ENDBRANCH  12  13
ENDBRANCH  11  12
ENDBRANCH  10  11
ENDBRANCH   9  10
ENDBRANCH   8   9
ENDBRANCH   7   8
ENDBRANCH   6   7
ENDBRANCH   5   6
ENDBRANCH   4   5
ENDBRANCH   3   4
ENDBRANCH   2   3
ENDBRANCH   1   2
BRANCH   1  15
HETATM   15  C   UNL     1     -21.219  -5.524  -7.917  1.00  0.00     0.000 C 
BRANCH  15  16
HETATM   16  C   UNL     1     -21.837  -4.295  -8.562  1.00  0.00     0.010 C 
BRANCH  16  17
HETATM   17  C   UNL     1     -23.332  -4.171  -8.267  1.00  0.00     0.111 C 
BRANCH  17  18
HETATM   18  C   UNL     1     -24.048  -3.626  -9.478  1.00  0.00     0.258 C 
HETATM   19  O   UNL     1     -24.974  -2.811  -9.421  1.00  0.00    -0.265 OA
BRANCH  18  20
HETATM   20  O   UNL     1     -23.606  -4.218 -10.620  1.00  0.00    -0.319 OA
BRANCH  20  21
HETATM   21  C   UNL     1     -23.928  -3.484 -11.813  1.00  0.00     0.212 C 
BRANCH  21  22
HETATM   22  C   UNL     1     -22.753  -3.359 -12.780  1.00  0.00     0.166 C 
BRANCH  22  23
HETATM   23  C   UNL     1     -23.172  -2.657 -14.069  1.00  0.00     0.198 C 
BRANCH  23  24
HETATM   24  O   UNL     1     -22.349  -3.087 -15.137  1.00  0.00    -0.398 OA
HETATM   25  H   UNL     1     -21.449  -3.220 -14.784  1.00  0.00     0.209 HD
ENDBRANCH  23  24
ENDBRANCH  22  23
BRANCH  22  26
HETATM   26  O   UNL     1     -21.666  -2.683 -12.152  1.00  0.00    -0.391 OA
HETATM   27  H   UNL     1     -21.396  -1.924 -12.696  1.00  0.00     0.210 HD
ENDBRANCH  22  26
ENDBRANCH  21  22
ENDBRANCH  20  21
ENDBRANCH  18  20
ENDBRANCH  17  18
ENDBRANCH  16  17
ENDBRANCH  15  16
ENDBRANCH   1  15
TORSDOF 22
ENDMDL
MODEL 5
REMARK VINA RESULT:      -6.6      2.697      4.503
REMARK  22 active torsions:
REMARK  status: ('A' for Active; 'I' for Inactive)
REMARK    1  A    between atoms: C_2  and  C_3 
REMARK    2  A    between atoms: C_3  and  C_4 
REMARK    3  A    between atoms: C_4  and  C_5 
REMARK    4  A    between atoms: C_5  and  C_6 
REMARK    5  A    between atoms: C_6  and  C_7 
REMARK    6  A    between atoms: C_7  and  C_8 
REMARK    7  A    between atoms: C_8  and  C_9 
REMARK    8  A    between atoms: C_9  and  C_10 
REMARK    9  A    between atoms: C_10  and  C_11 
REMARK   10  A    between atoms: C_11  and  C_12 
REMARK   11  A    between atoms: C_12  and  C_13 
REMARK   12  A    between atoms: C_13  and  C_14 
REMARK   13  A    between atoms: C_14  and  C_15 
REMARK   14  A    between atoms: C_15  and  C_16 
REMARK   15  A    between atoms: C_16  and  C_17 
REMARK   16  A    between atoms: C_17  and  C_18 
REMARK   17  A    between atoms: C_18  and  O_20 
REMARK   18  A    between atoms: O_20  and  C_21 
REMARK   19  A    between atoms: C_21  and  C_22 
REMARK   20  A    between atoms: C_22  and  C_23 
REMARK   21  A    between atoms: C_22  and  O_25 
REMARK   22  A    between atoms: C_23  and  O_24 
ROOT
HETATM    1  C   UNL     1     -20.975  -7.108  -5.097  1.00  0.00     0.000 C 
ENDROOT
BRANCH   1   2
HETATM    2  C   UNL     1     -22.008  -6.452  -4.194  1.00  0.00     0.000 C 
BRANCH   2   3
HETATM    3  C   UNL     1     -21.386  -6.092  -2.856  1.00  0.00     0.000 C 
BRANCH   3   4
HETATM    4  C   UNL     1     -22.317  -6.497  -1.726  1.00  0.00     0.000 C 
BRANCH   4   5
HETATM    5  C   UNL     1     -21.656  -7.557  -0.863  1.00  0.00     0.000 C 
BRANCH   5   6
HETATM    6  C   UNL     1     -22.683  -8.186   0.060  1.00  0.00     0.000 C 
BRANCH   6   7
HETATM    7  C   UNL     1     -22.554  -9.697   0.021  1.00  0.00     0.000 C 
BRANCH   7   8
HETATM    8  C   UNL     1     -23.932 -10.332   0.013  1.00  0.00     0.000 C 
BRANCH   8   9
HETATM    9  C   UNL     1     -24.003 -11.394  -1.070  1.00  0.00     0.000 C 
BRANCH   9  10
HETATM   10  C   UNL     1     -22.672 -11.486  -1.792  1.00  0.00     0.000 C 
BRANCH  10  11
HETATM   11  C   UNL     1     -22.865 -11.204  -3.273  1.00  0.00     0.000 C 
BRANCH  11  12
HETATM   12  C   UNL     1     -21.880 -10.142  -3.734  1.00  0.00    -0.000 C 
BRANCH  12  13
HETATM   13  C   UNL     1     -20.458 -10.686  -3.703  1.00  0.00    -0.005 C 
HETATM   14  C   UNL     1     -19.544  -9.728  -2.965  1.00  0.00     0.005 C 
ENDBRANCH  12  13
ENDBRANCH  11  12
ENDBRANCH  10  11
ENDBRANCH   9  10
ENDBRANCH   8   9
ENDBRANCH   7   8
ENDBRANCH   6   7
ENDBRANCH   5   6
ENDBRANCH   4   5
ENDBRANCH   3   4
ENDBRANCH   2   3
ENDBRANCH   1   2
BRANCH   1  15
HETATM   15  C   UNL     1     -20.868  -6.352  -6.418  1.00  0.00     0.000 C 
BRANCH  15  16
HETATM   16  C   UNL     1     -20.184  -5.011  -6.205  1.00  0.00     0.010 C 
BRANCH  16  17
HETATM   17  C   UNL     1     -19.334  -4.594  -7.405  1.00  0.00     0.111 C 
BRANCH  17  18
HETATM   18  C   UNL     1     -20.211  -4.442  -8.624  1.00  0.00     0.258 C 
HETATM   19  O   UNL     1     -19.949  -4.934  -9.725  1.00  0.00    -0.265 OA
BRANCH  18  20
HETATM   20  O   UNL     1     -21.266  -3.621  -8.372  1.00  0.00    -0.319 OA
BRANCH  20  21
HETATM   21  C   UNL     1     -22.292  -3.674  -9.377  1.00  0.00     0.212 C 
BRANCH  21  22
HETATM   22  C   UNL     1     -23.704  -3.592  -8.802  1.00  0.00     0.166 C 
BRANCH  22  23
HETATM   23  C   UNL     1     -24.728  -4.177  -9.771  1.00  0.00     0.198 C 
BRANCH  23  24
HETATM   24  O   UNL     1     -25.832  -3.299  -9.887  1.00  0.00    -0.398 OA
HETATM   25  H   UNL     1     -26.639  -3.844  -9.952  1.00  0.00     0.209 HD
ENDBRANCH  23  24
ENDBRANCH  22  23
BRANCH  22  26
HETATM   26  O   UNL     1     -23.760  -4.241  -7.534  1.00  0.00    -0.391 OA
HETATM   27  H   UNL     1     -24.520  -3.906  -7.029  1.00  0.00     0.210 HD
ENDBRANCH  22  26
ENDBRANCH  21  22
ENDBRANCH  20  21
ENDBRANCH  18  20
ENDBRANCH  17  18
ENDBRANCH  16  17
ENDBRANCH  15  16
ENDBRANCH   1  15
TORSDOF 22
ENDMDL
MODEL 6
REMARK VINA RESULT:      -6.5      2.026      3.498
REMARK  22 active torsions:
REMARK  status: ('A' for Active; 'I' for Inactive)
REMARK    1  A    between atoms: C_2  and  C_3 
REMARK    2  A    between atoms: C_3  and  C_4 
REMARK    3  A    between atoms: C_4  and  C_5 
REMARK    4  A    between atoms: C_5  and  C_6 
REMARK    5  A    between atoms: C_6  and  C_7 
REMARK    6  A    between atoms: C_7  and  C_8 
REMARK    7  A    between atoms: C_8  and  C_9 
REMARK    8  A    between atoms: C_9  and  C_10 
REMARK    9  A    between atoms: C_10  and  C_11 
REMARK   10  A    between atoms: C_11  and  C_12 
REMARK   11  A    between atoms: C_12  and  C_13 
REMARK   12  A    between atoms: C_13  and  C_14 
REMARK   13  A    between atoms: C_14  and  C_15 
REMARK   14  A    between atoms: C_15  and  C_16 
REMARK   15  A    between atoms: C_16  and  C_17 
REMARK   16  A    between atoms: C_17  and  C_18 
REMARK   17  A    between atoms: C_18  and  O_20 
REMARK   18  A    between atoms: O_20  and  C_21 
REMARK   19  A    between atoms: C_21  and  C_22 
REMARK   20  A    between atoms: C_22  and  C_23 
REMARK   21  A    between atoms: C_22  and  O_25 
REMARK   22  A    between atoms: C_23  and  O_24 
ROOT
HETATM    1  C   UNL     1     -20.514  -6.278  -6.075  1.00  0.00     0.000 C 
ENDROOT
BRANCH   1   2
HETATM    2  C   UNL     1     -21.740  -6.406  -5.186  1.00  0.00     0.000 C 
BRANCH   2   3
HETATM    3  C   UNL     1     -21.600  -7.603  -4.261  1.00  0.00     0.000 C 
BRANCH   3   4
HETATM    4  C   UNL     1     -21.102  -7.151  -2.899  1.00  0.00     0.000 C 
BRANCH   4   5
HETATM    5  C   UNL     1     -22.148  -6.279  -2.228  1.00  0.00     0.000 C 
BRANCH   5   6
HETATM    6  C   UNL     1     -22.372  -6.747  -0.802  1.00  0.00     0.000 C 
BRANCH   6   7
HETATM    7  C   UNL     1     -21.818  -8.149  -0.626  1.00  0.00     0.000 C 
BRANCH   7   8
HETATM    8  C   UNL     1     -22.844  -9.024   0.070  1.00  0.00     0.000 C 
BRANCH   8   9
HETATM    9  C   UNL     1     -22.976 -10.346  -0.664  1.00  0.00     0.000 C 
BRANCH   9  10
HETATM   10  C   UNL     1     -23.961 -11.245   0.062  1.00  0.00     0.000 C 
BRANCH  10  11
HETATM   11  C   UNL     1     -23.561 -12.700  -0.113  1.00  0.00     0.000 C 
BRANCH  11  12
HETATM   12  C   UNL     1     -22.753 -13.166   1.087  1.00  0.00    -0.000 C 
BRANCH  12  13
HETATM   13  C   UNL     1     -23.668 -13.774   2.141  1.00  0.00    -0.005 C 
HETATM   14  C   UNL     1     -23.800 -15.269   1.925  1.00  0.00     0.005 C 
ENDBRANCH  12  13
ENDBRANCH  11  12
ENDBRANCH  10  11
ENDBRANCH   9  10
ENDBRANCH   8   9
ENDBRANCH   7   8
ENDBRANCH   6   7
ENDBRANCH   5   6
ENDBRANCH   4   5
ENDBRANCH   3   4
ENDBRANCH   2   3
ENDBRANCH   1   2
BRANCH   1  15
HETATM   15  C   UNL     1     -20.006  -4.840  -6.076  1.00  0.00     0.000 C 
BRANCH  15  16
HETATM   16  C   UNL     1     -19.759  -4.369  -7.500  1.00  0.00     0.010 C 
BRANCH  16  17
HETATM   17  C   UNL     1     -20.695  -5.038  -8.506  1.00  0.00     0.111 C 
BRANCH  17  18
HETATM   18  C   UNL     1     -21.876  -4.140  -8.781  1.00  0.00     0.258 C 
HETATM   19  O   UNL     1     -22.754  -3.885  -7.951  1.00  0.00    -0.265 OA
BRANCH  18  20
HETATM   20  O   UNL     1     -21.892  -3.730 -10.077  1.00  0.00    -0.319 OA
BRANCH  20  21
HETATM   21  C   UNL     1     -23.095  -4.083 -10.780  1.00  0.00     0.212 C 
BRANCH  21  22
HETATM   22  C   UNL     1     -23.716  -2.913 -11.539  1.00  0.00     0.166 C 
BRANCH  22  23
HETATM   23  C   UNL     1     -22.872  -2.535 -12.754  1.00  0.00     0.198 C 
BRANCH  23  24
HETATM   24  O   UNL     1     -22.075  -3.637 -13.144  1.00  0.00    -0.398 OA
HETATM   25  H   UNL     1     -22.352  -4.407 -12.614  1.00  0.00     0.209 HD
ENDBRANCH  23  24
ENDBRANCH  22  23
BRANCH  22  26
HETATM   26  O   UNL     1     -25.056  -3.222 -11.915  1.00  0.00    -0.391 OA
HETATM   27  H   UNL     1     -25.392  -3.945 -11.359  1.00  0.00     0.210 HD
ENDBRANCH  22  26
ENDBRANCH  21  22
ENDBRANCH  20  21
ENDBRANCH  18  20
ENDBRANCH  17  18
ENDBRANCH  16  17
ENDBRANCH  15  16
ENDBRANCH   1  15
TORSDOF 22
ENDMDL
MODEL 7
REMARK VINA RESULT:      -6.4      1.910      4.018
REMARK  22 active torsions:
REMARK  status: ('A' for Active; 'I' for Inactive)
REMARK    1  A    between atoms: C_2  and  C_3 
REMARK    2  A    between atoms: C_3  and  C_4 
REMARK    3  A    between atoms: C_4  and  C_5 
REMARK    4  A    between atoms: C_5  and  C_6 
REMARK    5  A    between atoms: C_6  and  C_7 
REMARK    6  A    between atoms: C_7  and  C_8 
REMARK    7  A    between atoms: C_8  and  C_9 
REMARK    8  A    between atoms: C_9  and  C_10 
REMARK    9  A    between atoms: C_10  and  C_11 
REMARK   10  A    between atoms: C_11  and  C_12 
REMARK   11  A    between atoms: C_12  and  C_13 
REMARK   12  A    between atoms: C_13  and  C_14 
REMARK   13  A    between atoms: C_14  and  C_15 
REMARK   14  A    between atoms: C_15  and  C_16 
REMARK   15  A    between atoms: C_16  and  C_17 
REMARK   16  A    between atoms: C_17  and  C_18 
REMARK   17  A    between atoms: C_18  and  O_20 
REMARK   18  A    between atoms: O_20  and  C_21 
REMARK   19  A    between atoms: C_21  and  C_22 
REMARK   20  A    between atoms: C_22  and  C_23 
REMARK   21  A    between atoms: C_22  and  O_25 
REMARK   22  A    between atoms: C_23  and  O_24 
ROOT
HETATM    1  C   UNL     1     -20.966  -7.413  -5.211  1.00  0.00     0.000 C 
ENDROOT
BRANCH   1   2
HETATM    2  C   UNL     1     -21.345  -8.077  -3.897  1.00  0.00     0.000 C 
BRANCH   2   3
HETATM    3  C   UNL     1     -21.589  -7.028  -2.826  1.00  0.00     0.000 C 
BRANCH   3   4
HETATM    4  C   UNL     1     -21.316  -7.616  -1.452  1.00  0.00     0.000 C 
BRANCH   4   5
HETATM    5  C   UNL     1     -22.511  -7.388  -0.543  1.00  0.00     0.000 C 
BRANCH   5   6
HETATM    6  C   UNL     1     -22.370  -8.225   0.714  1.00  0.00     0.000 C 
BRANCH   6   7
HETATM    7  C   UNL     1     -20.927  -8.659   0.887  1.00  0.00     0.000 C 
BRANCH   7   8
HETATM    8  C   UNL     1     -20.871 -10.131   1.248  1.00  0.00     0.000 C 
BRANCH   8   9
HETATM    9  C   UNL     1     -20.281 -10.922   0.095  1.00  0.00     0.000 C 
BRANCH   9  10
HETATM   10  C   UNL     1     -20.911 -12.303   0.039  1.00  0.00     0.000 C 
BRANCH  10  11
HETATM   11  C   UNL     1     -22.243 -12.294   0.770  1.00  0.00     0.000 C 
BRANCH  11  12
HETATM   12  C   UNL     1     -23.375 -12.563  -0.207  1.00  0.00    -0.000 C 
BRANCH  12  13
HETATM   13  C   UNL     1     -23.939 -11.254  -0.742  1.00  0.00    -0.005 C 
HETATM   14  C   UNL     1     -23.362 -10.952  -2.111  1.00  0.00     0.005 C 
ENDBRANCH  12  13
ENDBRANCH  11  12
ENDBRANCH  10  11
ENDBRANCH   9  10
ENDBRANCH   8   9
ENDBRANCH   7   8
ENDBRANCH   6   7
ENDBRANCH   5   6
ENDBRANCH   4   5
ENDBRANCH   3   4
ENDBRANCH   2   3
ENDBRANCH   1   2
BRANCH   1  15
HETATM   15  C   UNL     1     -21.467  -5.973  -5.242  1.00  0.00     0.000 C 
BRANCH  15  16
HETATM   16  C   UNL     1     -20.776  -5.196  -6.350  1.00  0.00     0.010 C 
BRANCH  16  17
HETATM   17  C   UNL     1     -21.464  -5.375  -7.704  1.00  0.00     0.111 C 
BRANCH  17  18
HETATM   18  C   UNL     1     -20.997  -4.304  -8.659  1.00  0.00     0.258 C 
HETATM   19  O   UNL     1     -19.908  -3.730  -8.569  1.00  0.00    -0.265 OA
BRANCH  18  20
HETATM   20  O   UNL     1     -21.964  -3.996  -9.564  1.00  0.00    -0.319 OA
BRANCH  20  21
HETATM   21  C   UNL     1     -23.291  -3.984  -9.009  1.00  0.00     0.212 C 
BRANCH  21  22
HETATM   22  C   UNL     1     -24.315  -3.300  -9.911  1.00  0.00     0.166 C 
BRANCH  22  23
HETATM   23  C   UNL     1     -24.010  -3.555 -11.384  1.00  0.00     0.198 C 
BRANCH  23  24
HETATM   24  O   UNL     1     -23.062  -2.612 -11.847  1.00  0.00    -0.398 OA
HETATM   25  H   UNL     1     -22.550  -3.032 -12.564  1.00  0.00     0.209 HD
ENDBRANCH  23  24
ENDBRANCH  22  23
BRANCH  22  26
HETATM   26  O   UNL     1     -25.633  -3.726  -9.574  1.00  0.00    -0.391 OA
HETATM   27  H   UNL     1     -25.860  -4.522 -10.085  1.00  0.00     0.210 HD
ENDBRANCH  22  26
ENDBRANCH  21  22
ENDBRANCH  20  21
ENDBRANCH  18  20
ENDBRANCH  17  18
ENDBRANCH  16  17
ENDBRANCH  15  16
ENDBRANCH   1  15
TORSDOF 22
ENDMDL
MODEL 8
REMARK VINA RESULT:      -6.0      2.744      3.448
REMARK  22 active torsions:
REMARK  status: ('A' for Active; 'I' for Inactive)
REMARK    1  A    between atoms: C_2  and  C_3 
REMARK    2  A    between atoms: C_3  and  C_4 
REMARK    3  A    between atoms: C_4  and  C_5 
REMARK    4  A    between atoms: C_5  and  C_6 
REMARK    5  A    between atoms: C_6  and  C_7 
REMARK    6  A    between atoms: C_7  and  C_8 
REMARK    7  A    between atoms: C_8  and  C_9 
REMARK    8  A    between atoms: C_9  and  C_10 
REMARK    9  A    between atoms: C_10  and  C_11 
REMARK   10  A    between atoms: C_11  and  C_12 
REMARK   11  A    between atoms: C_12  and  C_13 
REMARK   12  A    between atoms: C_13  and  C_14 
REMARK   13  A    between atoms: C_14  and  C_15 
REMARK   14  A    between atoms: C_15  and  C_16 
REMARK   15  A    between atoms: C_16  and  C_17 
REMARK   16  A    between atoms: C_17  and  C_18 
REMARK   17  A    between atoms: C_18  and  O_20 
REMARK   18  A    between atoms: O_20  and  C_21 
REMARK   19  A    between atoms: C_21  and  C_22 
REMARK   20  A    between atoms: C_22  and  C_23 
REMARK   21  A    between atoms: C_22  and  O_25 
REMARK   22  A    between atoms: C_23  and  O_24 
ROOT
HETATM    1  C   UNL     1     -20.119  -5.319  -7.768  1.00  0.00     0.000 C 
ENDROOT
BRANCH   1   2
HETATM    2  C   UNL     1     -19.972  -6.093  -6.467  1.00  0.00     0.000 C 
BRANCH   2   3
HETATM    3  C   UNL     1     -20.813  -5.454  -5.375  1.00  0.00     0.000 C 
BRANCH   3   4
HETATM    4  C   UNL     1     -21.225  -6.504  -4.357  1.00  0.00     0.000 C 
BRANCH   4   5
HETATM    5  C   UNL     1     -20.856  -7.888  -4.860  1.00  0.00     0.000 C 
BRANCH   5   6
HETATM    6  C   UNL     1     -19.838  -8.521  -3.931  1.00  0.00     0.000 C 
BRANCH   6   7
HETATM    7  C   UNL     1     -20.366  -8.518  -2.508  1.00  0.00     0.000 C 
BRANCH   7   8
HETATM    8  C   UNL     1     -20.281  -9.915  -1.924  1.00  0.00     0.000 C 
BRANCH   8   9
HETATM    9  C   UNL     1     -19.261 -10.734  -2.694  1.00  0.00     0.000 C 
BRANCH   9  10
HETATM   10  C   UNL     1     -18.072 -11.048  -1.804  1.00  0.00     0.000 C 
BRANCH  10  11
HETATM   11  C   UNL     1     -16.800 -11.094  -2.635  1.00  0.00     0.000 C 
BRANCH  11  12
HETATM   12  C   UNL     1     -16.337  -9.683  -2.957  1.00  0.00    -0.000 C 
BRANCH  12  13
HETATM   13  C   UNL     1     -15.859  -9.596  -4.400  1.00  0.00    -0.005 C 
HETATM   14  C   UNL     1     -16.609 -10.591  -5.264  1.00  0.00     0.005 C 
ENDBRANCH  12  13
ENDBRANCH  11  12
ENDBRANCH  10  11
ENDBRANCH   9  10
ENDBRANCH   8   9
ENDBRANCH   7   8
ENDBRANCH   6   7
ENDBRANCH   5   6
ENDBRANCH   4   5
ENDBRANCH   3   4
ENDBRANCH   2   3
ENDBRANCH   1   2
BRANCH   1  15
HETATM   15  C   UNL     1     -21.333  -4.399  -7.704  1.00  0.00     0.000 C 
BRANCH  15  16
HETATM   16  C   UNL     1     -22.307  -4.730  -8.824  1.00  0.00     0.010 C 
BRANCH  16  17
HETATM   17  C   UNL     1     -22.553  -3.541  -9.753  1.00  0.00     0.111 C 
BRANCH  17  18
HETATM   18  C   UNL     1     -22.305  -3.952 -11.183  1.00  0.00     0.258 C 
HETATM   19  O   UNL     1     -21.195  -4.259 -11.628  1.00  0.00    -0.265 OA
BRANCH  18  20
HETATM   20  O   UNL     1     -23.437  -3.847 -11.929  1.00  0.00    -0.319 OA
BRANCH  20  21
HETATM   21  C   UNL     1     -23.568  -2.587 -12.607  1.00  0.00     0.212 C 
BRANCH  21  22
HETATM   22  C   UNL     1     -23.438  -2.702 -14.124  1.00  0.00     0.166 C 
BRANCH  22  23
HETATM   23  C   UNL     1     -23.577  -1.338 -14.794  1.00  0.00     0.198 C 
BRANCH  23  24
HETATM   24  O   UNL     1     -24.828  -0.766 -14.459  1.00  0.00    -0.398 OA
HETATM   25  H   UNL     1     -25.520  -1.271 -14.925  1.00  0.00     0.209 HD
ENDBRANCH  23  24
ENDBRANCH  22  23
BRANCH  22  26
HETATM   26  O   UNL     1     -22.202  -3.324 -14.468  1.00  0.00    -0.391 OA
HETATM   27  H   UNL     1     -22.375  -4.194 -14.868  1.00  0.00     0.210 HD
ENDBRANCH  22  26
ENDBRANCH  21  22
ENDBRANCH  20  21
ENDBRANCH  18  20
ENDBRANCH  17  18
ENDBRANCH  16  17
ENDBRANCH  15  16
ENDBRANCH   1  15
TORSDOF 22
ENDMDL
MODEL 9
REMARK VINA RESULT:      -6.0      2.506      5.356
REMARK  22 active torsions:
REMARK  status: ('A' for Active; 'I' for Inactive)
REMARK    1  A    between atoms: C_2  and  C_3 
REMARK    2  A    between atoms: C_3  and  C_4 
REMARK    3  A    between atoms: C_4  and  C_5 
REMARK    4  A    between atoms: C_5  and  C_6 
REMARK    5  A    between atoms: C_6  and  C_7 
REMARK    6  A    between atoms: C_7  and  C_8 
REMARK    7  A    between atoms: C_8  and  C_9 
REMARK    8  A    between atoms: C_9  and  C_10 
REMARK    9  A    between atoms: C_10  and  C_11 
REMARK   10  A    between atoms: C_11  and  C_12 
REMARK   11  A    between atoms: C_12  and  C_13 
REMARK   12  A    between atoms: C_13  and  C_14 
REMARK   13  A    between atoms: C_14  and  C_15 
REMARK   14  A    between atoms: C_15  and  C_16 
REMARK   15  A    between atoms: C_16  and  C_17 
REMARK   16  A    between atoms: C_17  and  C_18 
REMARK   17  A    between atoms: C_18  and  O_20 
REMARK   18  A    between atoms: O_20  and  C_21 
REMARK   19  A    between atoms: C_21  and  C_22 
REMARK   20  A    between atoms: C_22  and  C_23 
REMARK   21  A    between atoms: C_22  and  O_25 
REMARK   22  A    between atoms: C_23  and  O_24 
ROOT
HETATM    1  C   UNL     1     -21.395  -6.585  -3.229  1.00  0.00     0.000 C 
ENDROOT
BRANCH   1   2
HETATM    2  C   UNL     1     -21.373  -7.411  -1.953  1.00  0.00     0.000 C 
BRANCH   2   3
HETATM    3  C   UNL     1     -22.360  -6.850  -0.944  1.00  0.00     0.000 C 
BRANCH   3   4
HETATM    4  C   UNL     1     -22.687  -7.902   0.102  1.00  0.00     0.000 C 
BRANCH   4   5
HETATM    5  C   UNL     1     -22.420  -9.289  -0.456  1.00  0.00     0.000 C 
BRANCH   5   6
HETATM    6  C   UNL     1     -23.567 -10.217  -0.103  1.00  0.00     0.000 C 
BRANCH   6   7
HETATM    7  C   UNL     1     -23.807 -11.195  -1.238  1.00  0.00     0.000 C 
BRANCH   7   8
HETATM    8  C   UNL     1     -22.853 -10.902  -2.381  1.00  0.00     0.000 C 
BRANCH   8   9
HETATM    9  C   UNL     1     -22.067 -12.153  -2.729  1.00  0.00     0.000 C 
BRANCH   9  10
HETATM   10  C   UNL     1     -20.599 -11.949  -2.403  1.00  0.00     0.000 C 
BRANCH  10  11
HETATM   11  C   UNL     1     -20.089 -10.685  -3.076  1.00  0.00     0.000 C 
BRANCH  11  12
HETATM   12  C   UNL     1     -18.839 -10.187  -2.369  1.00  0.00    -0.000 C 
BRANCH  12  13
HETATM   13  C   UNL     1     -17.900  -9.514  -3.361  1.00  0.00    -0.005 C 
HETATM   14  C   UNL     1     -16.480  -9.523  -2.831  1.00  0.00     0.005 C 
ENDBRANCH  12  13
ENDBRANCH  11  12
ENDBRANCH  10  11
ENDBRANCH   9  10
ENDBRANCH   8   9
ENDBRANCH   7   8
ENDBRANCH   6   7
ENDBRANCH   5   6
ENDBRANCH   4   5
ENDBRANCH   3   4
ENDBRANCH   2   3
ENDBRANCH   1   2
BRANCH   1  15
HETATM   15  C   UNL     1     -20.789  -7.375  -4.384  1.00  0.00     0.000 C 
BRANCH  15  16
HETATM   16  C   UNL     1     -20.947  -6.610  -5.688  1.00  0.00     0.010 C 
BRANCH  16  17
HETATM   17  C   UNL     1     -20.536  -5.144  -5.557  1.00  0.00     0.111 C 
BRANCH  17  18
HETATM   18  C   UNL     1     -20.367  -4.537  -6.928  1.00  0.00     0.258 C 
HETATM   19  O   UNL     1     -19.279  -4.423  -7.500  1.00  0.00    -0.265 OA
BRANCH  18  20
HETATM   20  O   UNL     1     -21.547  -4.052  -7.401  1.00  0.00    -0.319 OA
BRANCH  20  21
HETATM   21  C   UNL     1     -21.970  -4.663  -8.631  1.00  0.00     0.212 C 
BRANCH  21  22
HETATM   22  C   UNL     1     -21.777  -3.762  -9.849  1.00  0.00     0.166 C 
BRANCH  22  23
HETATM   23  C   UNL     1     -20.777  -4.368 -10.830  1.00  0.00     0.198 C 
BRANCH  23  24
HETATM   24  O   UNL     1     -20.249  -3.353 -11.662  1.00  0.00    -0.398 OA
HETATM   25  H   UNL     1     -20.988  -2.778 -11.936  1.00  0.00     0.209 HD
ENDBRANCH  23  24
ENDBRANCH  22  23
BRANCH  22  26
HETATM   26  O   UNL     1     -23.030  -3.507 -10.478  1.00  0.00    -0.391 OA
HETATM   27  H   UNL     1     -22.923  -2.811 -11.150  1.00  0.00     0.210 HD
ENDBRANCH  22  26
ENDBRANCH  21  22
ENDBRANCH  20  21
ENDBRANCH  18  20
ENDBRANCH  17  18
ENDBRANCH  16  17
ENDBRANCH  15  16
ENDBRANCH   1  15
TORSDOF 22
ENDMDL
