MODEL 1
REMARK VINA RESULT:      -8.2      0.000      0.000
REMARK  8 active torsions:
REMARK  status: ('A' for Active; 'I' for Inactive)
REMARK    1  A    between atoms: N_2  and  C_4 
REMARK    2  A    between atoms: C_7  and  C_10 
REMARK    3  A    between atoms: C_10  and  C_20 
REMARK    4  A    between atoms: C_24  and  S_35 
REMARK    5  A    between atoms: C_28  and  S_31 
REMARK    6  A    between atoms: C_29  and  O_30 
REMARK    7  A    between atoms: S_31  and  O_34 
REMARK    8  A    between atoms: S_35  and  O_38 
ROOT
HETATM    1  C   UNL     1     -20.976  -9.525  -4.049  1.00  0.00     0.022 A 
HETATM    2  C   UNL     1     -21.551 -10.742  -4.545  1.00  0.00    -0.012 A 
HETATM    3  C   UNL     1     -21.188 -11.341  -5.780  1.00  0.00     0.015 A 
HETATM    4  C   UNL     1     -21.797 -12.508  -6.244  1.00  0.00     0.026 A 
HETATM    5  C   UNL     1     -22.778 -13.110  -5.470  1.00  0.00     0.073 A 
HETATM    6  C   UNL     1     -23.155 -12.566  -4.241  1.00  0.00     0.037 A 
HETATM    7  C   UNL     1     -22.538 -11.399  -3.768  1.00  0.00    -0.022 A 
HETATM    8  C   UNL     1     -22.872 -10.909  -2.504  1.00  0.00     0.040 A 
HETATM    9  C   UNL     1     -22.245  -9.766  -2.003  1.00  0.00     0.107 A 
HETATM   10  C   UNL     1     -21.359  -9.029  -2.788  1.00  0.00     0.101 A 
ENDROOT
BRANCH   1  11
HETATM   11  C   UNL     1     -19.885  -8.835  -4.840  1.00  0.00    -0.002 C 
HETATM   12  C   UNL     1     -20.215  -7.616  -5.380  1.00  0.00    -0.024 C 
HETATM   13  C   UNL     1     -21.580  -7.069  -5.339  1.00  0.00     0.014 C 
HETATM   14  C   UNL     1     -19.232  -6.698  -5.954  1.00  0.00     0.014 C 
HETATM   15  C   UNL     1     -21.988  -6.148  -6.227  1.00  0.00     0.030 C 
HETATM   16  C   UNL     1     -21.029  -5.626  -7.257  1.00  0.00     0.029 C 
HETATM   17  N   UNL     1     -21.402  -5.053  -8.368  1.00  0.00    -0.390 N 
HETATM   18  C   UNL     1     -19.586  -5.772  -6.857  1.00  0.00     0.030 C 
HETATM   19  C   UNL     1     -20.446  -4.610  -9.438  1.00  0.00     0.149 C 
HETATM   20  C   UNL     1     -22.829  -4.792  -8.752  1.00  0.00     0.149 C 
BRANCH  11  21
HETATM   21  C   UNL     1     -18.509  -9.468  -4.940  1.00  0.00    -0.024 A 
HETATM   22  C   UNL     1     -18.042  -9.986  -6.156  1.00  0.00     0.014 A 
HETATM   23  C   UNL     1     -16.794 -10.624  -6.264  1.00  0.00     0.030 A 
HETATM   24  C   UNL     1     -15.933 -10.778  -5.171  1.00  0.00     0.029 A 
HETATM   25  C   UNL     1     -16.381 -10.215  -3.971  1.00  0.00     0.030 A 
HETATM   26  C   UNL     1     -17.610  -9.537  -3.869  1.00  0.00     0.014 A 
BRANCH  24  27
HETATM   27  N   UNL     1     -14.721 -11.457  -5.281  1.00  0.00    -0.390 N 
HETATM   28  C   UNL     1     -14.136 -12.036  -4.072  1.00  0.00     0.149 C 
HETATM   29  C   UNL     1     -14.318 -12.055  -6.550  1.00  0.00     0.149 C 
ENDBRANCH  24  27
ENDBRANCH  11  21
ENDBRANCH   1  11
BRANCH  10  30
HETATM   30  O   UNL     1     -20.795  -7.858  -2.348  1.00  0.00    -0.358 OA
HETATM   31  H   UNL     1     -20.125  -7.546  -2.996  1.00  0.00     0.217 HD
ENDBRANCH  10  30
BRANCH   9  32
HETATM   32  S   UNL     1     -22.467  -9.353  -0.303  1.00  0.00     0.132 S 
HETATM   33  O   UNL     1     -23.676 -10.018   0.130  1.00  0.00    -0.597 OA
HETATM   34  O   UNL     1     -21.191  -9.573   0.341  1.00  0.00    -0.597 OA
BRANCH  32  35
HETATM   35  O   UNL     1     -22.799  -7.776  -0.274  1.00  0.00    -0.292 OA
HETATM   36  H   UNL     1     -22.987  -7.521   0.656  1.00  0.00     0.232 HD
ENDBRANCH  32  35
ENDBRANCH   9  32
BRANCH   5  37
HETATM   37  S   UNL     1     -23.598 -14.566  -6.054  1.00  0.00     0.129 S 
HETATM   38  O   UNL     1     -24.969 -14.208  -6.355  1.00  0.00    -0.598 OA
HETATM   39  O   UNL     1     -22.724 -15.189  -7.014  1.00  0.00    -0.598 OA
BRANCH  37  40
HETATM   40  O   UNL     1     -23.685 -15.505  -4.746  1.00  0.00    -0.292 OA
HETATM   41  H   UNL     1     -24.337 -15.101  -4.132  1.00  0.00     0.232 HD
ENDBRANCH  37  40
ENDBRANCH   5  37
TORSDOF 8
ENDMDL
MODEL 2
REMARK VINA RESULT:      -7.6      3.370      6.982
REMARK  8 active torsions:
REMARK  status: ('A' for Active; 'I' for Inactive)
REMARK    1  A    between atoms: N_2  and  C_4 
REMARK    2  A    between atoms: C_7  and  C_10 
REMARK    3  A    between atoms: C_10  and  C_20 
REMARK    4  A    between atoms: C_24  and  S_35 
REMARK    5  A    between atoms: C_28  and  S_31 
REMARK    6  A    between atoms: C_29  and  O_30 
REMARK    7  A    between atoms: S_31  and  O_34 
REMARK    8  A    between atoms: S_35  and  O_38 
ROOT
HETATM    1  C   UNL     1     -21.032 -10.158  -3.050  1.00  0.00     0.022 A 
HETATM    2  C   UNL     1     -21.148  -9.008  -3.899  1.00  0.00    -0.012 A 
HETATM    3  C   UNL     1     -20.840  -9.015  -5.285  1.00  0.00     0.015 A 
HETATM    4  C   UNL     1     -20.932  -7.866  -6.070  1.00  0.00     0.026 A 
HETATM    5  C   UNL     1     -21.349  -6.680  -5.483  1.00  0.00     0.073 A 
HETATM    6  C   UNL     1     -21.678  -6.629  -4.127  1.00  0.00     0.037 A 
HETATM    7  C   UNL     1     -21.596  -7.785  -3.338  1.00  0.00    -0.022 A 
HETATM    8  C   UNL     1     -22.000  -7.736  -2.003  1.00  0.00     0.040 A 
HETATM    9  C   UNL     1     -21.955  -8.885  -1.211  1.00  0.00     0.107 A 
HETATM   10  C   UNL     1     -21.408 -10.073  -1.695  1.00  0.00     0.101 A 
ENDROOT
BRANCH   1  11
HETATM   11  C   UNL     1     -20.604 -11.484  -3.639  1.00  0.00    -0.002 C 
HETATM   12  C   UNL     1     -19.255 -11.742  -3.621  1.00  0.00    -0.024 C 
HETATM   13  C   UNL     1     -18.259 -10.742  -3.204  1.00  0.00     0.014 C 
HETATM   14  C   UNL     1     -18.682 -13.056  -3.911  1.00  0.00     0.014 C 
HETATM   15  C   UNL     1     -16.981 -10.823  -3.609  1.00  0.00     0.030 C 
HETATM   16  C   UNL     1     -16.539 -11.974  -4.466  1.00  0.00     0.029 C 
HETATM   17  N   UNL     1     -15.470 -11.949  -5.214  1.00  0.00    -0.390 N 
HETATM   18  C   UNL     1     -17.416 -13.188  -4.334  1.00  0.00     0.030 C 
HETATM   19  C   UNL     1     -15.075 -13.065  -6.138  1.00  0.00     0.149 C 
HETATM   20  C   UNL     1     -14.511 -10.797  -5.290  1.00  0.00     0.149 C 
BRANCH  11  21
HETATM   21  C   UNL     1     -21.651 -12.460  -4.143  1.00  0.00    -0.024 A 
HETATM   22  C   UNL     1     -22.130 -13.490  -3.322  1.00  0.00     0.014 A 
HETATM   23  C   UNL     1     -23.061 -14.439  -3.782  1.00  0.00     0.030 A 
HETATM   24  C   UNL     1     -23.577 -14.414  -5.082  1.00  0.00     0.029 A 
HETATM   25  C   UNL     1     -23.135 -13.355  -5.883  1.00  0.00     0.030 A 
HETATM   26  C   UNL     1     -22.237 -12.379  -5.412  1.00  0.00     0.014 A 
BRANCH  24  27
HETATM   27  N   UNL     1     -24.460 -15.389  -5.541  1.00  0.00    -0.390 N 
HETATM   28  C   UNL     1     -24.170 -16.049  -6.814  1.00  0.00     0.149 C 
HETATM   29  C   UNL     1     -25.303 -16.126  -4.604  1.00  0.00     0.149 C 
ENDBRANCH  24  27
ENDBRANCH  11  21
ENDBRANCH   1  11
BRANCH  10  30
HETATM   30  O   UNL     1     -21.278 -11.190  -0.909  1.00  0.00    -0.358 OA
HETATM   31  H   UNL     1     -21.859 -11.906  -1.248  1.00  0.00     0.217 HD
ENDBRANCH  10  30
BRANCH   9  32
HETATM   32  S   UNL     1     -22.746  -8.860   0.366  1.00  0.00     0.132 S 
HETATM   33  O   UNL     1     -23.730  -9.920   0.352  1.00  0.00    -0.597 OA
HETATM   34  O   UNL     1     -21.690  -8.799   1.352  1.00  0.00    -0.597 OA
BRANCH  32  35
HETATM   35  O   UNL     1     -23.584  -7.483   0.415  1.00  0.00    -0.292 OA
HETATM   36  H   UNL     1     -23.000  -6.785   0.785  1.00  0.00     0.232 HD
ENDBRANCH  32  35
ENDBRANCH   9  32
BRANCH   5  37
HETATM   37  S   UNL     1     -21.432  -5.196  -6.445  1.00  0.00     0.129 S 
HETATM   38  O   UNL     1     -22.825  -4.807  -6.532  1.00  0.00    -0.598 OA
HETATM   39  O   UNL     1     -20.403  -4.316  -5.956  1.00  0.00    -0.598 OA
BRANCH  37  40
HETATM   40  O   UNL     1     -21.035  -5.683  -7.930  1.00  0.00    -0.292 OA
HETATM   41  H   UNL     1     -20.522  -4.960  -8.353  1.00  0.00     0.232 HD
ENDBRANCH  37  40
ENDBRANCH   5  37
TORSDOF 8
ENDMDL
MODEL 3
REMARK VINA RESULT:      -7.6      3.591      6.209
REMARK  8 active torsions:
REMARK  status: ('A' for Active; 'I' for Inactive)
REMARK    1  A    between atoms: N_2  and  C_4 
REMARK    2  A    between atoms: C_7  and  C_10 
REMARK    3  A    between atoms: C_10  and  C_20 
REMARK    4  A    between atoms: C_24  and  S_35 
REMARK    5  A    between atoms: C_28  and  S_31 
REMARK    6  A    between atoms: C_29  and  O_30 
REMARK    7  A    between atoms: S_31  and  O_34 
REMARK    8  A    between atoms: S_35  and  O_38 
ROOT
HETATM    1  C   UNL     1     -20.320  -9.892  -2.936  1.00  0.00     0.022 A 
HETATM    2  C   UNL     1     -20.620  -8.793  -3.807  1.00  0.00    -0.012 A 
HETATM    3  C   UNL     1     -20.430  -8.826  -5.213  1.00  0.00     0.015 A 
HETATM    4  C   UNL     1     -20.701  -7.722  -6.023  1.00  0.00     0.026 A 
HETATM    5  C   UNL     1     -21.184  -6.560  -5.438  1.00  0.00     0.073 A 
HETATM    6  C   UNL     1     -21.403  -6.488  -4.062  1.00  0.00     0.037 A 
HETATM    7  C   UNL     1     -21.140  -7.599  -3.247  1.00  0.00    -0.022 A 
HETATM    8  C   UNL     1     -21.434  -7.537  -1.884  1.00  0.00     0.040 A 
HETATM    9  C   UNL     1     -21.209  -8.644  -1.063  1.00  0.00     0.107 A 
HETATM   10  C   UNL     1     -20.588  -9.791  -1.557  1.00  0.00     0.101 A 
ENDROOT
BRANCH   1  11
HETATM   11  C   UNL     1     -19.812 -11.193  -3.518  1.00  0.00    -0.002 C 
HETATM   12  C   UNL     1     -20.772 -12.114  -3.859  1.00  0.00    -0.024 C 
HETATM   13  C   UNL     1     -22.197 -11.933  -3.544  1.00  0.00     0.014 C 
HETATM   14  C   UNL     1     -20.494 -13.309  -4.656  1.00  0.00     0.014 C 
HETATM   15  C   UNL     1     -23.030 -12.983  -3.458  1.00  0.00     0.030 C 
HETATM   16  C   UNL     1     -22.518 -14.368  -3.731  1.00  0.00     0.029 C 
HETATM   17  N   UNL     1     -23.108 -15.453  -3.309  1.00  0.00    -0.390 N 
HETATM   18  C   UNL     1     -21.286 -14.390  -4.592  1.00  0.00     0.030 C 
HETATM   19  C   UNL     1     -22.551 -16.834  -3.506  1.00  0.00     0.149 C 
HETATM   20  C   UNL     1     -24.397 -15.476  -2.540  1.00  0.00     0.149 C 
BRANCH  11  21
HETATM   21  C   UNL     1     -18.324 -11.387  -3.750  1.00  0.00    -0.024 A 
HETATM   22  C   UNL     1     -17.747 -11.101  -4.994  1.00  0.00     0.014 A 
HETATM   23  C   UNL     1     -16.382 -11.321  -5.251  1.00  0.00     0.030 A 
HETATM   24  C   UNL     1     -15.508 -11.830  -4.283  1.00  0.00     0.029 A 
HETATM   25  C   UNL     1     -16.078 -12.066  -3.027  1.00  0.00     0.030 A 
HETATM   26  C   UNL     1     -17.434 -11.805  -2.753  1.00  0.00     0.014 A 
BRANCH  24  27
HETATM   27  N   UNL     1     -14.169 -12.090  -4.565  1.00  0.00    -0.390 N 
HETATM   28  C   UNL     1     -13.367 -12.784  -3.557  1.00  0.00     0.149 C 
HETATM   29  C   UNL     1     -13.709 -12.193  -5.946  1.00  0.00     0.149 C 
ENDBRANCH  24  27
ENDBRANCH  11  21
ENDBRANCH   1  11
BRANCH  10  30
HETATM   30  O   UNL     1     -20.282 -10.858  -0.751  1.00  0.00    -0.358 OA
HETATM   31  H   UNL     1     -21.100 -11.207  -0.333  1.00  0.00     0.217 HD
ENDBRANCH  10  30
BRANCH   9  32
HETATM   32  S   UNL     1     -21.864  -8.633   0.574  1.00  0.00     0.132 S 
HETATM   33  O   UNL     1     -20.739  -8.768   1.472  1.00  0.00    -0.597 OA
HETATM   34  O   UNL     1     -22.776  -7.512   0.641  1.00  0.00    -0.597 OA
BRANCH  32  35
HETATM   35  O   UNL     1     -22.708  -9.999   0.719  1.00  0.00    -0.292 OA
HETATM   36  H   UNL     1     -22.783 -10.211   1.675  1.00  0.00     0.232 HD
ENDBRANCH  32  35
ENDBRANCH   9  32
BRANCH   5  37
HETATM   37  S   UNL     1     -21.495  -5.130  -6.435  1.00  0.00     0.129 S 
HETATM   38  O   UNL     1     -22.919  -4.869  -6.396  1.00  0.00    -0.598 OA
HETATM   39  O   UNL     1     -20.509  -4.143  -6.079  1.00  0.00    -0.598 OA
BRANCH  37  40
HETATM   40  O   UNL     1     -21.199  -5.640  -7.935  1.00  0.00    -0.292 OA
HETATM   41  H   UNL     1     -21.075  -4.847  -8.501  1.00  0.00     0.232 HD
ENDBRANCH  37  40
ENDBRANCH   5  37
TORSDOF 8
ENDMDL
MODEL 4
REMARK VINA RESULT:      -7.2      4.235      8.770
REMARK  8 active torsions:
REMARK  status: ('A' for Active; 'I' for Inactive)
REMARK    1  A    between atoms: N_2  and  C_4 
REMARK    2  A    between atoms: C_7  and  C_10 
REMARK    3  A    between atoms: C_10  and  C_20 
REMARK    4  A    between atoms: C_24  and  S_35 
REMARK    5  A    between atoms: C_28  and  S_31 
REMARK    6  A    between atoms: C_29  and  O_30 
REMARK    7  A    between atoms: S_31  and  O_34 
REMARK    8  A    between atoms: S_35  and  O_38 
ROOT
HETATM    1  C   UNL     1     -20.368 -12.098  -2.427  1.00  0.00     0.022 A 
HETATM    2  C   UNL     1     -20.669 -10.707  -2.602  1.00  0.00    -0.012 A 
HETATM    3  C   UNL     1     -20.472  -9.724  -1.597  1.00  0.00     0.015 A 
HETATM    4  C   UNL     1     -20.811  -8.385  -1.794  1.00  0.00     0.026 A 
HETATM    5  C   UNL     1     -21.346  -7.998  -3.015  1.00  0.00     0.073 A 
HETATM    6  C   UNL     1     -21.542  -8.927  -4.037  1.00  0.00     0.037 A 
HETATM    7  C   UNL     1     -21.194 -10.271  -3.845  1.00  0.00    -0.022 A 
HETATM    8  C   UNL     1     -21.326 -11.174  -4.902  1.00  0.00     0.040 A 
HETATM    9  C   UNL     1     -20.953 -12.509  -4.738  1.00  0.00     0.107 A 
HETATM   10  C   UNL     1     -20.548 -12.997  -3.496  1.00  0.00     0.101 A 
ENDROOT
BRANCH   1  11
HETATM   11  C   UNL     1     -19.762 -12.576  -1.125  1.00  0.00    -0.002 C 
HETATM   12  C   UNL     1     -18.405 -12.409  -0.998  1.00  0.00    -0.024 C 
HETATM   13  C   UNL     1     -17.552 -11.943  -2.103  1.00  0.00     0.014 C 
HETATM   14  C   UNL     1     -17.688 -12.576   0.266  1.00  0.00     0.014 C 
HETATM   15  C   UNL     1     -16.237 -12.212  -2.128  1.00  0.00     0.030 C 
HETATM   16  C   UNL     1     -15.605 -12.963  -0.993  1.00  0.00     0.029 C 
HETATM   17  N   UNL     1     -14.470 -13.600  -1.090  1.00  0.00    -0.390 N 
HETATM   18  C   UNL     1     -16.378 -12.863   0.293  1.00  0.00     0.030 C 
HETATM   19  C   UNL     1     -13.881 -14.425   0.018  1.00  0.00     0.149 C 
HETATM   20  C   UNL     1     -13.616 -13.633  -2.324  1.00  0.00     0.149 C 
BRANCH  11  21
HETATM   21  C   UNL     1     -20.658 -13.137  -0.036  1.00  0.00    -0.024 A 
HETATM   22  C   UNL     1     -20.410 -14.399   0.522  1.00  0.00     0.014 A 
HETATM   23  C   UNL     1     -21.254 -14.964   1.494  1.00  0.00     0.030 A 
HETATM   24  C   UNL     1     -22.390 -14.304   1.976  1.00  0.00     0.029 A 
HETATM   25  C   UNL     1     -22.606 -13.024   1.454  1.00  0.00     0.030 A 
HETATM   26  C   UNL     1     -21.739 -12.437   0.514  1.00  0.00     0.014 A 
BRANCH  24  27
HETATM   27  N   UNL     1     -23.246 -14.895   2.903  1.00  0.00    -0.390 N 
HETATM   28  C   UNL     1     -24.391 -15.658   2.405  1.00  0.00     0.149 C 
HETATM   29  C   UNL     1     -22.770 -15.234   4.240  1.00  0.00     0.149 C 
ENDBRANCH  24  27
ENDBRANCH  11  21
ENDBRANCH   1  11
BRANCH  10  30
HETATM   30  O   UNL     1     -20.257 -14.322  -3.292  1.00  0.00    -0.358 OA
HETATM   31  H   UNL     1     -19.659 -14.418  -2.518  1.00  0.00     0.217 HD
ENDBRANCH  10  30
BRANCH   9  32
HETATM   32  S   UNL     1     -20.850 -13.542  -6.165  1.00  0.00     0.132 S 
HETATM   33  O   UNL     1     -21.336 -12.758  -7.279  1.00  0.00    -0.597 OA
HETATM   34  O   UNL     1     -19.527 -14.127  -6.150  1.00  0.00    -0.597 OA
BRANCH  32  35
HETATM   35  O   UNL     1     -21.938 -14.710  -5.941  1.00  0.00    -0.292 OA
HETATM   36  H   UNL     1     -21.464 -15.571  -5.942  1.00  0.00     0.232 HD
ENDBRANCH  32  35
ENDBRANCH   9  32
BRANCH   5  37
HETATM   37  S   UNL     1     -21.827  -6.314  -3.277  1.00  0.00     0.129 S 
HETATM   38  O   UNL     1     -20.626  -5.504  -3.241  1.00  0.00    -0.598 OA
HETATM   39  O   UNL     1     -22.744  -6.303  -4.387  1.00  0.00    -0.598 OA
BRANCH  37  40
HETATM   40  O   UNL     1     -22.634  -5.935  -1.934  1.00  0.00    -0.292 OA
HETATM   41  H   UNL     1     -22.208  -5.139  -1.545  1.00  0.00     0.232 HD
ENDBRANCH  37  40
ENDBRANCH   5  37
TORSDOF 8
ENDMDL
MODEL 5
REMARK VINA RESULT:      -7.1      3.791      6.173
REMARK  8 active torsions:
REMARK  status: ('A' for Active; 'I' for Inactive)
REMARK    1  A    between atoms: N_2  and  C_4 
REMARK    2  A    between atoms: C_7  and  C_10 
REMARK    3  A    between atoms: C_10  and  C_20 
REMARK    4  A    between atoms: C_24  and  S_35 
REMARK    5  A    between atoms: C_28  and  S_31 
REMARK    6  A    between atoms: C_29  and  O_30 
REMARK    7  A    between atoms: S_31  and  O_34 
REMARK    8  A    between atoms: S_35  and  O_38 
ROOT
HETATM    1  C   UNL     1     -20.403 -10.017  -2.567  1.00  0.00     0.022 A 
HETATM    2  C   UNL     1     -20.455  -8.927  -3.497  1.00  0.00    -0.012 A 
HETATM    3  C   UNL     1     -19.884  -8.970  -4.796  1.00  0.00     0.015 A 
HETATM    4  C   UNL     1     -19.926  -7.875  -5.659  1.00  0.00     0.026 A 
HETATM    5  C   UNL     1     -20.556  -6.711  -5.242  1.00  0.00     0.073 A 
HETATM    6  C   UNL     1     -21.146  -6.629  -3.980  1.00  0.00     0.037 A 
HETATM    7  C   UNL     1     -21.113  -7.731  -3.114  1.00  0.00    -0.022 A 
HETATM    8  C   UNL     1     -21.772  -7.660  -1.885  1.00  0.00     0.040 A 
HETATM    9  C   UNL     1     -21.778  -8.759  -1.024  1.00  0.00     0.107 A 
HETATM   10  C   UNL     1     -21.041  -9.906  -1.316  1.00  0.00     0.101 A 
ENDROOT
BRANCH   1  11
HETATM   11  C   UNL     1     -19.749 -11.320  -2.974  1.00  0.00    -0.002 C 
HETATM   12  C   UNL     1     -20.340 -11.988  -4.018  1.00  0.00    -0.024 C 
HETATM   13  C   UNL     1     -21.616 -11.564  -4.615  1.00  0.00     0.014 C 
HETATM   14  C   UNL     1     -19.716 -13.118  -4.707  1.00  0.00     0.014 C 
HETATM   15  C   UNL     1     -22.393 -12.431  -5.284  1.00  0.00     0.030 C 
HETATM   16  C   UNL     1     -21.942 -13.850  -5.472  1.00  0.00     0.029 C 
HETATM   17  N   UNL     1     -22.752 -14.836  -5.743  1.00  0.00    -0.390 N 
HETATM   18  C   UNL     1     -20.451 -14.020  -5.374  1.00  0.00     0.030 C 
HETATM   19  C   UNL     1     -22.314 -16.269  -5.844  1.00  0.00     0.149 C 
HETATM   20  C   UNL     1     -24.230 -14.689  -5.955  1.00  0.00     0.149 C 
BRANCH  11  21
HETATM   21  C   UNL     1     -18.480 -11.778  -2.278  1.00  0.00    -0.024 A 
HETATM   22  C   UNL     1     -17.255 -11.141  -2.522  1.00  0.00     0.014 A 
HETATM   23  C   UNL     1     -16.057 -11.578  -1.931  1.00  0.00     0.030 A 
HETATM   24  C   UNL     1     -16.006 -12.668  -1.055  1.00  0.00     0.029 A 
HETATM   25  C   UNL     1     -17.237 -13.270  -0.775  1.00  0.00     0.030 A 
HETATM   26  C   UNL     1     -18.446 -12.807  -1.330  1.00  0.00     0.014 A 
BRANCH  24  27
HETATM   27  N   UNL     1     -14.804 -13.123  -0.516  1.00  0.00    -0.390 N 
HETATM   28  C   UNL     1     -14.661 -13.153   0.939  1.00  0.00     0.149 C 
HETATM   29  C   UNL     1     -13.949 -14.032  -1.273  1.00  0.00     0.149 C 
ENDBRANCH  24  27
ENDBRANCH  11  21
ENDBRANCH   1  11
BRANCH  10  30
HETATM   30  O   UNL     1     -20.965 -10.965  -0.447  1.00  0.00    -0.358 OA
HETATM   31  H   UNL     1     -20.064 -11.355  -0.474  1.00  0.00     0.217 HD
ENDBRANCH  10  30
BRANCH   9  32
HETATM   32  S   UNL     1     -22.860  -8.739   0.369  1.00  0.00     0.132 S 
HETATM   33  O   UNL     1     -23.769  -9.851   0.203  1.00  0.00    -0.597 OA
HETATM   34  O   UNL     1     -22.019  -8.597   1.537  1.00  0.00    -0.597 OA
BRANCH  32  35
HETATM   35  O   UNL     1     -23.757  -7.410   0.210  1.00  0.00    -0.292 OA
HETATM   36  H   UNL     1     -24.555  -7.511   0.775  1.00  0.00     0.232 HD
ENDBRANCH  32  35
ENDBRANCH   9  32
BRANCH   5  37
HETATM   37  S   UNL     1     -20.585  -5.291  -6.299  1.00  0.00     0.129 S 
HETATM   38  O   UNL     1     -21.903  -5.214  -6.896  1.00  0.00    -0.598 OA
HETATM   39  O   UNL     1     -19.995  -4.203  -5.564  1.00  0.00    -0.598 OA
BRANCH  37  40
HETATM   40  O   UNL     1     -19.597  -5.696  -7.507  1.00  0.00    -0.292 OA
HETATM   41  H   UNL     1     -20.137  -6.140  -8.198  1.00  0.00     0.232 HD
ENDBRANCH  37  40
ENDBRANCH   5  37
TORSDOF 8
ENDMDL
MODEL 6
REMARK VINA RESULT:      -7.0      4.728      8.560
REMARK  8 active torsions:
REMARK  status: ('A' for Active; 'I' for Inactive)
REMARK    1  A    between atoms: N_2  and  C_4 
REMARK    2  A    between atoms: C_7  and  C_10 
REMARK    3  A    between atoms: C_10  and  C_20 
REMARK    4  A    between atoms: C_24  and  S_35 
REMARK    5  A    between atoms: C_28  and  S_31 
REMARK    6  A    between atoms: C_29  and  O_30 
REMARK    7  A    between atoms: S_31  and  O_34 
REMARK    8  A    between atoms: S_35  and  O_38 
ROOT
HETATM    1  C   UNL     1     -20.163 -11.452  -0.927  1.00  0.00     0.022 A 
HETATM    2  C   UNL     1     -19.589 -11.112  -2.197  1.00  0.00    -0.012 A 
HETATM    3  C   UNL     1     -18.949 -12.049  -3.050  1.00  0.00     0.015 A 
HETATM    4  C   UNL     1     -18.370 -11.672  -4.262  1.00  0.00     0.026 A 
HETATM    5  C   UNL     1     -18.433 -10.342  -4.654  1.00  0.00     0.073 A 
HETATM    6  C   UNL     1     -19.068  -9.389  -3.855  1.00  0.00     0.037 A 
HETATM    7  C   UNL     1     -19.657  -9.767  -2.641  1.00  0.00    -0.022 A 
HETATM    8  C   UNL     1     -20.353  -8.818  -1.889  1.00  0.00     0.040 A 
HETATM    9  C   UNL     1     -20.974  -9.184  -0.694  1.00  0.00     0.107 A 
HETATM   10  C   UNL     1     -20.825 -10.467  -0.168  1.00  0.00     0.101 A 
ENDROOT
BRANCH   1  11
HETATM   11  C   UNL     1     -20.145 -12.890  -0.456  1.00  0.00    -0.002 C 
HETATM   12  C   UNL     1     -19.040 -13.272   0.265  1.00  0.00    -0.024 C 
HETATM   13  C   UNL     1     -17.868 -12.401   0.447  1.00  0.00     0.014 C 
HETATM   14  C   UNL     1     -18.958 -14.530   1.007  1.00  0.00     0.014 C 
HETATM   15  C   UNL     1     -16.660 -12.913   0.735  1.00  0.00     0.030 C 
HETATM   16  C   UNL     1     -16.499 -14.393   0.921  1.00  0.00     0.029 C 
HETATM   17  N   UNL     1     -15.357 -15.016   0.814  1.00  0.00    -0.390 N 
HETATM   18  C   UNL     1     -17.776 -15.089   1.304  1.00  0.00     0.030 C 
HETATM   19  C   UNL     1     -15.209 -16.507   0.913  1.00  0.00     0.149 C 
HETATM   20  C   UNL     1     -14.044 -14.343   0.540  1.00  0.00     0.149 C 
BRANCH  11  21
HETATM   21  C   UNL     1     -21.333 -13.792  -0.737  1.00  0.00    -0.024 A 
HETATM   22  C   UNL     1     -21.346 -14.638  -1.855  1.00  0.00     0.014 A 
HETATM   23  C   UNL     1     -22.455 -15.444  -2.167  1.00  0.00     0.030 A 
HETATM   24  C   UNL     1     -23.613 -15.463  -1.382  1.00  0.00     0.029 A 
HETATM   25  C   UNL     1     -23.577 -14.655  -0.240  1.00  0.00     0.030 A 
HETATM   26  C   UNL     1     -22.451 -13.881   0.100  1.00  0.00     0.014 A 
BRANCH  24  27
HETATM   27  N   UNL     1     -24.724 -16.228  -1.730  1.00  0.00    -0.390 N 
HETATM   28  C   UNL     1     -25.841 -16.303  -0.788  1.00  0.00     0.149 C 
HETATM   29  C   UNL     1     -25.038 -16.485  -3.132  1.00  0.00     0.149 C 
ENDBRANCH  24  27
ENDBRANCH  11  21
ENDBRANCH   1  11
BRANCH  10  30
HETATM   30  O   UNL     1     -21.356 -10.825   1.045  1.00  0.00    -0.358 OA
HETATM   31  H   UNL     1     -21.480 -11.799   1.082  1.00  0.00     0.217 HD
ENDBRANCH  10  30
BRANCH   9  32
HETATM   32  S   UNL     1     -22.084  -8.045   0.068  1.00  0.00     0.132 S 
HETATM   33  O   UNL     1     -21.606  -7.840   1.418  1.00  0.00    -0.597 OA
HETATM   34  O   UNL     1     -22.253  -6.953  -0.865  1.00  0.00    -0.597 OA
BRANCH  32  35
HETATM   35  O   UNL     1     -23.486  -8.827   0.212  1.00  0.00    -0.292 OA
HETATM   36  H   UNL     1     -23.395  -9.486   0.935  1.00  0.00     0.232 HD
ENDBRANCH  32  35
ENDBRANCH   9  32
BRANCH   5  37
HETATM   37  S   UNL     1     -17.670  -9.827  -6.166  1.00  0.00     0.129 S 
HETATM   38  O   UNL     1     -18.290  -8.581  -6.570  1.00  0.00    -0.598 OA
HETATM   39  O   UNL     1     -16.248  -9.973  -5.994  1.00  0.00    -0.598 OA
BRANCH  37  40
HETATM   40  O   UNL     1     -18.177 -10.918  -7.239  1.00  0.00    -0.292 OA
HETATM   41  H   UNL     1     -19.006 -10.577  -7.643  1.00  0.00     0.232 HD
ENDBRANCH  37  40
ENDBRANCH   5  37
TORSDOF 8
ENDMDL
MODEL 7
REMARK VINA RESULT:      -7.0      3.665      6.943
REMARK  8 active torsions:
REMARK  status: ('A' for Active; 'I' for Inactive)
REMARK    1  A    between atoms: N_2  and  C_4 
REMARK    2  A    between atoms: C_7  and  C_10 
REMARK    3  A    between atoms: C_10  and  C_20 
REMARK    4  A    between atoms: C_24  and  S_35 
REMARK    5  A    between atoms: C_28  and  S_31 
REMARK    6  A    between atoms: C_29  and  O_30 
REMARK    7  A    between atoms: S_31  and  O_34 
REMARK    8  A    between atoms: S_35  and  O_38 
ROOT
HETATM    1  C   UNL     1     -20.490 -11.954  -3.143  1.00  0.00     0.022 A 
HETATM    2  C   UNL     1     -19.307 -12.133  -2.353  1.00  0.00    -0.012 A 
HETATM    3  C   UNL     1     -17.989 -11.982  -2.859  1.00  0.00     0.015 A 
HETATM    4  C   UNL     1     -16.862 -12.200  -2.067  1.00  0.00     0.026 A 
HETATM    5  C   UNL     1     -17.032 -12.563  -0.738  1.00  0.00     0.073 A 
HETATM    6  C   UNL     1     -18.309 -12.706  -0.193  1.00  0.00     0.037 A 
HETATM    7  C   UNL     1     -19.443 -12.479  -0.985  1.00  0.00    -0.022 A 
HETATM    8  C   UNL     1     -20.712 -12.554  -0.406  1.00  0.00     0.040 A 
HETATM    9  C   UNL     1     -21.851 -12.298  -1.172  1.00  0.00     0.107 A 
HETATM   10  C   UNL     1     -21.760 -12.074  -2.545  1.00  0.00     0.101 A 
ENDROOT
BRANCH   1  11
HETATM   11  C   UNL     1     -20.368 -11.536  -4.592  1.00  0.00    -0.002 C 
HETATM   12  C   UNL     1     -20.417 -12.551  -5.516  1.00  0.00    -0.024 C 
HETATM   13  C   UNL     1     -20.430 -13.973  -5.138  1.00  0.00     0.014 C 
HETATM   14  C   UNL     1     -20.566 -12.324  -6.953  1.00  0.00     0.014 C 
HETATM   15  C   UNL     1     -20.024 -14.924  -5.994  1.00  0.00     0.030 C 
HETATM   16  C   UNL     1     -19.590 -14.547  -7.381  1.00  0.00     0.029 C 
HETATM   17  N   UNL     1     -18.834 -15.300  -8.132  1.00  0.00    -0.390 N 
HETATM   18  C   UNL     1     -20.161 -13.237  -7.849  1.00  0.00     0.030 C 
HETATM   19  C   UNL     1     -18.327 -14.886  -9.484  1.00  0.00     0.149 C 
HETATM   20  C   UNL     1     -18.335 -16.661  -7.742  1.00  0.00     0.149 C 
BRANCH  11  21
HETATM   21  C   UNL     1     -20.266 -10.063  -4.948  1.00  0.00    -0.024 A 
HETATM   22  C   UNL     1     -21.403  -9.244  -4.951  1.00  0.00     0.014 A 
HETATM   23  C   UNL     1     -21.345  -7.890  -5.327  1.00  0.00     0.030 A 
HETATM   24  C   UNL     1     -20.152  -7.269  -5.713  1.00  0.00     0.029 A 
HETATM   25  C   UNL     1     -19.011  -8.077  -5.659  1.00  0.00     0.030 A 
HETATM   26  C   UNL     1     -19.058  -9.420  -5.241  1.00  0.00     0.014 A 
BRANCH  24  27
HETATM   27  N   UNL     1     -20.117  -5.940  -6.132  1.00  0.00    -0.390 N 
HETATM   28  C   UNL     1     -20.278  -5.655  -7.557  1.00  0.00     0.149 C 
HETATM   29  C   UNL     1     -20.462  -4.864  -5.209  1.00  0.00     0.149 C 
ENDBRANCH  24  27
ENDBRANCH  11  21
ENDBRANCH   1  11
BRANCH  10  30
HETATM   30  O   UNL     1     -22.871 -11.904  -3.332  1.00  0.00    -0.358 OA
HETATM   31  H   UNL     1     -22.848 -11.017  -3.756  1.00  0.00     0.217 HD
ENDBRANCH  10  30
BRANCH   9  32
HETATM   32  S   UNL     1     -23.400 -12.107  -0.350  1.00  0.00     0.132 S 
HETATM   33  O   UNL     1     -23.221 -12.611   0.993  1.00  0.00    -0.597 OA
HETATM   34  O   UNL     1     -23.838 -10.755  -0.615  1.00  0.00    -0.597 OA
BRANCH  32  35
HETATM   35  O   UNL     1     -24.411 -13.133  -1.073  1.00  0.00    -0.292 OA
HETATM   36  H   UNL     1     -24.975 -13.543  -0.382  1.00  0.00     0.232 HD
ENDBRANCH  32  35
ENDBRANCH   9  32
BRANCH   5  37
HETATM   37  S   UNL     1     -15.620 -12.888   0.279  1.00  0.00     0.129 S 
HETATM   38  O   UNL     1     -14.633 -13.560  -0.541  1.00  0.00    -0.598 OA
HETATM   39  O   UNL     1     -15.338 -11.681   1.011  1.00  0.00    -0.598 OA
BRANCH  37  40
HETATM   40  O   UNL     1     -16.145 -14.010   1.311  1.00  0.00    -0.292 OA
HETATM   41  H   UNL     1     -16.890 -14.485   0.882  1.00  0.00     0.232 HD
ENDBRANCH  37  40
ENDBRANCH   5  37
TORSDOF 8
ENDMDL
MODEL 8
REMARK VINA RESULT:      -6.8      4.171      5.549
REMARK  8 active torsions:
REMARK  status: ('A' for Active; 'I' for Inactive)
REMARK    1  A    between atoms: N_2  and  C_4 
REMARK    2  A    between atoms: C_7  and  C_10 
REMARK    3  A    between atoms: C_10  and  C_20 
REMARK    4  A    between atoms: C_24  and  S_35 
REMARK    5  A    between atoms: C_28  and  S_31 
REMARK    6  A    between atoms: C_29  and  O_30 
REMARK    7  A    between atoms: S_31  and  O_34 
REMARK    8  A    between atoms: S_35  and  O_38 
ROOT
HETATM    1  C   UNL     1     -20.573 -11.540  -1.537  1.00  0.00     0.022 A 
HETATM    2  C   UNL     1     -21.495 -12.579  -1.179  1.00  0.00    -0.012 A 
HETATM    3  C   UNL     1     -21.241 -13.962  -1.374  1.00  0.00     0.015 A 
HETATM    4  C   UNL     1     -22.179 -14.941  -1.045  1.00  0.00     0.026 A 
HETATM    5  C   UNL     1     -23.394 -14.553  -0.499  1.00  0.00     0.073 A 
HETATM    6  C   UNL     1     -23.681 -13.206  -0.274  1.00  0.00     0.037 A 
HETATM    7  C   UNL     1     -22.736 -12.221  -0.595  1.00  0.00    -0.022 A 
HETATM    8  C   UNL     1     -23.007 -10.884  -0.295  1.00  0.00     0.040 A 
HETATM    9  C   UNL     1     -22.065  -9.894  -0.578  1.00  0.00     0.107 A 
HETATM   10  C   UNL     1     -20.887 -10.195  -1.261  1.00  0.00     0.101 A 
ENDROOT
BRANCH   1  11
HETATM   11  C   UNL     1     -19.223 -11.903  -2.116  1.00  0.00    -0.002 C 
HETATM   12  C   UNL     1     -19.097 -11.769  -3.477  1.00  0.00    -0.024 C 
HETATM   13  C   UNL     1     -20.234 -11.446  -4.354  1.00  0.00     0.014 C 
HETATM   14  C   UNL     1     -17.814 -11.830  -4.177  1.00  0.00     0.014 C 
HETATM   15  C   UNL     1     -20.217 -11.760  -5.659  1.00  0.00     0.030 C 
HETATM   16  C   UNL     1     -19.003 -12.412  -6.256  1.00  0.00     0.029 C 
HETATM   17  N   UNL     1     -19.022 -13.094  -7.369  1.00  0.00    -0.390 N 
HETATM   18  C   UNL     1     -17.743 -12.156  -5.476  1.00  0.00     0.030 C 
HETATM   19  C   UNL     1     -17.829 -13.820  -7.921  1.00  0.00     0.149 C 
HETATM   20  C   UNL     1     -20.237 -13.281  -8.231  1.00  0.00     0.149 C 
BRANCH  11  21
HETATM   21  C   UNL     1     -18.092 -12.320  -1.192  1.00  0.00    -0.024 A 
HETATM   22  C   UNL     1     -18.018 -13.626  -0.689  1.00  0.00     0.014 A 
HETATM   23  C   UNL     1     -17.012 -14.023   0.209  1.00  0.00     0.030 A 
HETATM   24  C   UNL     1     -16.014 -13.148   0.653  1.00  0.00     0.029 A 
HETATM   25  C   UNL     1     -16.062 -11.859   0.110  1.00  0.00     0.030 A 
HETATM   26  C   UNL     1     -17.042 -11.471  -0.823  1.00  0.00     0.014 A 
BRANCH  24  27
HETATM   27  N   UNL     1     -15.053 -13.540   1.582  1.00  0.00    -0.390 N 
HETATM   28  C   UNL     1     -15.501 -14.002   2.896  1.00  0.00     0.149 C 
HETATM   29  C   UNL     1     -13.743 -14.007   1.140  1.00  0.00     0.149 C 
ENDBRANCH  24  27
ENDBRANCH  11  21
ENDBRANCH   1  11
BRANCH  10  30
HETATM   30  O   UNL     1     -19.985  -9.226  -1.623  1.00  0.00    -0.358 OA
HETATM   31  H   UNL     1     -19.796  -8.642  -0.856  1.00  0.00     0.217 HD
ENDBRANCH  10  30
BRANCH   9  32
HETATM   32  S   UNL     1     -22.311  -8.276   0.080  1.00  0.00     0.132 S 
HETATM   33  O   UNL     1     -21.408  -8.144   1.202  1.00  0.00    -0.597 OA
HETATM   34  O   UNL     1     -22.282  -7.369  -1.046  1.00  0.00    -0.597 OA
BRANCH  32  35
HETATM   35  O   UNL     1     -23.795  -8.278   0.708  1.00  0.00    -0.292 OA
HETATM   36  H   UNL     1     -23.733  -7.971   1.639  1.00  0.00     0.232 HD
ENDBRANCH  32  35
ENDBRANCH   9  32
BRANCH   5  37
HETATM   37  S   UNL     1     -24.620 -15.770  -0.113  1.00  0.00     0.129 S 
HETATM   38  O   UNL     1     -24.696 -15.876   1.330  1.00  0.00    -0.598 OA
HETATM   39  O   UNL     1     -25.767 -15.492  -0.938  1.00  0.00    -0.598 OA
BRANCH  37  40
HETATM   40  O   UNL     1     -23.952 -17.153  -0.603  1.00  0.00    -0.292 OA
HETATM   41  H   UNL     1     -23.916 -17.135  -1.585  1.00  0.00     0.232 HD
ENDBRANCH  37  40
ENDBRANCH   5  37
TORSDOF 8
ENDMDL
MODEL 9
REMARK VINA RESULT:      -6.8      4.873      7.641
REMARK  8 active torsions:
REMARK  status: ('A' for Active; 'I' for Inactive)
REMARK    1  A    between atoms: N_2  and  C_4 
REMARK    2  A    between atoms: C_7  and  C_10 
REMARK    3  A    between atoms: C_10  and  C_20 
REMARK    4  A    between atoms: C_24  and  S_35 
REMARK    5  A    between atoms: C_28  and  S_31 
REMARK    6  A    between atoms: C_29  and  O_30 
REMARK    7  A    between atoms: S_31  and  O_34 
REMARK    8  A    between atoms: S_35  and  O_38 
ROOT
HETATM    1  C   UNL     1     -20.169 -11.824  -0.752  1.00  0.00     0.022 A 
HETATM    2  C   UNL     1     -20.312 -11.923  -2.175  1.00  0.00    -0.012 A 
HETATM    3  C   UNL     1     -19.967 -13.077  -2.927  1.00  0.00     0.015 A 
HETATM    4  C   UNL     1     -20.089 -13.120  -4.315  1.00  0.00     0.026 A 
HETATM    5  C   UNL     1     -20.575 -12.006  -4.985  1.00  0.00     0.073 A 
HETATM    6  C   UNL     1     -20.943 -10.855  -4.286  1.00  0.00     0.037 A 
HETATM    7  C   UNL     1     -20.830 -10.812  -2.889  1.00  0.00    -0.022 A 
HETATM    8  C   UNL     1     -21.272  -9.682  -2.198  1.00  0.00     0.040 A 
HETATM    9  C   UNL     1     -21.198  -9.635  -0.804  1.00  0.00     0.107 A 
HETATM   10  C   UNL     1     -20.585 -10.658  -0.081  1.00  0.00     0.101 A 
ENDROOT
BRANCH   1  11
HETATM   11  C   UNL     1     -19.665 -13.015   0.035  1.00  0.00    -0.002 C 
HETATM   12  C   UNL     1     -20.629 -13.856   0.534  1.00  0.00    -0.024 C 
HETATM   13  C   UNL     1     -22.067 -13.555   0.457  1.00  0.00     0.014 C 
HETATM   14  C   UNL     1     -20.334 -15.174   1.097  1.00  0.00     0.014 C 
HETATM   15  C   UNL     1     -22.941 -14.111   1.311  1.00  0.00     0.030 C 
HETATM   16  C   UNL     1     -22.461 -15.093   2.340  1.00  0.00     0.029 C 
HETATM   17  N   UNL     1     -23.120 -15.380   3.429  1.00  0.00    -0.390 N 
HETATM   18  C   UNL     1     -21.167 -15.763   1.967  1.00  0.00     0.030 C 
HETATM   19  C   UNL     1     -22.600 -16.295   4.500  1.00  0.00     0.149 C 
HETATM   20  C   UNL     1     -24.464 -14.813   3.784  1.00  0.00     0.149 C 
BRANCH  11  21
HETATM   21  C   UNL     1     -18.171 -13.251   0.174  1.00  0.00    -0.024 A 
HETATM   22  C   UNL     1     -17.556 -14.349  -0.444  1.00  0.00     0.014 A 
HETATM   23  C   UNL     1     -16.185 -14.620  -0.288  1.00  0.00     0.030 A 
HETATM   24  C   UNL     1     -15.343 -13.811   0.484  1.00  0.00     0.029 A 
HETATM   25  C   UNL     1     -15.951 -12.689   1.057  1.00  0.00     0.030 A 
HETATM   26  C   UNL     1     -17.313 -12.390   0.867  1.00  0.00     0.014 A 
BRANCH  24  27
HETATM   27  N   UNL     1     -13.997 -14.119   0.671  1.00  0.00    -0.390 N 
HETATM   28  C   UNL     1     -13.607 -14.820   1.894  1.00  0.00     0.149 C 
HETATM   29  C   UNL     1     -13.103 -14.260  -0.473  1.00  0.00     0.149 C 
ENDBRANCH  24  27
ENDBRANCH  11  21
ENDBRANCH   1  11
BRANCH  10  30
HETATM   30  O   UNL     1     -20.426 -10.595   1.280  1.00  0.00    -0.358 OA
HETATM   31  H   UNL     1     -21.286 -10.387   1.708  1.00  0.00     0.217 HD
ENDBRANCH  10  30
BRANCH   9  32
HETATM   32  S   UNL     1     -22.032  -8.334   0.046  1.00  0.00     0.132 S 
HETATM   33  O   UNL     1     -21.353  -8.164   1.311  1.00  0.00    -0.597 OA
HETATM   34  O   UNL     1     -22.177  -7.254  -0.904  1.00  0.00    -0.597 OA
BRANCH  32  35
HETATM   35  O   UNL     1     -23.494  -8.911   0.405  1.00  0.00    -0.292 OA
HETATM   36  H   UNL     1     -23.417  -9.883   0.524  1.00  0.00     0.232 HD
ENDBRANCH  32  35
ENDBRANCH   9  32
BRANCH   5  37
HETATM   37  S   UNL     1     -20.698 -12.017  -6.751  1.00  0.00     0.129 S 
HETATM   38  O   UNL     1     -21.901 -11.295  -7.112  1.00  0.00    -0.598 OA
HETATM   39  O   UNL     1     -19.398 -11.679  -7.268  1.00  0.00    -0.598 OA
BRANCH  37  40
HETATM   40  O   UNL     1     -21.010 -13.559  -7.101  1.00  0.00    -0.292 OA
HETATM   41  H   UNL     1     -20.153 -14.038  -7.127  1.00  0.00     0.232 HD
ENDBRANCH  37  40
ENDBRANCH   5  37
TORSDOF 8
ENDMDL
