MODEL 1
REMARK VINA RESULT:      -7.7      0.000      0.000
REMARK  7 active torsions:
REMARK  status: ('A' for Active; 'I' for Inactive)
REMARK    1  A    between atoms: C_2  and  C_3 
REMARK    2  A    between atoms: C_3  and  C_4 
REMARK    3  A    between atoms: C_3  and  C_28 
REMARK    4  A    between atoms: C_4  and  C_5 
REMARK    5  A    between atoms: C_5  and  C_6 
REMARK    6  A    between atoms: C_6  and  C_8 
REMARK    7  A    between atoms: C_23  and  O_25 
ROOT
HETATM    1  C   UNL     1     -22.728 -10.267  -1.038  1.00  0.00    -0.002 C 
HETATM    2  C   UNL     1     -23.487  -9.479   0.077  1.00  0.00     0.006 C 
HETATM    3  C   UNL     1     -22.400  -8.656   0.806  1.00  0.00     0.006 C 
HETATM    4  C   UNL     1     -21.156  -8.763  -0.086  1.00  0.00    -0.001 C 
HETATM    5  C   UNL     1     -21.244 -10.288  -0.503  1.00  0.00    -0.036 C 
HETATM    6  C   UNL     1     -19.942 -10.491  -1.299  1.00  0.00     0.010 C 
HETATM    7  C   UNL     1     -19.723  -9.688  -2.567  1.00  0.00     0.007 C 
HETATM    8  C   UNL     1     -20.248  -8.229  -2.599  1.00  0.00     0.003 C 
HETATM    9  C   UNL     1     -21.211  -7.886  -1.418  1.00  0.00    -0.001 C 
HETATM   10  C   UNL     1     -21.609  -6.417  -1.367  1.00  0.00     0.033 C 
HETATM   11  C   UNL     1     -22.248  -6.090  -2.696  1.00  0.00    -0.023 C 
HETATM   12  C   UNL     1     -22.010  -6.736  -3.865  1.00  0.00    -0.072 C 
HETATM   13  C   UNL     1     -20.920  -7.839  -4.021  1.00  0.00    -0.017 C 
HETATM   14  C   UNL     1     -19.884  -7.198  -5.004  1.00  0.00     0.016 C 
HETATM   15  C   UNL     1     -20.538  -6.710  -6.324  1.00  0.00     0.033 C 
HETATM   16  C   UNL     1     -21.641  -5.682  -6.042  1.00  0.00     0.122 C 
HETATM   17  C   UNL     1     -22.705  -6.288  -5.116  1.00  0.00     0.066 C 
HETATM   18  C   UNL     1     -21.483  -9.103  -4.759  1.00  0.00     0.020 C 
HETATM   19  C   UNL     1     -21.185 -11.341   0.633  1.00  0.00     0.016 C 
ENDROOT
BRANCH   1  20
HETATM   20  C   UNL     1     -23.496 -11.271  -1.895  1.00  0.00    -0.014 C 
HETATM   21  C   UNL     1     -23.918 -12.484  -0.988  1.00  0.00     0.010 C 
BRANCH  20  22
HETATM   22  C   UNL     1     -22.812 -11.790  -3.144  1.00  0.00     0.005 C 
BRANCH  22  23
HETATM   23  C   UNL     1     -22.412 -13.256  -2.912  1.00  0.00     0.005 C 
BRANCH  23  24
HETATM   24  C   UNL     1     -21.144 -13.711  -3.643  1.00  0.00    -0.012 C 
BRANCH  24  25
HETATM   25  C   UNL     1     -19.979 -13.966  -2.661  1.00  0.00     0.000 C 
HETATM   26  C   UNL     1     -20.417 -14.354  -1.249  1.00  0.00     0.005 C 
ENDBRANCH  24  25
BRANCH  24  27
HETATM   27  C   UNL     1     -20.752 -12.742  -4.798  1.00  0.00    -0.019 C 
HETATM   28  C   UNL     1     -19.232 -12.532  -4.873  1.00  0.00     0.010 C 
HETATM   29  C   UNL     1     -21.242 -13.232  -6.169  1.00  0.00     0.010 C 
ENDBRANCH  24  27
ENDBRANCH  23  24
ENDBRANCH  22  23
ENDBRANCH  20  22
ENDBRANCH   1  20
BRANCH  16  30
HETATM   30  O   UNL     1     -22.223  -5.217  -7.250  1.00  0.00    -0.395 OA
HETATM   31  H   UNL     1     -21.593  -5.371  -7.973  1.00  0.00     0.210 HD
ENDBRANCH  16  30
TORSDOF 7
ENDMDL
MODEL 2
REMARK VINA RESULT:      -7.4      1.586      2.777
REMARK  7 active torsions:
REMARK  status: ('A' for Active; 'I' for Inactive)
REMARK    1  A    between atoms: C_2  and  C_3 
REMARK    2  A    between atoms: C_3  and  C_4 
REMARK    3  A    between atoms: C_3  and  C_28 
REMARK    4  A    between atoms: C_4  and  C_5 
REMARK    5  A    between atoms: C_5  and  C_6 
REMARK    6  A    between atoms: C_6  and  C_8 
REMARK    7  A    between atoms: C_23  and  O_25 
ROOT
HETATM    1  C   UNL     1     -22.571 -10.138  -0.882  1.00  0.00    -0.002 C 
HETATM    2  C   UNL     1     -23.383  -9.333   0.182  1.00  0.00     0.006 C 
HETATM    3  C   UNL     1     -22.351  -8.409   0.869  1.00  0.00     0.006 C 
HETATM    4  C   UNL     1     -21.096  -8.495  -0.009  1.00  0.00    -0.001 C 
HETATM    5  C   UNL     1     -21.093 -10.043  -0.339  1.00  0.00    -0.036 C 
HETATM    6  C   UNL     1     -19.775 -10.216  -1.116  1.00  0.00     0.010 C 
HETATM    7  C   UNL     1     -19.591  -9.474  -2.426  1.00  0.00     0.007 C 
HETATM    8  C   UNL     1     -20.199  -8.052  -2.543  1.00  0.00     0.003 C 
HETATM    9  C   UNL     1     -21.190  -7.699  -1.388  1.00  0.00    -0.001 C 
HETATM   10  C   UNL     1     -21.671  -6.255  -1.423  1.00  0.00     0.033 C 
HETATM   11  C   UNL     1     -22.316  -6.040  -2.772  1.00  0.00    -0.023 C 
HETATM   12  C   UNL     1     -22.031  -6.736  -3.901  1.00  0.00    -0.072 C 
HETATM   13  C   UNL     1     -20.879  -7.782  -3.988  1.00  0.00    -0.017 C 
HETATM   14  C   UNL     1     -19.873  -7.139  -5.001  1.00  0.00     0.016 C 
HETATM   15  C   UNL     1     -20.543  -6.763  -6.349  1.00  0.00     0.033 C 
HETATM   16  C   UNL     1     -21.705  -5.786  -6.132  1.00  0.00     0.122 C 
HETATM   17  C   UNL     1     -22.740  -6.399  -5.179  1.00  0.00     0.066 C 
HETATM   18  C   UNL     1     -21.363  -9.115  -4.657  1.00  0.00     0.020 C 
HETATM   19  C   UNL     1     -20.984 -11.027   0.854  1.00  0.00     0.016 C 
ENDROOT
BRANCH   1  20
HETATM   20  C   UNL     1     -23.274 -11.231  -1.686  1.00  0.00    -0.014 C 
HETATM   21  C   UNL     1     -24.680 -11.503  -1.037  1.00  0.00     0.010 C 
BRANCH  20  22
HETATM   22  C   UNL     1     -22.540 -12.544  -1.868  1.00  0.00     0.005 C 
BRANCH  22  23
HETATM   23  C   UNL     1     -23.532 -13.697  -1.638  1.00  0.00     0.005 C 
BRANCH  23  24
HETATM   24  C   UNL     1     -23.146 -14.678  -0.526  1.00  0.00    -0.012 C 
BRANCH  24  25
HETATM   25  C   UNL     1     -24.357 -15.515  -0.057  1.00  0.00     0.000 C 
HETATM   26  C   UNL     1     -25.351 -15.861  -1.165  1.00  0.00     0.005 C 
ENDBRANCH  24  25
BRANCH  24  27
HETATM   27  C   UNL     1     -22.414 -13.971   0.654  1.00  0.00    -0.019 C 
HETATM   28  C   UNL     1     -23.366 -13.692   1.829  1.00  0.00     0.010 C 
HETATM   29  C   UNL     1     -21.222 -14.785   1.181  1.00  0.00     0.010 C 
ENDBRANCH  24  27
ENDBRANCH  23  24
ENDBRANCH  22  23
ENDBRANCH  20  22
ENDBRANCH   1  20
BRANCH  16  30
HETATM   30  O   UNL     1     -22.302  -5.423  -7.368  1.00  0.00    -0.395 OA
HETATM   31  H   UNL     1     -22.447  -4.464  -7.368  1.00  0.00     0.210 HD
ENDBRANCH  16  30
TORSDOF 7
ENDMDL
MODEL 3
REMARK VINA RESULT:      -6.9     17.155     20.188
REMARK  7 active torsions:
REMARK  status: ('A' for Active; 'I' for Inactive)
REMARK    1  A    between atoms: C_2  and  C_3 
REMARK    2  A    between atoms: C_3  and  C_4 
REMARK    3  A    between atoms: C_3  and  C_28 
REMARK    4  A    between atoms: C_4  and  C_5 
REMARK    5  A    between atoms: C_5  and  C_6 
REMARK    6  A    between atoms: C_6  and  C_8 
REMARK    7  A    between atoms: C_23  and  O_25 
ROOT
HETATM    1  C   UNL     1     -26.531   8.372  -3.679  1.00  0.00    -0.002 C 
HETATM    2  C   UNL     1     -26.585   6.818  -3.825  1.00  0.00     0.006 C 
HETATM    3  C   UNL     1     -25.242   6.424  -4.483  1.00  0.00     0.006 C 
HETATM    4  C   UNL     1     -24.376   7.688  -4.405  1.00  0.00    -0.001 C 
HETATM    5  C   UNL     1     -25.459   8.788  -4.759  1.00  0.00    -0.036 C 
HETATM    6  C   UNL     1     -24.616  10.075  -4.825  1.00  0.00     0.010 C 
HETATM    7  C   UNL     1     -23.887  10.542  -3.580  1.00  0.00     0.007 C 
HETATM    8  C   UNL     1     -23.293   9.459  -2.641  1.00  0.00     0.003 C 
HETATM    9  C   UNL     1     -23.799   8.015  -2.954  1.00  0.00    -0.001 C 
HETATM   10  C   UNL     1     -23.106   6.938  -2.132  1.00  0.00     0.033 C 
HETATM   11  C   UNL     1     -23.331   7.284  -0.678  1.00  0.00    -0.023 C 
HETATM   12  C   UNL     1     -23.565   8.529  -0.192  1.00  0.00    -0.072 C 
HETATM   13  C   UNL     1     -23.498   9.813  -1.073  1.00  0.00    -0.017 C 
HETATM   14  C   UNL     1     -22.280  10.601  -0.485  1.00  0.00     0.016 C 
HETATM   15  C   UNL     1     -22.407  10.841   1.043  1.00  0.00     0.033 C 
HETATM   16  C   UNL     1     -22.537   9.513   1.798  1.00  0.00     0.122 C 
HETATM   17  C   UNL     1     -23.751   8.727   1.283  1.00  0.00     0.066 C 
HETATM   18  C   UNL     1     -24.749  10.731  -0.847  1.00  0.00     0.020 C 
HETATM   19  C   UNL     1     -26.148   8.691  -6.144  1.00  0.00     0.016 C 
ENDROOT
BRANCH   1  20
HETATM   20  C   UNL     1     -27.757   9.114  -3.149  1.00  0.00    -0.014 C 
HETATM   21  C   UNL     1     -27.365  10.618  -2.908  1.00  0.00     0.010 C 
BRANCH  20  22
HETATM   22  C   UNL     1     -28.424   8.561  -1.905  1.00  0.00     0.005 C 
BRANCH  22  23
HETATM   23  C   UNL     1     -27.468   8.743  -0.714  1.00  0.00     0.005 C 
BRANCH  23  24
HETATM   24  C   UNL     1     -28.125   9.227   0.583  1.00  0.00    -0.012 C 
BRANCH  24  25
HETATM   25  C   UNL     1     -28.145  10.770   0.672  1.00  0.00     0.000 C 
HETATM   26  C   UNL     1     -29.426  11.415   0.147  1.00  0.00     0.005 C 
ENDBRANCH  24  25
BRANCH  24  27
HETATM   27  C   UNL     1     -27.496   8.563   1.844  1.00  0.00    -0.019 C 
HETATM   28  C   UNL     1     -26.670   9.567   2.664  1.00  0.00     0.010 C 
HETATM   29  C   UNL     1     -28.552   7.936   2.768  1.00  0.00     0.010 C 
ENDBRANCH  24  27
ENDBRANCH  23  24
ENDBRANCH  22  23
ENDBRANCH  20  22
ENDBRANCH   1  20
BRANCH  16  30
HETATM   30  O   UNL     1     -22.628   9.731   3.198  1.00  0.00    -0.395 OA
HETATM   31  H   UNL     1     -22.713   8.870   3.637  1.00  0.00     0.210 HD
ENDBRANCH  16  30
TORSDOF 7
ENDMDL
MODEL 4
REMARK VINA RESULT:      -6.8      3.355      6.624
REMARK  7 active torsions:
REMARK  status: ('A' for Active; 'I' for Inactive)
REMARK    1  A    between atoms: C_2  and  C_3 
REMARK    2  A    between atoms: C_3  and  C_4 
REMARK    3  A    between atoms: C_3  and  C_28 
REMARK    4  A    between atoms: C_4  and  C_5 
REMARK    5  A    between atoms: C_5  and  C_6 
REMARK    6  A    between atoms: C_6  and  C_8 
REMARK    7  A    between atoms: C_23  and  O_25 
ROOT
HETATM    1  C   UNL     1     -20.485 -11.858  -3.516  1.00  0.00    -0.002 C 
HETATM    2  C   UNL     1     -21.492 -12.597  -4.456  1.00  0.00     0.006 C 
HETATM    3  C   UNL     1     -21.611 -11.701  -5.710  1.00  0.00     0.006 C 
HETATM    4  C   UNL     1     -20.473 -10.679  -5.577  1.00  0.00    -0.001 C 
HETATM    5  C   UNL     1     -20.559 -10.368  -4.028  1.00  0.00    -0.036 C 
HETATM    6  C   UNL     1     -19.520  -9.244  -3.856  1.00  0.00     0.010 C 
HETATM    7  C   UNL     1     -18.066  -9.532  -4.179  1.00  0.00     0.007 C 
HETATM    8  C   UNL     1     -17.764 -10.480  -5.369  1.00  0.00     0.003 C 
HETATM    9  C   UNL     1     -19.018 -11.258  -5.883  1.00  0.00    -0.001 C 
HETATM   10  C   UNL     1     -18.752 -12.074  -7.140  1.00  0.00     0.033 C 
HETATM   11  C   UNL     1     -17.624 -13.024  -6.814  1.00  0.00    -0.023 C 
HETATM   12  C   UNL     1     -16.674 -12.825  -5.866  1.00  0.00    -0.072 C 
HETATM   13  C   UNL     1     -16.542 -11.498  -5.060  1.00  0.00    -0.017 C 
HETATM   14  C   UNL     1     -15.163 -10.920  -5.525  1.00  0.00     0.016 C 
HETATM   15  C   UNL     1     -14.001 -11.933  -5.346  1.00  0.00     0.033 C 
HETATM   16  C   UNL     1     -14.274 -13.225  -6.126  1.00  0.00     0.122 C 
HETATM   17  C   UNL     1     -15.598 -13.851  -5.666  1.00  0.00     0.066 C 
HETATM   18  C   UNL     1     -16.393 -11.771  -3.524  1.00  0.00     0.020 C 
HETATM   19  C   UNL     1     -21.885  -9.769  -3.493  1.00  0.00     0.016 C 
ENDROOT
BRANCH   1  20
HETATM   20  C   UNL     1     -20.210 -12.426  -2.125  1.00  0.00    -0.014 C 
HETATM   21  C   UNL     1     -21.208 -13.613  -1.863  1.00  0.00     0.010 C 
BRANCH  20  22
HETATM   22  C   UNL     1     -20.255 -11.462  -0.956  1.00  0.00     0.005 C 
BRANCH  22  23
HETATM   23  C   UNL     1     -21.513 -11.761  -0.123  1.00  0.00     0.005 C 
BRANCH  23  24
HETATM   24  C   UNL     1     -22.262 -10.527   0.394  1.00  0.00    -0.012 C 
BRANCH  24  25
HETATM   25  C   UNL     1     -23.655 -10.390  -0.259  1.00  0.00     0.000 C 
HETATM   26  C   UNL     1     -24.067 -11.582  -1.122  1.00  0.00     0.005 C 
ENDBRANCH  24  25
BRANCH  24  27
HETATM   27  C   UNL     1     -21.411  -9.228   0.268  1.00  0.00    -0.019 C 
HETATM   28  C   UNL     1     -22.234  -8.062  -0.302  1.00  0.00     0.010 C 
HETATM   29  C   UNL     1     -20.811  -8.785   1.612  1.00  0.00     0.010 C 
ENDBRANCH  24  27
ENDBRANCH  23  24
ENDBRANCH  22  23
ENDBRANCH  20  22
ENDBRANCH   1  20
BRANCH  16  30
HETATM   30  O   UNL     1     -13.200 -14.142  -5.982  1.00  0.00    -0.395 OA
HETATM   31  H   UNL     1     -12.419 -13.653  -5.680  1.00  0.00     0.210 HD
ENDBRANCH  16  30
TORSDOF 7
ENDMDL
MODEL 5
REMARK VINA RESULT:      -6.8      2.050      4.292
REMARK  7 active torsions:
REMARK  status: ('A' for Active; 'I' for Inactive)
REMARK    1  A    between atoms: C_2  and  C_3 
REMARK    2  A    between atoms: C_3  and  C_4 
REMARK    3  A    between atoms: C_3  and  C_28 
REMARK    4  A    between atoms: C_4  and  C_5 
REMARK    5  A    between atoms: C_5  and  C_6 
REMARK    6  A    between atoms: C_6  and  C_8 
REMARK    7  A    between atoms: C_23  and  O_25 
ROOT
HETATM    1  C   UNL     1     -19.568 -12.469  -1.469  1.00  0.00    -0.002 C 
HETATM    2  C   UNL     1     -20.011 -13.549  -2.507  1.00  0.00     0.006 C 
HETATM    3  C   UNL     1     -21.532 -13.724  -2.290  1.00  0.00     0.006 C 
HETATM    4  C   UNL     1     -21.940 -12.556  -1.381  1.00  0.00    -0.001 C 
HETATM    5  C   UNL     1     -20.711 -12.539  -0.383  1.00  0.00    -0.036 C 
HETATM    6  C   UNL     1     -21.128 -11.466   0.639  1.00  0.00     0.010 C 
HETATM    7  C   UNL     1     -21.343 -10.041   0.163  1.00  0.00     0.007 C 
HETATM    8  C   UNL     1     -21.967  -9.835  -1.243  1.00  0.00     0.003 C 
HETATM    9  C   UNL     1     -22.004 -11.137  -2.106  1.00  0.00    -0.001 C 
HETATM   10  C   UNL     1     -22.748 -10.968  -3.424  1.00  0.00     0.033 C 
HETATM   11  C   UNL     1     -22.067  -9.845  -4.170  1.00  0.00    -0.023 C 
HETATM   12  C   UNL     1     -21.362  -8.834  -3.602  1.00  0.00    -0.072 C 
HETATM   13  C   UNL     1     -21.274  -8.621  -2.061  1.00  0.00    -0.017 C 
HETATM   14  C   UNL     1     -22.013  -7.261  -1.833  1.00  0.00     0.016 C 
HETATM   15  C   UNL     1     -21.435  -6.114  -2.704  1.00  0.00     0.033 C 
HETATM   16  C   UNL     1     -21.511  -6.465  -4.195  1.00  0.00     0.122 C 
HETATM   17  C   UNL     1     -20.755  -7.773  -4.470  1.00  0.00     0.066 C 
HETATM   18  C   UNL     1     -19.794  -8.384  -1.598  1.00  0.00     0.020 C 
HETATM   19  C   UNL     1     -20.459 -13.815   0.460  1.00  0.00     0.016 C 
ENDROOT
BRANCH   1  20
HETATM   20  C   UNL     1     -18.086 -12.122  -1.340  1.00  0.00    -0.014 C 
HETATM   21  C   UNL     1     -17.735 -11.986   0.187  1.00  0.00     0.010 C 
BRANCH  20  22
HETATM   22  C   UNL     1     -17.589 -10.898  -2.083  1.00  0.00     0.005 C 
BRANCH  22  23
HETATM   23  C   UNL     1     -16.415 -11.315  -2.985  1.00  0.00     0.005 C 
BRANCH  23  24
HETATM   24  C   UNL     1     -16.746 -11.428  -4.477  1.00  0.00    -0.012 C 
BRANCH  24  25
HETATM   25  C   UNL     1     -15.568 -10.961  -5.360  1.00  0.00     0.000 C 
HETATM   26  C   UNL     1     -15.159 -11.957  -6.445  1.00  0.00     0.005 C 
ENDBRANCH  24  25
BRANCH  24  27
HETATM   27  C   UNL     1     -18.084 -10.716  -4.837  1.00  0.00    -0.019 C 
HETATM   28  C   UNL     1     -17.859  -9.533  -5.794  1.00  0.00     0.010 C 
HETATM   29  C   UNL     1     -19.104 -11.669  -5.479  1.00  0.00     0.010 C 
ENDBRANCH  24  27
ENDBRANCH  23  24
ENDBRANCH  22  23
ENDBRANCH  20  22
ENDBRANCH   1  20
BRANCH  16  30
HETATM   30  O   UNL     1     -21.004  -5.406  -4.993  1.00  0.00    -0.395 OA
HETATM   31  H   UNL     1     -21.738  -5.030  -5.505  1.00  0.00     0.210 HD
ENDBRANCH  16  30
TORSDOF 7
ENDMDL
MODEL 6
REMARK VINA RESULT:      -6.8      1.989      4.364
REMARK  7 active torsions:
REMARK  status: ('A' for Active; 'I' for Inactive)
REMARK    1  A    between atoms: C_2  and  C_3 
REMARK    2  A    between atoms: C_3  and  C_4 
REMARK    3  A    between atoms: C_3  and  C_28 
REMARK    4  A    between atoms: C_4  and  C_5 
REMARK    5  A    between atoms: C_5  and  C_6 
REMARK    6  A    between atoms: C_6  and  C_8 
REMARK    7  A    between atoms: C_23  and  O_25 
ROOT
HETATM    1  C   UNL     1     -20.061 -12.860  -1.414  1.00  0.00    -0.002 C 
HETATM    2  C   UNL     1     -20.500 -13.856  -2.534  1.00  0.00     0.006 C 
HETATM    3  C   UNL     1     -22.040 -13.937  -2.427  1.00  0.00     0.006 C 
HETATM    4  C   UNL     1     -22.433 -12.788  -1.488  1.00  0.00    -0.001 C 
HETATM    5  C   UNL     1     -21.278 -12.902  -0.412  1.00  0.00    -0.036 C 
HETATM    6  C   UNL     1     -21.693 -11.852   0.635  1.00  0.00     0.010 C 
HETATM    7  C   UNL     1     -21.782 -10.395   0.220  1.00  0.00     0.007 C 
HETATM    8  C   UNL     1     -22.292 -10.081  -1.212  1.00  0.00     0.003 C 
HETATM    9  C   UNL     1     -22.354 -11.335  -2.142  1.00  0.00    -0.001 C 
HETATM   10  C   UNL     1     -22.992 -11.054  -3.495  1.00  0.00     0.033 C 
HETATM   11  C   UNL     1     -22.189  -9.946  -4.136  1.00  0.00    -0.023 C 
HETATM   12  C   UNL     1     -21.461  -9.014  -3.471  1.00  0.00    -0.072 C 
HETATM   13  C   UNL     1     -21.466  -8.880  -1.918  1.00  0.00    -0.017 C 
HETATM   14  C   UNL     1     -22.129  -7.484  -1.670  1.00  0.00     0.016 C 
HETATM   15  C   UNL     1     -21.418  -6.341  -2.440  1.00  0.00     0.033 C 
HETATM   16  C   UNL     1     -21.413  -6.615  -3.949  1.00  0.00     0.122 C 
HETATM   17  C   UNL     1     -20.727  -7.957  -4.241  1.00  0.00     0.066 C 
HETATM   18  C   UNL     1     -20.010  -8.768  -1.347  1.00  0.00     0.020 C 
HETATM   19  C   UNL     1     -21.169 -14.231   0.380  1.00  0.00     0.016 C 
ENDROOT
BRANCH   1  20
HETATM   20  C   UNL     1     -18.571 -12.622  -1.170  1.00  0.00    -0.014 C 
HETATM   21  C   UNL     1     -18.414 -11.675   0.075  1.00  0.00     0.010 C 
BRANCH  20  22
HETATM   22  C   UNL     1     -17.753 -12.078  -2.324  1.00  0.00     0.005 C 
BRANCH  22  23
HETATM   23  C   UNL     1     -18.674 -11.241  -3.227  1.00  0.00     0.005 C 
BRANCH  23  24
HETATM   24  C   UNL     1     -17.960 -10.229  -4.130  1.00  0.00    -0.012 C 
BRANCH  24  25
HETATM   25  C   UNL     1     -18.362 -10.403  -5.611  1.00  0.00     0.000 C 
HETATM   26  C   UNL     1     -19.323 -11.562  -5.872  1.00  0.00     0.005 C 
ENDBRANCH  24  25
BRANCH  24  27
HETATM   27  C   UNL     1     -16.416 -10.245  -3.923  1.00  0.00    -0.019 C 
HETATM   28  C   UNL     1     -15.663  -9.955  -5.232  1.00  0.00     0.010 C 
HETATM   29  C   UNL     1     -15.953  -9.232  -2.865  1.00  0.00     0.010 C 
ENDBRANCH  24  27
ENDBRANCH  23  24
ENDBRANCH  22  23
ENDBRANCH  20  22
ENDBRANCH   1  20
BRANCH  16  30
HETATM   30  O   UNL     1     -20.784  -5.557  -4.656  1.00  0.00    -0.395 OA
HETATM   31  H   UNL     1     -20.094  -5.178  -4.090  1.00  0.00     0.210 HD
ENDBRANCH  16  30
TORSDOF 7
ENDMDL
MODEL 7
REMARK VINA RESULT:      -6.7      4.275      7.965
REMARK  7 active torsions:
REMARK  status: ('A' for Active; 'I' for Inactive)
REMARK    1  A    between atoms: C_2  and  C_3 
REMARK    2  A    between atoms: C_3  and  C_4 
REMARK    3  A    between atoms: C_3  and  C_28 
REMARK    4  A    between atoms: C_4  and  C_5 
REMARK    5  A    between atoms: C_5  and  C_6 
REMARK    6  A    between atoms: C_6  and  C_8 
REMARK    7  A    between atoms: C_23  and  O_25 
ROOT
HETATM    1  C   UNL     1     -17.731 -11.721  -5.198  1.00  0.00    -0.002 C 
HETATM    2  C   UNL     1     -16.879 -12.447  -6.287  1.00  0.00     0.006 C 
HETATM    3  C   UNL     1     -15.503 -11.742  -6.265  1.00  0.00     0.006 C 
HETATM    4  C   UNL     1     -15.520 -10.879  -4.996  1.00  0.00    -0.001 C 
HETATM    5  C   UNL     1     -17.003 -10.329  -5.055  1.00  0.00    -0.036 C 
HETATM    6  C   UNL     1     -17.040  -9.346  -3.870  1.00  0.00     0.010 C 
HETATM    7  C   UNL     1     -16.811  -9.876  -2.467  1.00  0.00     0.007 C 
HETATM    8  C   UNL     1     -15.784 -11.026  -2.288  1.00  0.00     0.003 C 
HETATM    9  C   UNL     1     -15.351 -11.691  -3.633  1.00  0.00    -0.001 C 
HETATM   10  C   UNL     1     -14.237 -12.717  -3.470  1.00  0.00     0.033 C 
HETATM   11  C   UNL     1     -14.736 -13.753  -2.491  1.00  0.00    -0.023 C 
HETATM   12  C   UNL     1     -15.675 -13.546  -1.534  1.00  0.00    -0.072 C 
HETATM   13  C   UNL     1     -16.280 -12.143  -1.225  1.00  0.00    -0.017 C 
HETATM   14  C   UNL     1     -15.780 -11.838   0.226  1.00  0.00     0.016 C 
HETATM   15  C   UNL     1     -16.144 -12.962   1.231  1.00  0.00     0.033 C 
HETATM   16  C   UNL     1     -15.555 -14.307   0.788  1.00  0.00     0.122 C 
HETATM   17  C   UNL     1     -16.060 -14.668  -0.616  1.00  0.00     0.066 C 
HETATM   18  C   UNL     1     -17.844 -12.199  -1.134  1.00  0.00     0.020 C 
HETATM   19  C   UNL     1     -17.400  -9.479  -6.289  1.00  0.00     0.016 C 
ENDROOT
BRANCH   1  20
HETATM   20  C   UNL     1     -19.199 -12.105  -5.021  1.00  0.00    -0.014 C 
HETATM   21  C   UNL     1     -19.892 -12.095  -6.433  1.00  0.00     0.010 C 
BRANCH  20  22
HETATM   22  C   UNL     1     -20.024 -11.284  -4.050  1.00  0.00     0.005 C 
BRANCH  22  23
HETATM   23  C   UNL     1     -20.814 -10.231  -4.845  1.00  0.00     0.005 C 
BRANCH  23  24
HETATM   24  C   UNL     1     -20.622  -8.783  -4.382  1.00  0.00    -0.012 C 
BRANCH  24  25
HETATM   25  C   UNL     1     -21.204  -8.553  -2.970  1.00  0.00     0.000 C 
HETATM   26  C   UNL     1     -20.153  -8.331  -1.883  1.00  0.00     0.005 C 
ENDBRANCH  24  25
BRANCH  24  27
HETATM   27  C   UNL     1     -21.159  -7.757  -5.425  1.00  0.00    -0.019 C 
HETATM   28  C   UNL     1     -22.289  -6.893  -4.843  1.00  0.00     0.010 C 
HETATM   29  C   UNL     1     -20.058  -6.823  -5.952  1.00  0.00     0.010 C 
ENDBRANCH  24  27
ENDBRANCH  23  24
ENDBRANCH  22  23
ENDBRANCH  20  22
ENDBRANCH   1  20
BRANCH  16  30
HETATM   30  O   UNL     1     -15.868 -15.331   1.720  1.00  0.00    -0.395 OA
HETATM   31  H   UNL     1     -15.195 -16.026   1.648  1.00  0.00     0.210 HD
ENDBRANCH  16  30
TORSDOF 7
ENDMDL
MODEL 8
REMARK VINA RESULT:      -6.6      4.124      8.030
REMARK  7 active torsions:
REMARK  status: ('A' for Active; 'I' for Inactive)
REMARK    1  A    between atoms: C_2  and  C_3 
REMARK    2  A    between atoms: C_3  and  C_4 
REMARK    3  A    between atoms: C_3  and  C_28 
REMARK    4  A    between atoms: C_4  and  C_5 
REMARK    5  A    between atoms: C_5  and  C_6 
REMARK    6  A    between atoms: C_6  and  C_8 
REMARK    7  A    between atoms: C_23  and  O_25 
ROOT
HETATM    1  C   UNL     1     -18.190 -11.435  -4.528  1.00  0.00    -0.002 C 
HETATM    2  C   UNL     1     -18.032 -12.546  -5.614  1.00  0.00     0.006 C 
HETATM    3  C   UNL     1     -16.515 -12.623  -5.901  1.00  0.00     0.006 C 
HETATM    4  C   UNL     1     -15.858 -11.800  -4.784  1.00  0.00    -0.001 C 
HETATM    5  C   UNL     1     -16.871 -10.587  -4.701  1.00  0.00    -0.036 C 
HETATM    6  C   UNL     1     -16.191  -9.655  -3.681  1.00  0.00     0.010 C 
HETATM    7  C   UNL     1     -15.965 -10.153  -2.266  1.00  0.00     0.007 C 
HETATM    8  C   UNL     1     -15.605 -11.650  -2.076  1.00  0.00     0.003 C 
HETATM    9  C   UNL     1     -15.827 -12.514  -3.358  1.00  0.00    -0.001 C 
HETATM   10  C   UNL     1     -15.336 -13.948  -3.215  1.00  0.00     0.033 C 
HETATM   11  C   UNL     1     -16.062 -14.544  -2.031  1.00  0.00    -0.023 C 
HETATM   12  C   UNL     1     -16.570 -13.844  -0.985  1.00  0.00    -0.072 C 
HETATM   13  C   UNL     1     -16.349 -12.313  -0.799  1.00  0.00    -0.017 C 
HETATM   14  C   UNL     1     -15.482 -12.221   0.501  1.00  0.00     0.016 C 
HETATM   15  C   UNL     1     -16.129 -12.957   1.703  1.00  0.00     0.033 C 
HETATM   16  C   UNL     1     -16.362 -14.438   1.379  1.00  0.00     0.122 C 
HETATM   17  C   UNL     1     -17.250 -14.574   0.135  1.00  0.00     0.066 C 
HETATM   18  C   UNL     1     -17.693 -11.576  -0.467  1.00  0.00     0.020 C 
HETATM   19  C   UNL     1     -17.052  -9.720  -5.973  1.00  0.00     0.016 C 
ENDROOT
BRANCH   1  20
HETATM   20  C   UNL     1     -19.591 -11.024  -4.079  1.00  0.00    -0.014 C 
HETATM   21  C   UNL     1     -20.490 -10.838  -5.356  1.00  0.00     0.010 C 
BRANCH  20  22
HETATM   22  C   UNL     1     -19.711  -9.799  -3.196  1.00  0.00     0.005 C 
BRANCH  22  23
HETATM   23  C   UNL     1     -20.690 -10.112  -2.052  1.00  0.00     0.005 C 
BRANCH  23  24
HETATM   24  C   UNL     1     -21.631  -8.966  -1.666  1.00  0.00    -0.012 C 
BRANCH  24  25
HETATM   25  C   UNL     1     -20.991  -7.586  -1.933  1.00  0.00     0.000 C 
HETATM   26  C   UNL     1     -21.994  -6.440  -2.059  1.00  0.00     0.005 C 
ENDBRANCH  24  25
BRANCH  24  27
HETATM   27  C   UNL     1     -22.161  -9.108  -0.207  1.00  0.00    -0.019 C 
HETATM   28  C   UNL     1     -23.387 -10.033  -0.135  1.00  0.00     0.010 C 
HETATM   29  C   UNL     1     -21.093  -9.645   0.758  1.00  0.00     0.010 C 
ENDBRANCH  24  27
ENDBRANCH  23  24
ENDBRANCH  22  23
ENDBRANCH  20  22
ENDBRANCH   1  20
BRANCH  16  30
HETATM   30  O   UNL     1     -16.931 -15.118   2.488  1.00  0.00    -0.395 OA
HETATM   31  H   UNL     1     -16.548 -16.008   2.531  1.00  0.00     0.210 HD
ENDBRANCH  16  30
TORSDOF 7
ENDMDL
MODEL 9
REMARK VINA RESULT:      -6.6      1.828      4.810
REMARK  7 active torsions:
REMARK  status: ('A' for Active; 'I' for Inactive)
REMARK    1  A    between atoms: C_2  and  C_3 
REMARK    2  A    between atoms: C_3  and  C_4 
REMARK    3  A    between atoms: C_3  and  C_28 
REMARK    4  A    between atoms: C_4  and  C_5 
REMARK    5  A    between atoms: C_5  and  C_6 
REMARK    6  A    between atoms: C_6  and  C_8 
REMARK    7  A    between atoms: C_23  and  O_25 
ROOT
HETATM    1  C   UNL     1     -19.187 -13.097  -3.504  1.00  0.00    -0.002 C 
HETATM    2  C   UNL     1     -18.071 -13.242  -2.421  1.00  0.00     0.006 C 
HETATM    3  C   UNL     1     -16.840 -12.510  -3.002  1.00  0.00     0.006 C 
HETATM    4  C   UNL     1     -17.375 -11.737  -4.215  1.00  0.00    -0.001 C 
HETATM    5  C   UNL     1     -18.362 -12.817  -4.820  1.00  0.00    -0.036 C 
HETATM    6  C   UNL     1     -18.834 -12.143  -6.121  1.00  0.00     0.010 C 
HETATM    7  C   UNL     1     -19.594 -10.833  -6.038  1.00  0.00     0.007 C 
HETATM    8  C   UNL     1     -19.179  -9.826  -4.933  1.00  0.00     0.003 C 
HETATM    9  C   UNL     1     -18.228 -10.437  -3.856  1.00  0.00    -0.001 C 
HETATM   10  C   UNL     1     -17.704  -9.413  -2.858  1.00  0.00     0.033 C 
HETATM   11  C   UNL     1     -18.911  -8.774  -2.212  1.00  0.00    -0.023 C 
HETATM   12  C   UNL     1     -20.145  -8.678  -2.769  1.00  0.00    -0.072 C 
HETATM   13  C   UNL     1     -20.451  -9.105  -4.236  1.00  0.00    -0.017 C 
HETATM   14  C   UNL     1     -20.825  -7.759  -4.942  1.00  0.00     0.016 C 
HETATM   15  C   UNL     1     -21.963  -6.999  -4.212  1.00  0.00     0.033 C 
HETATM   16  C   UNL     1     -21.577  -6.695  -2.759  1.00  0.00     0.122 C 
HETATM   17  C   UNL     1     -21.248  -7.997  -2.016  1.00  0.00     0.066 C 
HETATM   18  C   UNL     1     -21.737 -10.000  -4.317  1.00  0.00     0.020 C 
HETATM   19  C   UNL     1     -17.751 -14.168  -5.270  1.00  0.00     0.016 C 
ENDROOT
BRANCH   1  20
HETATM   20  C   UNL     1     -20.527 -13.800  -3.295  1.00  0.00    -0.014 C 
HETATM   21  C   UNL     1     -21.033 -14.336  -4.684  1.00  0.00     0.010 C 
BRANCH  20  22
HETATM   22  C   UNL     1     -21.633 -13.010  -2.625  1.00  0.00     0.005 C 
BRANCH  22  23
HETATM   23  C   UNL     1     -21.326 -12.915  -1.121  1.00  0.00     0.005 C 
BRANCH  23  24
HETATM   24  C   UNL     1     -21.534 -11.530  -0.498  1.00  0.00    -0.012 C 
BRANCH  24  25
HETATM   25  C   UNL     1     -20.273 -11.046   0.252  1.00  0.00     0.000 C 
HETATM   26  C   UNL     1     -20.544  -9.998   1.330  1.00  0.00     0.005 C 
ENDBRANCH  24  25
BRANCH  24  27
HETATM   27  C   UNL     1     -22.816 -11.470   0.386  1.00  0.00    -0.019 C 
HETATM   28  C   UNL     1     -23.988 -10.810  -0.357  1.00  0.00     0.010 C 
HETATM   29  C   UNL     1     -23.266 -12.859   0.864  1.00  0.00     0.010 C 
ENDBRANCH  24  27
ENDBRANCH  23  24
ENDBRANCH  22  23
ENDBRANCH  20  22
ENDBRANCH   1  20
BRANCH  16  30
HETATM   30  O   UNL     1     -22.609  -5.978  -2.098  1.00  0.00    -0.395 OA
HETATM   31  H   UNL     1     -22.572  -6.191  -1.152  1.00  0.00     0.210 HD
ENDBRANCH  16  30
TORSDOF 7
ENDMDL
