MODEL 1
REMARK VINA RESULT:      -6.0      0.000      0.000
REMARK  11 active torsions:
REMARK  status: ('A' for Active; 'I' for Inactive)
REMARK    1  A    between atoms: C_2  and  C_3 
REMARK    2  A    between atoms: C_3  and  C_4 
REMARK    3  A    between atoms: C_4  and  C_5 
REMARK    4  A    between atoms: C_5  and  C_6 
REMARK    5  A    between atoms: C_5  and  C_8 
REMARK    6  A    between atoms: C_8  and  O_9 
REMARK    7  A    between atoms: O_9  and  C_10 
REMARK    8  A    between atoms: C_10  and  C_11 
REMARK    9  A    between atoms: C_11  and  C_12 
REMARK   10  A    between atoms: C_11  and  O_14 
REMARK   11  A    between atoms: C_12  and  O_13 
ROOT
HETATM    1  C   UNL     1     -23.920  -3.757 -10.616  1.00  0.00     0.172 C 
ENDROOT
BRANCH   1   2
HETATM    2  C   UNL     1     -22.568  -3.587  -9.901  1.00  0.00     0.009 C 
BRANCH   2   3
HETATM    3  C   UNL     1     -22.333  -4.744  -8.901  1.00  0.00     0.007 C 
BRANCH   3   4
HETATM    4  C   UNL     1     -22.225  -4.285  -7.444  1.00  0.00     0.000 C 
BRANCH   4   5
HETATM    5  C   UNL     1     -20.803  -3.851  -7.090  1.00  0.00    -0.005 C 
HETATM    6  C   UNL     1     -20.246  -4.694  -5.950  1.00  0.00     0.005 C 
ENDBRANCH   4   5
ENDBRANCH   3   4
ENDBRANCH   2   3
BRANCH   2   7
HETATM    7  C   UNL     1     -21.422  -3.398 -10.922  1.00  0.00     0.002 C 
HETATM    8  C   UNL     1     -20.304  -4.430 -10.849  1.00  0.00     0.005 C 
ENDBRANCH   2   7
ENDBRANCH   1   2
BRANCH   1   9
HETATM    9  O   UNL     1     -23.722  -3.785 -12.038  1.00  0.00    -0.388 OA
BRANCH   9  10
HETATM   10  C   UNL     1     -24.637  -2.906 -12.699  1.00  0.00     0.201 C 
BRANCH  10  11
HETATM   11  C   UNL     1     -23.880  -1.955 -13.626  1.00  0.00     0.165 C 
BRANCH  11  12
HETATM   12  C   UNL     1     -23.056  -2.688 -14.687  1.00  0.00     0.198 C 
BRANCH  12  13
HETATM   13  O   UNL     1     -23.678  -3.943 -14.977  1.00  0.00    -0.398 OA
HETATM   14  H   UNL     1     -23.727  -3.994 -15.953  1.00  0.00     0.209 HD
ENDBRANCH  12  13
ENDBRANCH  11  12
BRANCH  11  15
HETATM   15  O   UNL     1     -24.797  -1.085 -14.306  1.00  0.00    -0.391 OA
HETATM   16  H   UNL     1     -25.107  -1.589 -15.086  1.00  0.00     0.210 HD
ENDBRANCH  11  15
ENDBRANCH  10  11
ENDBRANCH   9  10
ENDBRANCH   1   9
TORSDOF 11
ENDMDL
MODEL 2
REMARK VINA RESULT:      -5.9      1.119      2.288
REMARK  11 active torsions:
REMARK  status: ('A' for Active; 'I' for Inactive)
REMARK    1  A    between atoms: C_2  and  C_3 
REMARK    2  A    between atoms: C_3  and  C_4 
REMARK    3  A    between atoms: C_4  and  C_5 
REMARK    4  A    between atoms: C_5  and  C_6 
REMARK    5  A    between atoms: C_5  and  C_8 
REMARK    6  A    between atoms: C_8  and  O_9 
REMARK    7  A    between atoms: O_9  and  C_10 
REMARK    8  A    between atoms: C_10  and  C_11 
REMARK    9  A    between atoms: C_11  and  C_12 
REMARK   10  A    between atoms: C_11  and  O_14 
REMARK   11  A    between atoms: C_12  and  O_13 
ROOT
HETATM    1  C   UNL     1     -21.972  -3.902 -11.592  1.00  0.00     0.172 C 
ENDROOT
BRANCH   1   2
HETATM    2  C   UNL     1     -22.465  -4.555 -10.289  1.00  0.00     0.009 C 
BRANCH   2   3
HETATM    3  C   UNL     1     -21.881  -3.820  -9.058  1.00  0.00     0.007 C 
BRANCH   3   4
HETATM    4  C   UNL     1     -21.853  -4.676  -7.788  1.00  0.00     0.000 C 
BRANCH   4   5
HETATM    5  C   UNL     1     -20.678  -4.309  -6.883  1.00  0.00    -0.005 C 
HETATM    6  C   UNL     1     -19.358  -4.413  -7.635  1.00  0.00     0.005 C 
ENDBRANCH   4   5
ENDBRANCH   3   4
ENDBRANCH   2   3
BRANCH   2   7
HETATM    7  C   UNL     1     -24.007  -4.670 -10.276  1.00  0.00     0.002 C 
HETATM    8  C   UNL     1     -24.748  -3.471  -9.699  1.00  0.00     0.005 C 
ENDBRANCH   2   7
ENDBRANCH   1   2
BRANCH   1   9
HETATM    9  O   UNL     1     -23.050  -3.822 -12.538  1.00  0.00    -0.388 OA
BRANCH   9  10
HETATM   10  C   UNL     1     -23.232  -2.477 -12.990  1.00  0.00     0.201 C 
BRANCH  10  11
HETATM   11  C   UNL     1     -23.396  -2.450 -14.511  1.00  0.00     0.165 C 
BRANCH  11  12
HETATM   12  C   UNL     1     -23.641  -1.042 -15.058  1.00  0.00     0.198 C 
BRANCH  12  13
HETATM   13  O   UNL     1     -24.926  -0.587 -14.620  1.00  0.00    -0.398 OA
HETATM   14  H   UNL     1     -25.215   0.069 -15.287  1.00  0.00     0.209 HD
ENDBRANCH  12  13
ENDBRANCH  11  12
BRANCH  11  15
HETATM   15  O   UNL     1     -22.220  -2.970 -15.149  1.00  0.00    -0.391 OA
HETATM   16  H   UNL     1     -21.529  -2.981 -14.456  1.00  0.00     0.210 HD
ENDBRANCH  11  15
ENDBRANCH  10  11
ENDBRANCH   9  10
ENDBRANCH   1   9
TORSDOF 11
ENDMDL
MODEL 3
REMARK VINA RESULT:      -5.3      7.395     11.020
REMARK  11 active torsions:
REMARK  status: ('A' for Active; 'I' for Inactive)
REMARK    1  A    between atoms: C_2  and  C_3 
REMARK    2  A    between atoms: C_3  and  C_4 
REMARK    3  A    between atoms: C_4  and  C_5 
REMARK    4  A    between atoms: C_5  and  C_6 
REMARK    5  A    between atoms: C_5  and  C_8 
REMARK    6  A    between atoms: C_8  and  O_9 
REMARK    7  A    between atoms: O_9  and  C_10 
REMARK    8  A    between atoms: C_10  and  C_11 
REMARK    9  A    between atoms: C_11  and  C_12 
REMARK   10  A    between atoms: C_11  and  O_14 
REMARK   11  A    between atoms: C_12  and  O_13 
ROOT
HETATM    1  C   UNL     1     -24.359  -7.124 -19.434  1.00  0.00     0.172 C 
ENDROOT
BRANCH   1   2
HETATM    2  C   UNL     1     -25.174  -6.890 -20.718  1.00  0.00     0.009 C 
BRANCH   2   3
HETATM    3  C   UNL     1     -24.544  -7.653 -21.908  1.00  0.00     0.007 C 
BRANCH   3   4
HETATM    4  C   UNL     1     -23.234  -8.365 -21.557  1.00  0.00     0.000 C 
BRANCH   4   5
HETATM    5  C   UNL     1     -22.452  -8.764 -22.807  1.00  0.00    -0.005 C 
HETATM    6  C   UNL     1     -21.141  -9.444 -22.435  1.00  0.00     0.005 C 
ENDBRANCH   4   5
ENDBRANCH   3   4
ENDBRANCH   2   3
BRANCH   2   7
HETATM    7  C   UNL     1     -26.670  -7.210 -20.490  1.00  0.00     0.002 C 
HETATM    8  C   UNL     1     -27.175  -8.484 -21.154  1.00  0.00     0.005 C 
ENDBRANCH   2   7
ENDBRANCH   1   2
BRANCH   1   9
HETATM    9  O   UNL     1     -25.043  -6.550 -18.309  1.00  0.00    -0.388 OA
BRANCH   9  10
HETATM   10  C   UNL     1     -24.661  -7.201 -17.094  1.00  0.00     0.201 C 
BRANCH  10  11
HETATM   11  C   UNL     1     -25.340  -6.528 -15.899  1.00  0.00     0.165 C 
BRANCH  11  12
HETATM   12  C   UNL     1     -26.839  -6.827 -15.820  1.00  0.00     0.198 C 
BRANCH  12  13
HETATM   13  O   UNL     1     -27.530  -6.007 -16.768  1.00  0.00    -0.398 OA
HETATM   14  H   UNL     1     -26.988  -5.197 -16.860  1.00  0.00     0.209 HD
ENDBRANCH  12  13
ENDBRANCH  11  12
BRANCH  11  15
HETATM   15  O   UNL     1     -24.740  -6.968 -14.671  1.00  0.00    -0.391 OA
HETATM   16  H   UNL     1     -24.425  -7.879 -14.845  1.00  0.00     0.210 HD
ENDBRANCH  11  15
ENDBRANCH  10  11
ENDBRANCH   9  10
ENDBRANCH   1   9
TORSDOF 11
ENDMDL
MODEL 4
REMARK VINA RESULT:      -5.1      4.583      7.126
REMARK  11 active torsions:
REMARK  status: ('A' for Active; 'I' for Inactive)
REMARK    1  A    between atoms: C_2  and  C_3 
REMARK    2  A    between atoms: C_3  and  C_4 
REMARK    3  A    between atoms: C_4  and  C_5 
REMARK    4  A    between atoms: C_5  and  C_6 
REMARK    5  A    between atoms: C_5  and  C_8 
REMARK    6  A    between atoms: C_8  and  O_9 
REMARK    7  A    between atoms: O_9  and  C_10 
REMARK    8  A    between atoms: C_10  and  C_11 
REMARK    9  A    between atoms: C_11  and  C_12 
REMARK   10  A    between atoms: C_11  and  O_14 
REMARK   11  A    between atoms: C_12  and  O_13 
ROOT
HETATM    1  C   UNL     1     -22.415  -6.582  -5.057  1.00  0.00     0.172 C 
ENDROOT
BRANCH   1   2
HETATM    2  C   UNL     1     -21.318  -6.626  -3.979  1.00  0.00     0.009 C 
BRANCH   2   3
HETATM    3  C   UNL     1     -21.910  -6.300  -2.587  1.00  0.00     0.007 C 
BRANCH   3   4
HETATM    4  C   UNL     1     -21.462  -7.266  -1.487  1.00  0.00     0.000 C 
BRANCH   4   5
HETATM    5  C   UNL     1     -22.503  -7.383  -0.375  1.00  0.00    -0.005 C 
HETATM    6  C   UNL     1     -21.947  -8.157   0.813  1.00  0.00     0.005 C 
ENDBRANCH   4   5
ENDBRANCH   3   4
ENDBRANCH   2   3
BRANCH   2   7
HETATM    7  C   UNL     1     -20.543  -7.963  -4.033  1.00  0.00     0.002 C 
HETATM    8  C   UNL     1     -20.995  -8.938  -5.112  1.00  0.00     0.005 C 
ENDBRANCH   2   7
ENDBRANCH   1   2
BRANCH   1   9
HETATM    9  O   UNL     1     -22.315  -5.362  -5.808  1.00  0.00    -0.388 OA
BRANCH   9  10
HETATM   10  C   UNL     1     -21.465  -5.532  -6.946  1.00  0.00     0.201 C 
BRANCH  10  11
HETATM   11  C   UNL     1     -21.533  -4.296  -7.846  1.00  0.00     0.165 C 
BRANCH  11  12
HETATM   12  C   UNL     1     -22.774  -4.280  -8.741  1.00  0.00     0.198 C 
BRANCH  12  13
HETATM   13  O   UNL     1     -23.933  -4.067  -7.930  1.00  0.00    -0.398 OA
HETATM   14  H   UNL     1     -23.594  -3.840  -7.040  1.00  0.00     0.209 HD
ENDBRANCH  12  13
ENDBRANCH  11  12
BRANCH  11  15
HETATM   15  O   UNL     1     -21.551  -3.101  -7.050  1.00  0.00    -0.391 OA
HETATM   16  H   UNL     1     -22.067  -2.449  -7.567  1.00  0.00     0.210 HD
ENDBRANCH  11  15
ENDBRANCH  10  11
ENDBRANCH   9  10
ENDBRANCH   1   9
TORSDOF 11
ENDMDL
MODEL 5
REMARK VINA RESULT:      -5.0      3.763      6.865
REMARK  11 active torsions:
REMARK  status: ('A' for Active; 'I' for Inactive)
REMARK    1  A    between atoms: C_2  and  C_3 
REMARK    2  A    between atoms: C_3  and  C_4 
REMARK    3  A    between atoms: C_4  and  C_5 
REMARK    4  A    between atoms: C_5  and  C_6 
REMARK    5  A    between atoms: C_5  and  C_8 
REMARK    6  A    between atoms: C_8  and  O_9 
REMARK    7  A    between atoms: O_9  and  C_10 
REMARK    8  A    between atoms: C_10  and  C_11 
REMARK    9  A    between atoms: C_11  and  C_12 
REMARK   10  A    between atoms: C_11  and  O_14 
REMARK   11  A    between atoms: C_12  and  O_13 
ROOT
HETATM    1  C   UNL     1     -22.633  -4.238  -7.747  1.00  0.00     0.172 C 
ENDROOT
BRANCH   1   2
HETATM    2  C   UNL     1     -22.343  -4.645  -9.202  1.00  0.00     0.009 C 
BRANCH   2   3
HETATM    3  C   UNL     1     -23.655  -4.711 -10.020  1.00  0.00     0.007 C 
BRANCH   3   4
HETATM    4  C   UNL     1     -24.171  -3.339 -10.464  1.00  0.00     0.000 C 
BRANCH   4   5
HETATM    5  C   UNL     1     -24.374  -3.272 -11.977  1.00  0.00    -0.005 C 
HETATM    6  C   UNL     1     -23.215  -2.549 -12.651  1.00  0.00     0.005 C 
ENDBRANCH   4   5
ENDBRANCH   3   4
ENDBRANCH   2   3
BRANCH   2   7
HETATM    7  C   UNL     1     -21.260  -3.736  -9.826  1.00  0.00     0.002 C 
HETATM    8  C   UNL     1     -20.395  -4.388 -10.897  1.00  0.00     0.005 C 
ENDBRANCH   2   7
ENDBRANCH   1   2
BRANCH   1   9
HETATM    9  O   UNL     1     -21.540  -4.628  -6.901  1.00  0.00    -0.388 OA
BRANCH   9  10
HETATM   10  C   UNL     1     -21.125  -5.967  -7.189  1.00  0.00     0.201 C 
BRANCH  10  11
HETATM   11  C   UNL     1     -20.694  -6.673  -5.903  1.00  0.00     0.165 C 
BRANCH  11  12
HETATM   12  C   UNL     1     -21.321  -6.061  -4.649  1.00  0.00     0.198 C 
BRANCH  12  13
HETATM   13  O   UNL     1     -22.744  -6.189  -4.728  1.00  0.00    -0.398 OA
HETATM   14  H   UNL     1     -23.018  -5.628  -5.482  1.00  0.00     0.209 HD
ENDBRANCH  12  13
ENDBRANCH  11  12
BRANCH  11  15
HETATM   15  O   UNL     1     -21.064  -8.060  -5.948  1.00  0.00    -0.391 OA
HETATM   16  H   UNL     1     -21.363  -8.222  -6.865  1.00  0.00     0.210 HD
ENDBRANCH  11  15
ENDBRANCH  10  11
ENDBRANCH   9  10
ENDBRANCH   1   9
TORSDOF 11
ENDMDL
MODEL 6
REMARK VINA RESULT:      -5.0      3.620      7.023
REMARK  11 active torsions:
REMARK  status: ('A' for Active; 'I' for Inactive)
REMARK    1  A    between atoms: C_2  and  C_3 
REMARK    2  A    between atoms: C_3  and  C_4 
REMARK    3  A    between atoms: C_4  and  C_5 
REMARK    4  A    between atoms: C_5  and  C_6 
REMARK    5  A    between atoms: C_5  and  C_8 
REMARK    6  A    between atoms: C_8  and  O_9 
REMARK    7  A    between atoms: O_9  and  C_10 
REMARK    8  A    between atoms: C_10  and  C_11 
REMARK    9  A    between atoms: C_11  and  C_12 
REMARK   10  A    between atoms: C_11  and  O_14 
REMARK   11  A    between atoms: C_12  and  O_13 
ROOT
HETATM    1  C   UNL     1     -21.830  -4.089  -7.638  1.00  0.00     0.172 C 
ENDROOT
BRANCH   1   2
HETATM    2  C   UNL     1     -22.309  -3.775  -9.066  1.00  0.00     0.009 C 
BRANCH   2   3
HETATM    3  C   UNL     1     -21.284  -4.285 -10.107  1.00  0.00     0.007 C 
BRANCH   3   4
HETATM    4  C   UNL     1     -21.858  -4.417 -11.521  1.00  0.00     0.000 C 
BRANCH   4   5
HETATM    5  C   UNL     1     -21.993  -3.058 -12.208  1.00  0.00    -0.005 C 
HETATM    6  C   UNL     1     -23.248  -3.005 -13.068  1.00  0.00     0.005 C 
ENDBRANCH   4   5
ENDBRANCH   3   4
ENDBRANCH   2   3
BRANCH   2   7
HETATM    7  C   UNL     1     -23.747  -4.297  -9.295  1.00  0.00     0.002 C 
HETATM    8  C   UNL     1     -24.786  -3.231  -9.615  1.00  0.00     0.005 C 
ENDBRANCH   2   7
ENDBRANCH   1   2
BRANCH   1   9
HETATM    9  O   UNL     1     -21.112  -5.333  -7.624  1.00  0.00    -0.388 OA
BRANCH   9  10
HETATM   10  C   UNL     1     -20.149  -5.354  -6.567  1.00  0.00     0.201 C 
BRANCH  10  11
HETATM   11  C   UNL     1     -20.452  -6.499  -5.600  1.00  0.00     0.165 C 
BRANCH  11  12
HETATM   12  C   UNL     1     -21.423  -6.098  -4.487  1.00  0.00     0.198 C 
BRANCH  12  13
HETATM   13  O   UNL     1     -22.763  -6.193  -4.980  1.00  0.00    -0.398 OA
HETATM   14  H   UNL     1     -22.680  -6.428  -5.927  1.00  0.00     0.209 HD
ENDBRANCH  12  13
ENDBRANCH  11  12
BRANCH  11  15
HETATM   15  O   UNL     1     -21.028  -7.609  -6.305  1.00  0.00    -0.391 OA
HETATM   16  H   UNL     1     -20.280  -8.050  -6.757  1.00  0.00     0.210 HD
ENDBRANCH  11  15
ENDBRANCH  10  11
ENDBRANCH   9  10
ENDBRANCH   1   9
TORSDOF 11
ENDMDL
MODEL 7
REMARK VINA RESULT:      -4.9      5.524      8.493
REMARK  11 active torsions:
REMARK  status: ('A' for Active; 'I' for Inactive)
REMARK    1  A    between atoms: C_2  and  C_3 
REMARK    2  A    between atoms: C_3  and  C_4 
REMARK    3  A    between atoms: C_4  and  C_5 
REMARK    4  A    between atoms: C_5  and  C_6 
REMARK    5  A    between atoms: C_5  and  C_8 
REMARK    6  A    between atoms: C_8  and  O_9 
REMARK    7  A    between atoms: O_9  and  C_10 
REMARK    8  A    between atoms: C_10  and  C_11 
REMARK    9  A    between atoms: C_11  and  C_12 
REMARK   10  A    between atoms: C_11  and  O_14 
REMARK   11  A    between atoms: C_12  and  O_13 
ROOT
HETATM    1  C   UNL     1     -21.667  -6.319  -3.780  1.00  0.00     0.172 C 
ENDROOT
BRANCH   1   2
HETATM    2  C   UNL     1     -21.255  -7.031  -2.479  1.00  0.00     0.009 C 
BRANCH   2   3
HETATM    3  C   UNL     1     -22.285  -6.754  -1.358  1.00  0.00     0.007 C 
BRANCH   3   4
HETATM    4  C   UNL     1     -22.010  -7.528  -0.066  1.00  0.00     0.000 C 
BRANCH   4   5
HETATM    5  C   UNL     1     -23.255  -8.261   0.433  1.00  0.00    -0.005 C 
HETATM    6  C   UNL     1     -23.296  -9.688  -0.098  1.00  0.00     0.005 C 
ENDBRANCH   4   5
ENDBRANCH   3   4
ENDBRANCH   2   3
BRANCH   2   7
HETATM    7  C   UNL     1     -20.990  -8.533  -2.730  1.00  0.00     0.002 C 
HETATM    8  C   UNL     1     -19.592  -9.020  -2.372  1.00  0.00     0.005 C 
ENDBRANCH   2   7
ENDBRANCH   1   2
BRANCH   1   9
HETATM    9  O   UNL     1     -20.501  -6.019  -4.564  1.00  0.00    -0.388 OA
BRANCH   9  10
HETATM   10  C   UNL     1     -20.781  -4.994  -5.522  1.00  0.00     0.201 C 
BRANCH  10  11
HETATM   11  C   UNL     1     -21.700  -5.534  -6.619  1.00  0.00     0.165 C 
BRANCH  11  12
HETATM   12  C   UNL     1     -22.502  -4.434  -7.318  1.00  0.00     0.198 C 
BRANCH  12  13
HETATM   13  O   UNL     1     -23.838  -4.432  -6.806  1.00  0.00    -0.398 OA
HETATM   14  H   UNL     1     -24.211  -5.306  -7.039  1.00  0.00     0.209 HD
ENDBRANCH  12  13
ENDBRANCH  11  12
BRANCH  11  15
HETATM   15  O   UNL     1     -20.933  -6.222  -7.619  1.00  0.00    -0.391 OA
HETATM   16  H   UNL     1     -21.398  -7.070  -7.768  1.00  0.00     0.210 HD
ENDBRANCH  11  15
ENDBRANCH  10  11
ENDBRANCH   9  10
ENDBRANCH   1   9
TORSDOF 11
ENDMDL
MODEL 8
REMARK VINA RESULT:      -4.9      4.715      7.730
REMARK  11 active torsions:
REMARK  status: ('A' for Active; 'I' for Inactive)
REMARK    1  A    between atoms: C_2  and  C_3 
REMARK    2  A    between atoms: C_3  and  C_4 
REMARK    3  A    between atoms: C_4  and  C_5 
REMARK    4  A    between atoms: C_5  and  C_6 
REMARK    5  A    between atoms: C_5  and  C_8 
REMARK    6  A    between atoms: C_8  and  O_9 
REMARK    7  A    between atoms: O_9  and  C_10 
REMARK    8  A    between atoms: C_10  and  C_11 
REMARK    9  A    between atoms: C_11  and  C_12 
REMARK   10  A    between atoms: C_11  and  O_14 
REMARK   11  A    between atoms: C_12  and  O_13 
ROOT
HETATM    1  C   UNL     1     -20.812  -5.762  -7.241  1.00  0.00     0.172 C 
ENDROOT
BRANCH   1   2
HETATM    2  C   UNL     1     -20.561  -4.300  -7.649  1.00  0.00     0.009 C 
BRANCH   2   3
HETATM    3  C   UNL     1     -19.686  -4.234  -8.923  1.00  0.00     0.007 C 
BRANCH   3   4
HETATM    4  C   UNL     1     -20.452  -4.548 -10.211  1.00  0.00     0.000 C 
BRANCH   4   5
HETATM    5  C   UNL     1     -20.532  -3.333 -11.135  1.00  0.00    -0.005 C 
HETATM    6  C   UNL     1     -21.966  -3.084 -11.584  1.00  0.00     0.005 C 
ENDBRANCH   4   5
ENDBRANCH   3   4
ENDBRANCH   2   3
BRANCH   2   7
HETATM    7  C   UNL     1     -21.891  -3.520  -7.761  1.00  0.00     0.002 C 
HETATM    8  C   UNL     1     -23.154  -4.367  -7.688  1.00  0.00     0.005 C 
ENDBRANCH   2   7
ENDBRANCH   1   2
BRANCH   1   9
HETATM    9  O   UNL     1     -20.100  -6.062  -6.030  1.00  0.00    -0.388 OA
BRANCH   9  10
HETATM   10  C   UNL     1     -20.786  -5.536  -4.891  1.00  0.00     0.201 C 
BRANCH  10  11
HETATM   11  C   UNL     1     -21.743  -6.584  -4.321  1.00  0.00     0.165 C 
BRANCH  11  12
HETATM   12  C   UNL     1     -21.624  -6.737  -2.803  1.00  0.00     0.198 C 
BRANCH  12  13
HETATM   13  O   UNL     1     -22.408  -5.721  -2.168  1.00  0.00    -0.398 OA
HETATM   14  H   UNL     1     -23.109  -6.196  -1.678  1.00  0.00     0.209 HD
ENDBRANCH  12  13
ENDBRANCH  11  12
BRANCH  11  15
HETATM   15  O   UNL     1     -23.102  -6.235  -4.622  1.00  0.00    -0.391 OA
HETATM   16  H   UNL     1     -23.520  -6.036  -3.759  1.00  0.00     0.210 HD
ENDBRANCH  11  15
ENDBRANCH  10  11
ENDBRANCH   9  10
ENDBRANCH   1   9
TORSDOF 11
ENDMDL
MODEL 9
REMARK VINA RESULT:      -4.9      3.029      6.596
REMARK  11 active torsions:
REMARK  status: ('A' for Active; 'I' for Inactive)
REMARK    1  A    between atoms: C_2  and  C_3 
REMARK    2  A    between atoms: C_3  and  C_4 
REMARK    3  A    between atoms: C_4  and  C_5 
REMARK    4  A    between atoms: C_5  and  C_6 
REMARK    5  A    between atoms: C_5  and  C_8 
REMARK    6  A    between atoms: C_8  and  O_9 
REMARK    7  A    between atoms: O_9  and  C_10 
REMARK    8  A    between atoms: C_10  and  C_11 
REMARK    9  A    between atoms: C_11  and  C_12 
REMARK   10  A    between atoms: C_11  and  O_14 
REMARK   11  A    between atoms: C_12  and  O_13 
ROOT
HETATM    1  C   UNL     1     -23.258  -4.306  -9.086  1.00  0.00     0.172 C 
ENDROOT
BRANCH   1   2
HETATM    2  C   UNL     1     -23.091  -4.305 -10.616  1.00  0.00     0.009 C 
BRANCH   2   3
HETATM    3  C   UNL     1     -23.773  -3.062 -11.236  1.00  0.00     0.007 C 
BRANCH   3   4
HETATM    4  C   UNL     1     -24.284  -3.290 -12.662  1.00  0.00     0.000 C 
BRANCH   4   5
HETATM    5  C   UNL     1     -23.784  -2.211 -13.622  1.00  0.00    -0.005 C 
HETATM    6  C   UNL     1     -22.824  -2.799 -14.649  1.00  0.00     0.005 C 
ENDBRANCH   4   5
ENDBRANCH   3   4
ENDBRANCH   2   3
BRANCH   2   7
HETATM    7  C   UNL     1     -21.604  -4.466 -11.010  1.00  0.00     0.002 C 
HETATM    8  C   UNL     1     -20.853  -3.167 -11.271  1.00  0.00     0.005 C 
ENDBRANCH   2   7
ENDBRANCH   1   2
BRANCH   1   9
HETATM    9  O   UNL     1     -22.066  -4.811  -8.463  1.00  0.00    -0.388 OA
BRANCH   9  10
HETATM   10  C   UNL     1     -22.102  -4.603  -7.048  1.00  0.00     0.201 C 
BRANCH  10  11
HETATM   11  C   UNL     1     -21.800  -5.911  -6.315  1.00  0.00     0.165 C 
BRANCH  11  12
HETATM   12  C   UNL     1     -20.301  -6.154  -6.125  1.00  0.00     0.198 C 
BRANCH  12  13
HETATM   13  O   UNL     1     -19.698  -6.380  -7.403  1.00  0.00    -0.398 OA
HETATM   14  H   UNL     1     -18.738  -6.247  -7.269  1.00  0.00     0.209 HD
ENDBRANCH  12  13
ENDBRANCH  11  12
BRANCH  11  15
HETATM   15  O   UNL     1     -22.412  -5.908  -5.017  1.00  0.00    -0.391 OA
HETATM   16  H   UNL     1     -22.784  -5.009  -4.904  1.00  0.00     0.210 HD
ENDBRANCH  11  15
ENDBRANCH  10  11
ENDBRANCH   9  10
ENDBRANCH   1   9
TORSDOF 11
ENDMDL
