MODEL 1
REMARK VINA RESULT:      -4.6      0.000      0.000
REMARK  21 active torsions:
REMARK  status: ('A' for Active; 'I' for Inactive)
REMARK    1  A    between atoms: C_3  and  O_11 
REMARK    2  A    between atoms: C_6  and  C_7 
REMARK    3  A    between atoms: C_7  and  N_10 
REMARK    4  A    between atoms: O_11  and  C_12 
REMARK    5  A    between atoms: C_12  and  C_13 
REMARK    6  A    between atoms: C_13  and  C_14 
REMARK    7  A    between atoms: C_14  and  C_15 
REMARK    8  A    between atoms: C_15  and  C_16 
REMARK    9  A    between atoms: C_16  and  C_17 
REMARK   10  A    between atoms: C_17  and  O_18 
REMARK   11  A    between atoms: O_18  and  C_19 
REMARK   12  A    between atoms: C_22  and  C_25 
REMARK   13  A    between atoms: C_25  and  N_28 
REMARK   14  A    between atoms: C_35  and  C_36 
REMARK   15  A    between atoms: C_35  and  O_41 
REMARK   16  A    between atoms: C_36  and  S_37 
REMARK   17  A    between atoms: S_37  and  O_40 
REMARK   18  A    between atoms: C_44  and  C_45 
REMARK   19  A    between atoms: C_44  and  O_50 
REMARK   20  A    between atoms: C_45  and  S_46 
REMARK   21  A    between atoms: S_46  and  O_49 
ROOT
HETATM    1  S   UNL     2     -24.053  -3.052 -12.685  1.00  0.00     0.096 S 
HETATM    2  O   UNL     2     -23.142  -2.721 -11.608  1.00  0.00    -0.601 OA
HETATM    3  O   UNL     2     -25.479  -2.853 -12.560  1.00  0.00    -0.601 OA
ENDROOT
BRANCH   1   4
HETATM    4  C   UNL     2     -23.430  -2.303 -14.118  1.00  0.00     0.181 C 
BRANCH   4   5
HETATM    5  C   UNL     2     -23.698  -1.129 -14.995  1.00  0.00     0.180 C 
BRANCH   5   6
HETATM    6  O   UNL     2     -24.930  -0.483 -14.773  1.00  0.00    -0.400 OA
HETATM    7  H   UNL     2     -24.802   0.156 -14.046  1.00  0.00     0.209 HD
ENDBRANCH   5   6
ENDBRANCH   4   5
ENDBRANCH   1   4
BRANCH   1   8
HETATM    8  O   UNL     2     -23.722  -4.591 -13.039  1.00  0.00    -0.296 OA
HETATM    9  H   UNL     2     -22.740  -4.659 -13.133  1.00  0.00     0.232 HD
ENDBRANCH   1   8
TORSDOF 21
ENDMDL
MODEL 2
REMARK VINA RESULT:      -4.3      2.618      3.699
REMARK  21 active torsions:
REMARK  status: ('A' for Active; 'I' for Inactive)
REMARK    1  A    between atoms: C_3  and  O_11 
REMARK    2  A    between atoms: C_6  and  C_7 
REMARK    3  A    between atoms: C_7  and  N_10 
REMARK    4  A    between atoms: O_11  and  C_12 
REMARK    5  A    between atoms: C_12  and  C_13 
REMARK    6  A    between atoms: C_13  and  C_14 
REMARK    7  A    between atoms: C_14  and  C_15 
REMARK    8  A    between atoms: C_15  and  C_16 
REMARK    9  A    between atoms: C_16  and  C_17 
REMARK   10  A    between atoms: C_17  and  O_18 
REMARK   11  A    between atoms: O_18  and  C_19 
REMARK   12  A    between atoms: C_22  and  C_25 
REMARK   13  A    between atoms: C_25  and  N_28 
REMARK   14  A    between atoms: C_35  and  C_36 
REMARK   15  A    between atoms: C_35  and  O_41 
REMARK   16  A    between atoms: C_36  and  S_37 
REMARK   17  A    between atoms: S_37  and  O_40 
REMARK   18  A    between atoms: C_44  and  C_45 
REMARK   19  A    between atoms: C_44  and  O_50 
REMARK   20  A    between atoms: C_45  and  S_46 
REMARK   21  A    between atoms: S_46  and  O_49 
ROOT
HETATM    1  S   UNL     2     -23.993  -3.211 -12.494  1.00  0.00     0.096 S 
HETATM    2  O   UNL     2     -25.394  -2.919 -12.714  1.00  0.00    -0.601 OA
HETATM    3  O   UNL     2     -22.948  -2.415 -13.095  1.00  0.00    -0.601 OA
ENDROOT
BRANCH   1   4
HETATM    4  C   UNL     2     -23.774  -3.354 -10.780  1.00  0.00     0.181 C 
BRANCH   4   5
HETATM    5  C   UNL     2     -24.585  -3.398  -9.531  1.00  0.00     0.180 C 
BRANCH   5   6
HETATM    6  O   UNL     2     -25.971  -3.227  -9.709  1.00  0.00    -0.400 OA
HETATM    7  H   UNL     2     -26.099  -2.483 -10.329  1.00  0.00     0.209 HD
ENDBRANCH   5   6
ENDBRANCH   4   5
ENDBRANCH   1   4
BRANCH   1   8
HETATM    8  O   UNL     2     -23.831  -4.764 -12.901  1.00  0.00    -0.296 OA
HETATM    9  H   UNL     2     -23.362  -4.785 -13.771  1.00  0.00     0.232 HD
ENDBRANCH   1   8
TORSDOF 21
ENDMDL
MODEL 3
REMARK VINA RESULT:      -4.2      7.331      7.915
REMARK  21 active torsions:
REMARK  status: ('A' for Active; 'I' for Inactive)
REMARK    1  A    between atoms: C_3  and  O_11 
REMARK    2  A    between atoms: C_6  and  C_7 
REMARK    3  A    between atoms: C_7  and  N_10 
REMARK    4  A    between atoms: O_11  and  C_12 
REMARK    5  A    between atoms: C_12  and  C_13 
REMARK    6  A    between atoms: C_13  and  C_14 
REMARK    7  A    between atoms: C_14  and  C_15 
REMARK    8  A    between atoms: C_15  and  C_16 
REMARK    9  A    between atoms: C_16  and  C_17 
REMARK   10  A    between atoms: C_17  and  O_18 
REMARK   11  A    between atoms: O_18  and  C_19 
REMARK   12  A    between atoms: C_22  and  C_25 
REMARK   13  A    between atoms: C_25  and  N_28 
REMARK   14  A    between atoms: C_35  and  C_36 
REMARK   15  A    between atoms: C_35  and  O_41 
REMARK   16  A    between atoms: C_36  and  S_37 
REMARK   17  A    between atoms: S_37  and  O_40 
REMARK   18  A    between atoms: C_44  and  C_45 
REMARK   19  A    between atoms: C_44  and  O_50 
REMARK   20  A    between atoms: C_45  and  S_46 
REMARK   21  A    between atoms: S_46  and  O_49 
ROOT
HETATM    1  S   UNL     2     -28.271  -6.655 -16.031  1.00  0.00     0.096 S 
HETATM    2  O   UNL     2     -27.857  -7.608 -15.022  1.00  0.00    -0.601 OA
HETATM    3  O   UNL     2     -27.311  -5.954 -16.853  1.00  0.00    -0.601 OA
ENDROOT
BRANCH   1   4
HETATM    4  C   UNL     2     -29.480  -7.439 -16.995  1.00  0.00     0.181 C 
BRANCH   4   5
HETATM    5  C   UNL     2     -29.860  -7.608 -18.426  1.00  0.00     0.180 C 
BRANCH   5   6
HETATM    6  O   UNL     2     -29.482  -8.835 -19.005  1.00  0.00    -0.400 OA
HETATM    7  H   UNL     2     -30.068  -8.993 -19.771  1.00  0.00     0.209 HD
ENDBRANCH   5   6
ENDBRANCH   4   5
ENDBRANCH   1   4
BRANCH   1   8
HETATM    8  O   UNL     2     -29.214  -5.611 -15.242  1.00  0.00    -0.296 OA
HETATM    9  H   UNL     2     -29.630  -5.027 -15.925  1.00  0.00     0.232 HD
ENDBRANCH   1   8
TORSDOF 21
ENDMDL
MODEL 4
REMARK VINA RESULT:      -4.1      2.366      3.041
REMARK  21 active torsions:
REMARK  status: ('A' for Active; 'I' for Inactive)
REMARK    1  A    between atoms: C_3  and  O_11 
REMARK    2  A    between atoms: C_6  and  C_7 
REMARK    3  A    between atoms: C_7  and  N_10 
REMARK    4  A    between atoms: O_11  and  C_12 
REMARK    5  A    between atoms: C_12  and  C_13 
REMARK    6  A    between atoms: C_13  and  C_14 
REMARK    7  A    between atoms: C_14  and  C_15 
REMARK    8  A    between atoms: C_15  and  C_16 
REMARK    9  A    between atoms: C_16  and  C_17 
REMARK   10  A    between atoms: C_17  and  O_18 
REMARK   11  A    between atoms: O_18  and  C_19 
REMARK   12  A    between atoms: C_22  and  C_25 
REMARK   13  A    between atoms: C_25  and  N_28 
REMARK   14  A    between atoms: C_35  and  C_36 
REMARK   15  A    between atoms: C_35  and  O_41 
REMARK   16  A    between atoms: C_36  and  S_37 
REMARK   17  A    between atoms: S_37  and  O_40 
REMARK   18  A    between atoms: C_44  and  C_45 
REMARK   19  A    between atoms: C_44  and  O_50 
REMARK   20  A    between atoms: C_45  and  S_46 
REMARK   21  A    between atoms: S_46  and  O_49 
ROOT
HETATM    1  S   UNL     2     -24.238  -3.810 -10.226  1.00  0.00     0.096 S 
HETATM    2  O   UNL     2     -25.549  -3.208 -10.091  1.00  0.00    -0.601 OA
HETATM    3  O   UNL     2     -24.070  -5.236 -10.384  1.00  0.00    -0.601 OA
ENDROOT
BRANCH   1   4
HETATM    4  C   UNL     2     -23.409  -2.932 -11.470  1.00  0.00     0.181 C 
BRANCH   4   5
HETATM    5  C   UNL     2     -23.428  -2.766 -12.950  1.00  0.00     0.180 C 
BRANCH   5   6
HETATM    6  O   UNL     2     -24.547  -2.081 -13.463  1.00  0.00    -0.400 OA
HETATM    7  H   UNL     2     -24.818  -1.419 -12.797  1.00  0.00     0.209 HD
ENDBRANCH   5   6
ENDBRANCH   4   5
ENDBRANCH   1   4
BRANCH   1   8
HETATM    8  O   UNL     2     -23.412  -3.277  -8.946  1.00  0.00    -0.296 OA
HETATM    9  H   UNL     2     -23.574  -2.303  -8.886  1.00  0.00     0.232 HD
ENDBRANCH   1   8
TORSDOF 21
ENDMDL
MODEL 5
REMARK VINA RESULT:      -4.1      2.685      3.668
REMARK  21 active torsions:
REMARK  status: ('A' for Active; 'I' for Inactive)
REMARK    1  A    between atoms: C_3  and  O_11 
REMARK    2  A    between atoms: C_6  and  C_7 
REMARK    3  A    between atoms: C_7  and  N_10 
REMARK    4  A    between atoms: O_11  and  C_12 
REMARK    5  A    between atoms: C_12  and  C_13 
REMARK    6  A    between atoms: C_13  and  C_14 
REMARK    7  A    between atoms: C_14  and  C_15 
REMARK    8  A    between atoms: C_15  and  C_16 
REMARK    9  A    between atoms: C_16  and  C_17 
REMARK   10  A    between atoms: C_17  and  O_18 
REMARK   11  A    between atoms: O_18  and  C_19 
REMARK   12  A    between atoms: C_22  and  C_25 
REMARK   13  A    between atoms: C_25  and  N_28 
REMARK   14  A    between atoms: C_35  and  C_36 
REMARK   15  A    between atoms: C_35  and  O_41 
REMARK   16  A    between atoms: C_36  and  S_37 
REMARK   17  A    between atoms: S_37  and  O_40 
REMARK   18  A    between atoms: C_44  and  C_45 
REMARK   19  A    between atoms: C_44  and  O_50 
REMARK   20  A    between atoms: C_45  and  S_46 
REMARK   21  A    between atoms: S_46  and  O_49 
ROOT
HETATM    1  S   UNL     2     -24.027  -3.369 -12.160  1.00  0.00     0.096 S 
HETATM    2  O   UNL     2     -24.405  -3.805 -13.489  1.00  0.00    -0.601 OA
HETATM    3  O   UNL     2     -25.009  -3.162 -11.122  1.00  0.00    -0.601 OA
ENDROOT
BRANCH   1   4
HETATM    4  C   UNL     2     -22.755  -4.421 -11.631  1.00  0.00     0.181 C 
BRANCH   4   5
HETATM    5  C   UNL     2     -21.338  -4.351 -11.175  1.00  0.00     0.180 C 
BRANCH   5   6
HETATM    6  O   UNL     2     -20.578  -3.307 -11.736  1.00  0.00    -0.400 OA
HETATM    7  H   UNL     2     -19.779  -3.195 -11.187  1.00  0.00     0.209 HD
ENDBRANCH   5   6
ENDBRANCH   4   5
ENDBRANCH   1   4
BRANCH   1   8
HETATM    8  O   UNL     2     -23.163  -2.028 -12.402  1.00  0.00    -0.296 OA
HETATM    9  H   UNL     2     -23.569  -1.560 -13.173  1.00  0.00     0.232 HD
ENDBRANCH   1   8
TORSDOF 21
ENDMDL
MODEL 6
REMARK VINA RESULT:      -4.0     17.424     18.216
REMARK  21 active torsions:
REMARK  status: ('A' for Active; 'I' for Inactive)
REMARK    1  A    between atoms: C_3  and  O_11 
REMARK    2  A    between atoms: C_6  and  C_7 
REMARK    3  A    between atoms: C_7  and  N_10 
REMARK    4  A    between atoms: O_11  and  C_12 
REMARK    5  A    between atoms: C_12  and  C_13 
REMARK    6  A    between atoms: C_13  and  C_14 
REMARK    7  A    between atoms: C_14  and  C_15 
REMARK    8  A    between atoms: C_15  and  C_16 
REMARK    9  A    between atoms: C_16  and  C_17 
REMARK   10  A    between atoms: C_17  and  O_18 
REMARK   11  A    between atoms: O_18  and  C_19 
REMARK   12  A    between atoms: C_22  and  C_25 
REMARK   13  A    between atoms: C_25  and  N_28 
REMARK   14  A    between atoms: C_35  and  C_36 
REMARK   15  A    between atoms: C_35  and  O_41 
REMARK   16  A    between atoms: C_36  and  S_37 
REMARK   17  A    between atoms: S_37  and  O_40 
REMARK   18  A    between atoms: C_44  and  C_45 
REMARK   19  A    between atoms: C_44  and  O_50 
REMARK   20  A    between atoms: C_45  and  S_46 
REMARK   21  A    between atoms: S_46  and  O_49 
ROOT
HETATM    1  S   UNL     2     -10.892   8.741 -19.353  1.00  0.00     0.096 S 
HETATM    2  O   UNL     2     -10.249   9.657 -20.273  1.00  0.00    -0.601 OA
HETATM    3  O   UNL     2     -12.295   8.853 -19.025  1.00  0.00    -0.601 OA
ENDROOT
BRANCH   1   4
HETATM    4  C   UNL     2     -10.489   7.139 -19.878  1.00  0.00     0.181 C 
BRANCH   4   5
HETATM    5  C   UNL     2     -10.134   5.810 -19.304  1.00  0.00     0.180 C 
BRANCH   5   6
HETATM    6  O   UNL     2      -9.596   5.843 -18.003  1.00  0.00    -0.400 OA
HETATM    7  H   UNL     2     -10.333   5.720 -17.375  1.00  0.00     0.209 HD
ENDBRANCH   5   6
ENDBRANCH   4   5
ENDBRANCH   1   4
BRANCH   1   8
HETATM    8  O   UNL     2      -9.989   8.805 -18.017  1.00  0.00    -0.296 OA
HETATM    9  H   UNL     2     -10.301   8.076 -17.425  1.00  0.00     0.232 HD
ENDBRANCH   1   8
TORSDOF 21
ENDMDL
MODEL 7
REMARK VINA RESULT:      -4.0     17.232     17.971
REMARK  21 active torsions:
REMARK  status: ('A' for Active; 'I' for Inactive)
REMARK    1  A    between atoms: C_3  and  O_11 
REMARK    2  A    between atoms: C_6  and  C_7 
REMARK    3  A    between atoms: C_7  and  N_10 
REMARK    4  A    between atoms: O_11  and  C_12 
REMARK    5  A    between atoms: C_12  and  C_13 
REMARK    6  A    between atoms: C_13  and  C_14 
REMARK    7  A    between atoms: C_14  and  C_15 
REMARK    8  A    between atoms: C_15  and  C_16 
REMARK    9  A    between atoms: C_16  and  C_17 
REMARK   10  A    between atoms: C_17  and  O_18 
REMARK   11  A    between atoms: O_18  and  C_19 
REMARK   12  A    between atoms: C_22  and  C_25 
REMARK   13  A    between atoms: C_25  and  N_28 
REMARK   14  A    between atoms: C_35  and  C_36 
REMARK   15  A    between atoms: C_35  and  O_41 
REMARK   16  A    between atoms: C_36  and  S_37 
REMARK   17  A    between atoms: S_37  and  O_40 
REMARK   18  A    between atoms: C_44  and  C_45 
REMARK   19  A    between atoms: C_44  and  O_50 
REMARK   20  A    between atoms: C_45  and  S_46 
REMARK   21  A    between atoms: S_46  and  O_49 
ROOT
HETATM    1  S   UNL     2      -9.941   6.022 -19.664  1.00  0.00     0.096 S 
HETATM    2  O   UNL     2     -10.913   4.979 -19.919  1.00  0.00    -0.601 OA
HETATM    3  O   UNL     2      -8.719   6.125 -20.428  1.00  0.00    -0.601 OA
ENDROOT
BRANCH   1   4
HETATM    4  C   UNL     2     -10.808   7.523 -19.648  1.00  0.00     0.181 C 
BRANCH   4   5
HETATM    5  C   UNL     2     -10.672   8.910 -19.121  1.00  0.00     0.180 C 
BRANCH   5   6
HETATM    6  O   UNL     2     -10.061   9.013 -17.856  1.00  0.00    -0.400 OA
HETATM    7  H   UNL     2      -9.569   9.856 -17.834  1.00  0.00     0.209 HD
ENDBRANCH   5   6
ENDBRANCH   4   5
ENDBRANCH   1   4
BRANCH   1   8
HETATM    8  O   UNL     2      -9.617   5.901 -18.088  1.00  0.00    -0.296 OA
HETATM    9  H   UNL     2      -8.712   5.509 -18.010  1.00  0.00     0.232 HD
ENDBRANCH   1   8
TORSDOF 21
ENDMDL
MODEL 8
REMARK VINA RESULT:      -3.9      3.716      4.899
REMARK  21 active torsions:
REMARK  status: ('A' for Active; 'I' for Inactive)
REMARK    1  A    between atoms: C_3  and  O_11 
REMARK    2  A    between atoms: C_6  and  C_7 
REMARK    3  A    between atoms: C_7  and  N_10 
REMARK    4  A    between atoms: O_11  and  C_12 
REMARK    5  A    between atoms: C_12  and  C_13 
REMARK    6  A    between atoms: C_13  and  C_14 
REMARK    7  A    between atoms: C_14  and  C_15 
REMARK    8  A    between atoms: C_15  and  C_16 
REMARK    9  A    between atoms: C_16  and  C_17 
REMARK   10  A    between atoms: C_17  and  O_18 
REMARK   11  A    between atoms: O_18  and  C_19 
REMARK   12  A    between atoms: C_22  and  C_25 
REMARK   13  A    between atoms: C_25  and  N_28 
REMARK   14  A    between atoms: C_35  and  C_36 
REMARK   15  A    between atoms: C_35  and  O_41 
REMARK   16  A    between atoms: C_36  and  S_37 
REMARK   17  A    between atoms: S_37  and  O_40 
REMARK   18  A    between atoms: C_44  and  C_45 
REMARK   19  A    between atoms: C_44  and  O_50 
REMARK   20  A    between atoms: C_45  and  S_46 
REMARK   21  A    between atoms: S_46  and  O_49 
ROOT
HETATM    1  S   UNL     2     -23.854  -3.499 -10.825  1.00  0.00     0.096 S 
HETATM    2  O   UNL     2     -25.177  -3.313 -10.263  1.00  0.00    -0.601 OA
HETATM    3  O   UNL     2     -23.327  -2.612 -11.836  1.00  0.00    -0.601 OA
ENDROOT
BRANCH   1   4
HETATM    4  C   UNL     2     -22.761  -3.661  -9.489  1.00  0.00     0.181 C 
BRANCH   4   5
HETATM    5  C   UNL     2     -22.748  -4.159  -8.085  1.00  0.00     0.180 C 
BRANCH   5   6
HETATM    6  O   UNL     2     -23.997  -4.149  -7.433  1.00  0.00    -0.400 OA
HETATM    7  H   UNL     2     -24.208  -5.069  -7.186  1.00  0.00     0.209 HD
ENDBRANCH   5   6
ENDBRANCH   4   5
ENDBRANCH   1   4
BRANCH   1   8
HETATM    8  O   UNL     2     -23.846  -5.026 -11.347  1.00  0.00    -0.296 OA
HETATM    9  H   UNL     2     -23.219  -5.524 -10.765  1.00  0.00     0.232 HD
ENDBRANCH   1   8
TORSDOF 21
ENDMDL
MODEL 9
REMARK VINA RESULT:      -3.8     10.822     11.767
REMARK  21 active torsions:
REMARK  status: ('A' for Active; 'I' for Inactive)
REMARK    1  A    between atoms: C_3  and  O_11 
REMARK    2  A    between atoms: C_6  and  C_7 
REMARK    3  A    between atoms: C_7  and  N_10 
REMARK    4  A    between atoms: O_11  and  C_12 
REMARK    5  A    between atoms: C_12  and  C_13 
REMARK    6  A    between atoms: C_13  and  C_14 
REMARK    7  A    between atoms: C_14  and  C_15 
REMARK    8  A    between atoms: C_15  and  C_16 
REMARK    9  A    between atoms: C_16  and  C_17 
REMARK   10  A    between atoms: C_17  and  O_18 
REMARK   11  A    between atoms: O_18  and  C_19 
REMARK   12  A    between atoms: C_22  and  C_25 
REMARK   13  A    between atoms: C_25  and  N_28 
REMARK   14  A    between atoms: C_35  and  C_36 
REMARK   15  A    between atoms: C_35  and  O_41 
REMARK   16  A    between atoms: C_36  and  S_37 
REMARK   17  A    between atoms: S_37  and  O_40 
REMARK   18  A    between atoms: C_44  and  C_45 
REMARK   19  A    between atoms: C_44  and  O_50 
REMARK   20  A    between atoms: C_45  and  S_46 
REMARK   21  A    between atoms: S_46  and  O_49 
ROOT
HETATM    1  S   UNL     2     -34.508  -4.894 -11.890  1.00  0.00     0.096 S 
HETATM    2  O   UNL     2     -35.542  -3.881 -11.837  1.00  0.00    -0.601 OA
HETATM    3  O   UNL     2     -33.127  -4.556 -12.149  1.00  0.00    -0.601 OA
ENDROOT
BRANCH   1   4
HETATM    4  C   UNL     2     -34.669  -5.850 -10.453  1.00  0.00     0.181 C 
BRANCH   4   5
HETATM    5  C   UNL     2     -34.633  -7.278 -10.028  1.00  0.00     0.180 C 
BRANCH   5   6
HETATM    6  O   UNL     2     -34.979  -8.210 -11.025  1.00  0.00    -0.400 OA
HETATM    7  H   UNL     2     -34.550  -7.926 -11.856  1.00  0.00     0.209 HD
ENDBRANCH   5   6
ENDBRANCH   4   5
ENDBRANCH   1   4
BRANCH   1   8
HETATM    8  O   UNL     2     -35.044  -5.967 -12.970  1.00  0.00    -0.296 OA
HETATM    9  H   UNL     2     -34.388  -5.981 -13.710  1.00  0.00     0.232 HD
ENDBRANCH   1   8
TORSDOF 21
ENDMDL
