MODEL 1
REMARK VINA RESULT:      -6.0      0.000      0.000
REMARK  6 active torsions:
REMARK  status: ('A' for Active; 'I' for Inactive)
REMARK    1  A    between atoms: C_2  and  C_3 
REMARK    2  A    between atoms: C_2  and  C_9 
REMARK    3  A    between atoms: C_3  and  C_4 
REMARK    4  A    between atoms: C_4  and  C_5 
REMARK    5  A    between atoms: C_9  and  C_10 
REMARK    6  A    between atoms: C_10  and  O_11 
ROOT
HETATM    1  C   UNL     1     -24.119  -3.322 -10.960  1.00  0.00     0.010 C 
HETATM    2  C   UNL     1     -23.241  -2.618 -12.002  1.00  0.00    -0.016 C 
ENDROOT
BRANCH   2   3
HETATM    3  C   UNL     1     -21.761  -2.981 -11.731  1.00  0.00     0.008 C 
BRANCH   3   4
HETATM    4  C   UNL     1     -21.569  -4.361 -11.094  1.00  0.00     0.027 C 
BRANCH   4   5
HETATM    5  C   UNL     1     -20.453  -4.374 -10.086  1.00  0.00    -0.025 C 
HETATM    6  C   UNL     1     -20.578  -4.197  -8.757  1.00  0.00    -0.091 C 
HETATM    7  C   UNL     1     -21.868  -3.867  -8.055  1.00  0.00     0.042 C 
HETATM    8  C   UNL     1     -19.388  -4.310  -7.843  1.00  0.00     0.042 C 
ENDBRANCH   4   5
ENDBRANCH   3   4
ENDBRANCH   2   3
BRANCH   2   9
HETATM    9  C   UNL     1     -23.669  -2.985 -13.437  1.00  0.00     0.030 C 
BRANCH   9  10
HETATM   10  C   UNL     1     -23.603  -1.826 -14.426  1.00  0.00     0.164 C 
BRANCH  10  11
HETATM   11  O   UNL     1     -24.805  -1.066 -14.351  1.00  0.00    -0.401 OA
HETATM   12  H   UNL     1     -24.880  -0.550 -15.173  1.00  0.00     0.209 HD
ENDBRANCH  10  11
ENDBRANCH   9  10
ENDBRANCH   2   9
TORSDOF 6
ENDMDL
MODEL 2
REMARK VINA RESULT:      -5.9      2.012      2.641
REMARK  6 active torsions:
REMARK  status: ('A' for Active; 'I' for Inactive)
REMARK    1  A    between atoms: C_2  and  C_3 
REMARK    2  A    between atoms: C_2  and  C_9 
REMARK    3  A    between atoms: C_3  and  C_4 
REMARK    4  A    between atoms: C_4  and  C_5 
REMARK    5  A    between atoms: C_9  and  C_10 
REMARK    6  A    between atoms: C_10  and  O_11 
ROOT
HETATM    1  C   UNL     1     -22.968  -2.518 -11.859  1.00  0.00     0.010 C 
HETATM    2  C   UNL     1     -22.948  -4.042 -11.682  1.00  0.00    -0.016 C 
ENDROOT
BRANCH   2   3
HETATM    3  C   UNL     1     -21.482  -4.501 -11.499  1.00  0.00     0.008 C 
BRANCH   3   4
HETATM    4  C   UNL     1     -20.714  -3.714 -10.433  1.00  0.00     0.027 C 
BRANCH   4   5
HETATM    5  C   UNL     1     -20.128  -4.608  -9.375  1.00  0.00    -0.025 C 
HETATM    6  C   UNL     1     -20.478  -4.636  -8.074  1.00  0.00    -0.091 C 
HETATM    7  C   UNL     1     -21.471  -3.704  -7.433  1.00  0.00     0.042 C 
HETATM    8  C   UNL     1     -19.867  -5.635  -7.129  1.00  0.00     0.042 C 
ENDBRANCH   4   5
ENDBRANCH   3   4
ENDBRANCH   2   3
BRANCH   2   9
HETATM    9  C   UNL     1     -23.840  -4.482 -10.504  1.00  0.00     0.030 C 
BRANCH   9  10
HETATM   10  C   UNL     1     -24.405  -3.329  -9.681  1.00  0.00     0.164 C 
BRANCH  10  11
HETATM   11  O   UNL     1     -25.826  -3.324  -9.780  1.00  0.00    -0.401 OA
HETATM   12  H   UNL     1     -26.164  -2.681  -9.132  1.00  0.00     0.209 HD
ENDBRANCH  10  11
ENDBRANCH   9  10
ENDBRANCH   2   9
TORSDOF 6
ENDMDL
MODEL 3
REMARK VINA RESULT:      -5.7      1.487      2.278
REMARK  6 active torsions:
REMARK  status: ('A' for Active; 'I' for Inactive)
REMARK    1  A    between atoms: C_2  and  C_3 
REMARK    2  A    between atoms: C_2  and  C_9 
REMARK    3  A    between atoms: C_3  and  C_4 
REMARK    4  A    between atoms: C_4  and  C_5 
REMARK    5  A    between atoms: C_9  and  C_10 
REMARK    6  A    between atoms: C_10  and  O_11 
ROOT
HETATM    1  C   UNL     1     -21.345  -3.765 -11.624  1.00  0.00     0.010 C 
HETATM    2  C   UNL     1     -22.782  -4.298 -11.561  1.00  0.00    -0.016 C 
ENDROOT
BRANCH   2   3
HETATM    3  C   UNL     1     -23.109  -4.668 -10.095  1.00  0.00     0.008 C 
BRANCH   3   4
HETATM    4  C   UNL     1     -22.710  -3.594  -9.080  1.00  0.00     0.027 C 
BRANCH   4   5
HETATM    5  C   UNL     1     -22.245  -4.184  -7.777  1.00  0.00    -0.025 C 
HETATM    6  C   UNL     1     -20.966  -4.328  -7.379  1.00  0.00    -0.091 C 
HETATM    7  C   UNL     1     -19.764  -3.995  -8.222  1.00  0.00     0.042 C 
HETATM    8  C   UNL     1     -20.634  -4.865  -6.013  1.00  0.00     0.042 C 
ENDBRANCH   4   5
ENDBRANCH   3   4
ENDBRANCH   2   3
BRANCH   2   9
HETATM    9  C   UNL     1     -23.785  -3.277 -12.134  1.00  0.00     0.030 C 
BRANCH   9  10
HETATM   10  C   UNL     1     -23.425  -2.757 -13.522  1.00  0.00     0.164 C 
BRANCH  10  11
HETATM   11  O   UNL     1     -23.726  -3.750 -14.497  1.00  0.00    -0.401 OA
HETATM   12  H   UNL     1     -24.693  -3.857 -14.520  1.00  0.00     0.209 HD
ENDBRANCH  10  11
ENDBRANCH   9  10
ENDBRANCH   2   9
TORSDOF 6
ENDMDL
MODEL 4
REMARK VINA RESULT:      -5.7     11.267     13.212
REMARK  6 active torsions:
REMARK  status: ('A' for Active; 'I' for Inactive)
REMARK    1  A    between atoms: C_2  and  C_3 
REMARK    2  A    between atoms: C_2  and  C_9 
REMARK    3  A    between atoms: C_3  and  C_4 
REMARK    4  A    between atoms: C_4  and  C_5 
REMARK    5  A    between atoms: C_9  and  C_10 
REMARK    6  A    between atoms: C_10  and  O_11 
ROOT
HETATM    1  C   UNL     1     -36.699  -0.392 -12.443  1.00  0.00     0.010 C 
HETATM    2  C   UNL     1     -36.068  -1.336 -11.412  1.00  0.00    -0.016 C 
ENDROOT
BRANCH   2   3
HETATM    3  C   UNL     1     -34.548  -1.428 -11.689  1.00  0.00     0.008 C 
BRANCH   3   4
HETATM    4  C   UNL     1     -33.761  -2.146 -10.589  1.00  0.00     0.027 C 
BRANCH   4   5
HETATM    5  C   UNL     1     -34.114  -3.605 -10.494  1.00  0.00    -0.025 C 
HETATM    6  C   UNL     1     -33.499  -4.617 -11.136  1.00  0.00    -0.091 C 
HETATM    7  C   UNL     1     -32.390  -4.447 -12.139  1.00  0.00     0.042 C 
HETATM    8  C   UNL     1     -33.901  -6.047 -10.894  1.00  0.00     0.042 C 
ENDBRANCH   4   5
ENDBRANCH   3   4
ENDBRANCH   2   3
BRANCH   2   9
HETATM    9  C   UNL     1     -36.363  -0.872  -9.972  1.00  0.00     0.030 C 
BRANCH   9  10
HETATM   10  C   UNL     1     -37.125   0.446  -9.882  1.00  0.00     0.164 C 
BRANCH  10  11
HETATM   11  O   UNL     1     -36.382   1.374  -9.099  1.00  0.00    -0.401 OA
HETATM   12  H   UNL     1     -36.891   1.550  -8.288  1.00  0.00     0.209 HD
ENDBRANCH  10  11
ENDBRANCH   9  10
ENDBRANCH   2   9
TORSDOF 6
ENDMDL
MODEL 5
REMARK VINA RESULT:      -5.5      3.673      6.444
REMARK  6 active torsions:
REMARK  status: ('A' for Active; 'I' for Inactive)
REMARK    1  A    between atoms: C_2  and  C_3 
REMARK    2  A    between atoms: C_2  and  C_9 
REMARK    3  A    between atoms: C_3  and  C_4 
REMARK    4  A    between atoms: C_4  and  C_5 
REMARK    5  A    between atoms: C_9  and  C_10 
REMARK    6  A    between atoms: C_10  and  O_11 
ROOT
HETATM    1  C   UNL     1     -19.073  -4.551  -7.248  1.00  0.00     0.010 C 
HETATM    2  C   UNL     1     -20.394  -4.542  -6.469  1.00  0.00    -0.016 C 
ENDROOT
BRANCH   2   3
HETATM    3  C   UNL     1     -21.416  -3.667  -7.234  1.00  0.00     0.008 C 
BRANCH   3   4
HETATM    4  C   UNL     1     -22.267  -4.445  -8.241  1.00  0.00     0.027 C 
BRANCH   4   5
HETATM    5  C   UNL     1     -22.514  -3.665  -9.503  1.00  0.00    -0.025 C 
HETATM    6  C   UNL     1     -21.741  -3.669 -10.606  1.00  0.00    -0.091 C 
HETATM    7  C   UNL     1     -20.431  -4.399 -10.731  1.00  0.00     0.042 C 
HETATM    8  C   UNL     1     -22.141  -2.900 -11.836  1.00  0.00     0.042 C 
ENDBRANCH   4   5
ENDBRANCH   3   4
ENDBRANCH   2   3
BRANCH   2   9
HETATM    9  C   UNL     1     -20.920  -5.972  -6.239  1.00  0.00     0.030 C 
BRANCH   9  10
HETATM   10  C   UNL     1     -21.572  -6.189  -4.877  1.00  0.00     0.164 C 
BRANCH  10  11
HETATM   11  O   UNL     1     -22.989  -6.152  -5.014  1.00  0.00    -0.401 OA
HETATM   12  H   UNL     1     -23.342  -5.623  -4.278  1.00  0.00     0.209 HD
ENDBRANCH  10  11
ENDBRANCH   9  10
ENDBRANCH   2   9
TORSDOF 6
ENDMDL
MODEL 6
REMARK VINA RESULT:      -5.1      2.823      3.987
REMARK  6 active torsions:
REMARK  status: ('A' for Active; 'I' for Inactive)
REMARK    1  A    between atoms: C_2  and  C_3 
REMARK    2  A    between atoms: C_2  and  C_9 
REMARK    3  A    between atoms: C_3  and  C_4 
REMARK    4  A    between atoms: C_4  and  C_5 
REMARK    5  A    between atoms: C_9  and  C_10 
REMARK    6  A    between atoms: C_10  and  O_11 
ROOT
HETATM    1  C   UNL     1     -20.706  -4.036 -10.315  1.00  0.00     0.010 C 
HETATM    2  C   UNL     1     -21.979  -4.542  -9.625  1.00  0.00    -0.016 C 
ENDROOT
BRANCH   2   3
HETATM    3  C   UNL     1     -22.202  -3.722  -8.331  1.00  0.00     0.008 C 
BRANCH   3   4
HETATM    4  C   UNL     1     -22.471  -4.581  -7.093  1.00  0.00     0.027 C 
BRANCH   4   5
HETATM    5  C   UNL     1     -21.306  -5.467  -6.748  1.00  0.00    -0.025 C 
HETATM    6  C   UNL     1     -21.274  -6.399  -5.776  1.00  0.00    -0.091 C 
HETATM    7  C   UNL     1     -22.390  -6.656  -4.800  1.00  0.00     0.042 C 
HETATM    8  C   UNL     1     -20.068  -7.278  -5.582  1.00  0.00     0.042 C 
ENDBRANCH   4   5
ENDBRANCH   3   4
ENDBRANCH   2   3
BRANCH   2   9
HETATM    9  C   UNL     1     -23.196  -4.468 -10.569  1.00  0.00     0.030 C 
BRANCH   9  10
HETATM   10  C   UNL     1     -24.206  -3.385 -10.206  1.00  0.00     0.164 C 
BRANCH  10  11
HETATM   11  O   UNL     1     -25.388  -3.989  -9.688  1.00  0.00    -0.401 OA
HETATM   12  H   UNL     1     -26.127  -3.376  -9.849  1.00  0.00     0.209 HD
ENDBRANCH  10  11
ENDBRANCH   9  10
ENDBRANCH   2   9
TORSDOF 6
ENDMDL
MODEL 7
REMARK VINA RESULT:      -4.9      7.947     10.105
REMARK  6 active torsions:
REMARK  status: ('A' for Active; 'I' for Inactive)
REMARK    1  A    between atoms: C_2  and  C_3 
REMARK    2  A    between atoms: C_2  and  C_9 
REMARK    3  A    between atoms: C_3  and  C_4 
REMARK    4  A    between atoms: C_4  and  C_5 
REMARK    5  A    between atoms: C_9  and  C_10 
REMARK    6  A    between atoms: C_10  and  O_11 
ROOT
HETATM    1  C   UNL     1     -22.018  -6.126  -2.253  1.00  0.00     0.010 C 
HETATM    2  C   UNL     1     -21.379  -6.794  -3.478  1.00  0.00    -0.016 C 
ENDROOT
BRANCH   2   3
HETATM    3  C   UNL     1     -21.161  -8.294  -3.167  1.00  0.00     0.008 C 
BRANCH   3   4
HETATM    4  C   UNL     1     -21.042  -8.606  -1.673  1.00  0.00     0.027 C 
BRANCH   4   5
HETATM    5  C   UNL     1     -22.007  -9.672  -1.233  1.00  0.00    -0.025 C 
HETATM    6  C   UNL     1     -22.976  -9.535  -0.307  1.00  0.00    -0.091 C 
HETATM    7  C   UNL     1     -23.204  -8.298   0.518  1.00  0.00     0.042 C 
HETATM    8  C   UNL     1     -23.931 -10.661  -0.011  1.00  0.00     0.042 C 
ENDBRANCH   4   5
ENDBRANCH   3   4
ENDBRANCH   2   3
BRANCH   2   9
HETATM    9  C   UNL     1     -22.237  -6.586  -4.741  1.00  0.00     0.030 C 
BRANCH   9  10
HETATM   10  C   UNL     1     -21.471  -6.021  -5.933  1.00  0.00     0.164 C 
BRANCH  10  11
HETATM   11  O   UNL     1     -20.566  -7.003  -6.427  1.00  0.00    -0.401 OA
HETATM   12  H   UNL     1     -20.266  -7.535  -5.669  1.00  0.00     0.209 HD
ENDBRANCH  10  11
ENDBRANCH   9  10
ENDBRANCH   2   9
TORSDOF 6
ENDMDL
MODEL 8
REMARK VINA RESULT:      -4.9      2.803      3.784
REMARK  6 active torsions:
REMARK  status: ('A' for Active; 'I' for Inactive)
REMARK    1  A    between atoms: C_2  and  C_3 
REMARK    2  A    between atoms: C_2  and  C_9 
REMARK    3  A    between atoms: C_3  and  C_4 
REMARK    4  A    between atoms: C_4  and  C_5 
REMARK    5  A    between atoms: C_9  and  C_10 
REMARK    6  A    between atoms: C_10  and  O_11 
ROOT
HETATM    1  C   UNL     1     -23.090  -4.406  -9.342  1.00  0.00     0.010 C 
HETATM    2  C   UNL     1     -21.677  -3.828  -9.486  1.00  0.00    -0.016 C 
ENDROOT
BRANCH   2   3
HETATM    3  C   UNL     1     -20.725  -4.605  -8.545  1.00  0.00     0.008 C 
BRANCH   3   4
HETATM    4  C   UNL     1     -21.421  -5.211  -7.323  1.00  0.00     0.027 C 
BRANCH   4   5
HETATM    5  C   UNL     1     -20.586  -6.270  -6.657  1.00  0.00    -0.025 C 
HETATM    6  C   UNL     1     -20.873  -6.901  -5.501  1.00  0.00    -0.091 C 
HETATM    7  C   UNL     1     -22.055  -6.586  -4.625  1.00  0.00     0.042 C 
HETATM    8  C   UNL     1     -19.990  -8.001  -4.978  1.00  0.00     0.042 C 
ENDBRANCH   4   5
ENDBRANCH   3   4
ENDBRANCH   2   3
BRANCH   2   9
HETATM    9  C   UNL     1     -21.199  -3.872 -10.951  1.00  0.00     0.030 C 
BRANCH   9  10
HETATM   10  C   UNL     1     -21.991  -2.975 -11.896  1.00  0.00     0.164 C 
BRANCH  10  11
HETATM   11  O   UNL     1     -21.962  -3.523 -13.210  1.00  0.00    -0.401 OA
HETATM   12  H   UNL     1     -21.702  -4.458 -13.134  1.00  0.00     0.209 HD
ENDBRANCH  10  11
ENDBRANCH   9  10
ENDBRANCH   2   9
TORSDOF 6
ENDMDL
MODEL 9
REMARK VINA RESULT:      -4.8      8.668     10.463
REMARK  6 active torsions:
REMARK  status: ('A' for Active; 'I' for Inactive)
REMARK    1  A    between atoms: C_2  and  C_3 
REMARK    2  A    between atoms: C_2  and  C_9 
REMARK    3  A    between atoms: C_3  and  C_4 
REMARK    4  A    between atoms: C_4  and  C_5 
REMARK    5  A    between atoms: C_9  and  C_10 
REMARK    6  A    between atoms: C_10  and  O_11 
ROOT
HETATM    1  C   UNL     1     -30.779  -6.617 -17.489  1.00  0.00     0.010 C 
HETATM    2  C   UNL     1     -29.266  -6.857 -17.574  1.00  0.00    -0.016 C 
ENDROOT
BRANCH   2   3
HETATM    3  C   UNL     1     -28.734  -6.213 -18.877  1.00  0.00     0.008 C 
BRANCH   3   4
HETATM    4  C   UNL     1     -27.212  -6.057 -18.914  1.00  0.00     0.027 C 
BRANCH   4   5
HETATM    5  C   UNL     1     -26.603  -6.686 -20.137  1.00  0.00    -0.025 C 
HETATM    6  C   UNL     1     -25.359  -7.194 -20.236  1.00  0.00    -0.091 C 
HETATM    7  C   UNL     1     -24.323  -7.141 -19.146  1.00  0.00     0.042 C 
HETATM    8  C   UNL     1     -24.895  -7.868 -21.499  1.00  0.00     0.042 C 
ENDBRANCH   4   5
ENDBRANCH   3   4
ENDBRANCH   2   3
BRANCH   2   9
HETATM    9  C   UNL     1     -28.541  -6.314 -16.327  1.00  0.00     0.030 C 
BRANCH   9  10
HETATM   10  C   UNL     1     -27.907  -7.391 -15.452  1.00  0.00     0.164 C 
BRANCH  10  11
HETATM   11  O   UNL     1     -26.493  -7.371 -15.621  1.00  0.00    -0.401 OA
HETATM   12  H   UNL     1     -26.101  -7.070 -14.783  1.00  0.00     0.209 HD
ENDBRANCH  10  11
ENDBRANCH   9  10
ENDBRANCH   2   9
TORSDOF 6
ENDMDL
