MODEL 1
REMARK VINA RESULT:      -6.6      0.000      0.000
REMARK  18 active torsions:
REMARK  status: ('A' for Active; 'I' for Inactive)
REMARK    1  A    between atoms: C_2  and  C_3 
REMARK    2  A    between atoms: C_3  and  C_4 
REMARK    3  A    between atoms: C_4  and  C_5 
REMARK    4  A    between atoms: C_5  and  C_6 
REMARK    5  A    between atoms: C_6  and  C_7 
REMARK    6  A    between atoms: C_7  and  C_8 
REMARK    7  A    between atoms: C_8  and  C_9 
REMARK    8  A    between atoms: C_9  and  C_10 
REMARK    9  A    between atoms: C_10  and  C_11 
REMARK   10  A    between atoms: C_11  and  C_12 
REMARK   11  A    between atoms: C_12  and  C_13 
REMARK   12  A    between atoms: C_13  and  C_14 
REMARK   13  A    between atoms: C_14  and  C_15 
REMARK   14  A    between atoms: C_15  and  C_16 
REMARK   15  A    between atoms: C_16  and  O_17 
REMARK   16  A    between atoms: O_17  and  C_18 
REMARK   17  A    between atoms: C_18  and  C_20 
REMARK   18  A    between atoms: C_20  and  O_22 
ROOT
HETATM    1  C   UNL     1     -20.181  -6.146  -6.203  1.00  0.00     0.000 C 
ENDROOT
BRANCH   1   2
HETATM    2  C   UNL     1     -21.455  -5.835  -5.435  1.00  0.00     0.000 C 
BRANCH   2   3
HETATM    3  C   UNL     1     -22.076  -7.114  -4.898  1.00  0.00     0.000 C 
BRANCH   3   4
HETATM    4  C   UNL     1     -21.461  -7.477  -3.555  1.00  0.00     0.000 C 
BRANCH   4   5
HETATM    5  C   UNL     1     -21.396  -6.252  -2.656  1.00  0.00     0.000 C 
BRANCH   5   6
HETATM    6  C   UNL     1     -22.320  -6.424  -1.461  1.00  0.00     0.000 C 
BRANCH   6   7
HETATM    7  C   UNL     1     -21.895  -7.633  -0.639  1.00  0.00     0.000 C 
BRANCH   7   8
HETATM    8  C   UNL     1     -22.979  -7.995   0.365  1.00  0.00     0.000 C 
BRANCH   8   9
HETATM    9  C   UNL     1     -23.446  -9.429   0.148  1.00  0.00     0.000 C 
BRANCH   9  10
HETATM   10  C   UNL     1     -22.479 -10.169  -0.767  1.00  0.00    -0.000 C 
BRANCH  10  11
HETATM   11  C   UNL     1     -23.218 -11.167  -1.649  1.00  0.00    -0.005 C 
HETATM   12  C   UNL     1     -22.855 -10.971  -3.108  1.00  0.00     0.005 C 
ENDBRANCH  10  11
ENDBRANCH   9  10
ENDBRANCH   8   9
ENDBRANCH   7   8
ENDBRANCH   6   7
ENDBRANCH   5   6
ENDBRANCH   4   5
ENDBRANCH   3   4
ENDBRANCH   2   3
ENDBRANCH   1   2
BRANCH   1  13
HETATM   13  C   UNL     1     -20.202  -5.477  -7.574  1.00  0.00     0.000 C 
BRANCH  13  14
HETATM   14  C   UNL     1     -21.500  -4.706  -7.786  1.00  0.00     0.002 C 
BRANCH  14  15
HETATM   15  C   UNL     1     -21.541  -4.057  -9.165  1.00  0.00     0.027 C 
BRANCH  15  16
HETATM   16  C   UNL     1     -22.798  -4.456  -9.917  1.00  0.00     0.178 C 
BRANCH  16  17
HETATM   17  O   UNL     1     -22.826  -3.799 -11.191  1.00  0.00    -0.319 OA
BRANCH  17  18
HETATM   18  C   UNL     1     -24.079  -3.406 -11.570  1.00  0.00     0.287 C 
HETATM   19  O   UNL     1     -25.024  -3.242 -10.818  1.00  0.00    -0.262 OA
BRANCH  18  20
HETATM   20  C   UNL     1     -24.162  -3.211 -13.090  1.00  0.00     0.213 C 
HETATM   21  C   UNL     1     -22.865  -2.651 -13.645  1.00  0.00     0.050 C 
BRANCH  20  22
HETATM   22  O   UNL     1     -24.433  -4.440 -13.761  1.00  0.00    -0.386 OA
HETATM   23  H   UNL     1     -25.186  -4.273 -14.361  1.00  0.00     0.210 HD
ENDBRANCH  20  22
ENDBRANCH  18  20
ENDBRANCH  17  18
ENDBRANCH  16  17
ENDBRANCH  15  16
ENDBRANCH  14  15
ENDBRANCH  13  14
ENDBRANCH   1  13
TORSDOF 18
ENDMDL
MODEL 2
REMARK VINA RESULT:      -6.5      1.444      2.054
REMARK  18 active torsions:
REMARK  status: ('A' for Active; 'I' for Inactive)
REMARK    1  A    between atoms: C_2  and  C_3 
REMARK    2  A    between atoms: C_3  and  C_4 
REMARK    3  A    between atoms: C_4  and  C_5 
REMARK    4  A    between atoms: C_5  and  C_6 
REMARK    5  A    between atoms: C_6  and  C_7 
REMARK    6  A    between atoms: C_7  and  C_8 
REMARK    7  A    between atoms: C_8  and  C_9 
REMARK    8  A    between atoms: C_9  and  C_10 
REMARK    9  A    between atoms: C_10  and  C_11 
REMARK   10  A    between atoms: C_11  and  C_12 
REMARK   11  A    between atoms: C_12  and  C_13 
REMARK   12  A    between atoms: C_13  and  C_14 
REMARK   13  A    between atoms: C_14  and  C_15 
REMARK   14  A    between atoms: C_15  and  C_16 
REMARK   15  A    between atoms: C_16  and  O_17 
REMARK   16  A    between atoms: O_17  and  C_18 
REMARK   17  A    between atoms: C_18  and  C_20 
REMARK   18  A    between atoms: C_20  and  O_22 
ROOT
HETATM    1  C   UNL     1     -19.779  -4.632  -6.655  1.00  0.00     0.000 C 
ENDROOT
BRANCH   1   2
HETATM    2  C   UNL     1     -20.550  -5.147  -5.452  1.00  0.00     0.000 C 
BRANCH   2   3
HETATM    3  C   UNL     1     -21.725  -6.002  -5.902  1.00  0.00     0.000 C 
BRANCH   3   4
HETATM    4  C   UNL     1     -22.333  -6.731  -4.713  1.00  0.00     0.000 C 
BRANCH   4   5
HETATM    5  C   UNL     1     -21.400  -7.833  -4.235  1.00  0.00     0.000 C 
BRANCH   5   6
HETATM    6  C   UNL     1     -20.991  -7.589  -2.792  1.00  0.00     0.000 C 
BRANCH   6   7
HETATM    7  C   UNL     1     -21.750  -6.398  -2.224  1.00  0.00     0.000 C 
BRANCH   7   8
HETATM    8  C   UNL     1     -22.250  -6.711  -0.822  1.00  0.00     0.000 C 
BRANCH   8   9
HETATM    9  C   UNL     1     -22.521  -8.203  -0.676  1.00  0.00     0.000 C 
BRANCH   9  10
HETATM   10  C   UNL     1     -22.513  -8.603   0.794  1.00  0.00    -0.000 C 
BRANCH  10  11
HETATM   11  C   UNL     1     -21.090  -8.652   1.337  1.00  0.00    -0.005 C 
HETATM   12  C   UNL     1     -20.581 -10.080   1.388  1.00  0.00     0.005 C 
ENDBRANCH  10  11
ENDBRANCH   9  10
ENDBRANCH   8   9
ENDBRANCH   7   8
ENDBRANCH   6   7
ENDBRANCH   5   6
ENDBRANCH   4   5
ENDBRANCH   3   4
ENDBRANCH   2   3
ENDBRANCH   1   2
BRANCH   1  13
HETATM   13  C   UNL     1     -19.898  -5.602  -7.827  1.00  0.00     0.000 C 
BRANCH  13  14
HETATM   14  C   UNL     1     -20.281  -4.868  -9.107  1.00  0.00     0.002 C 
BRANCH  14  15
HETATM   15  C   UNL     1     -21.211  -3.696  -8.816  1.00  0.00     0.027 C 
BRANCH  15  16
HETATM   16  C   UNL     1     -22.633  -4.008  -9.250  1.00  0.00     0.178 C 
BRANCH  16  17
HETATM   17  O   UNL     1     -23.109  -2.972 -10.119  1.00  0.00    -0.319 OA
BRANCH  17  18
HETATM   18  C   UNL     1     -24.219  -3.331 -10.833  1.00  0.00     0.287 C 
HETATM   19  O   UNL     1     -25.359  -3.348 -10.402  1.00  0.00    -0.262 OA
BRANCH  18  20
HETATM   20  C   UNL     1     -23.848  -3.738 -12.265  1.00  0.00     0.213 C 
HETATM   21  C   UNL     1     -22.616  -2.994 -12.748  1.00  0.00     0.050 C 
BRANCH  20  22
HETATM   22  O   UNL     1     -23.581  -5.136 -12.358  1.00  0.00    -0.386 OA
HETATM   23  H   UNL     1     -23.436  -5.334 -13.305  1.00  0.00     0.210 HD
ENDBRANCH  20  22
ENDBRANCH  18  20
ENDBRANCH  17  18
ENDBRANCH  16  17
ENDBRANCH  15  16
ENDBRANCH  14  15
ENDBRANCH  13  14
ENDBRANCH   1  13
TORSDOF 18
ENDMDL
MODEL 3
REMARK VINA RESULT:      -6.2      1.511      2.059
REMARK  18 active torsions:
REMARK  status: ('A' for Active; 'I' for Inactive)
REMARK    1  A    between atoms: C_2  and  C_3 
REMARK    2  A    between atoms: C_3  and  C_4 
REMARK    3  A    between atoms: C_4  and  C_5 
REMARK    4  A    between atoms: C_5  and  C_6 
REMARK    5  A    between atoms: C_6  and  C_7 
REMARK    6  A    between atoms: C_7  and  C_8 
REMARK    7  A    between atoms: C_8  and  C_9 
REMARK    8  A    between atoms: C_9  and  C_10 
REMARK    9  A    between atoms: C_10  and  C_11 
REMARK   10  A    between atoms: C_11  and  C_12 
REMARK   11  A    between atoms: C_12  and  C_13 
REMARK   12  A    between atoms: C_13  and  C_14 
REMARK   13  A    between atoms: C_14  and  C_15 
REMARK   14  A    between atoms: C_15  and  C_16 
REMARK   15  A    between atoms: C_16  and  O_17 
REMARK   16  A    between atoms: O_17  and  C_18 
REMARK   17  A    between atoms: C_18  and  C_20 
REMARK   18  A    between atoms: C_20  and  O_22 
ROOT
HETATM    1  C   UNL     1     -21.668  -5.445  -5.777  1.00  0.00     0.000 C 
ENDROOT
BRANCH   1   2
HETATM    2  C   UNL     1     -22.162  -6.722  -5.119  1.00  0.00     0.000 C 
BRANCH   2   3
HETATM    3  C   UNL     1     -20.988  -7.554  -4.627  1.00  0.00     0.000 C 
BRANCH   3   4
HETATM    4  C   UNL     1     -21.208  -7.976  -3.183  1.00  0.00     0.000 C 
BRANCH   4   5
HETATM    5  C   UNL     1     -21.183  -6.762  -2.267  1.00  0.00     0.000 C 
BRANCH   5   6
HETATM    6  C   UNL     1     -22.354  -6.806  -1.299  1.00  0.00     0.000 C 
BRANCH   6   7
HETATM    7  C   UNL     1     -22.012  -7.676  -0.099  1.00  0.00     0.000 C 
BRANCH   7   8
HETATM    8  C   UNL     1     -23.084  -8.734   0.110  1.00  0.00     0.000 C 
BRANCH   8   9
HETATM    9  C   UNL     1     -22.452 -10.115   0.223  1.00  0.00     0.000 C 
BRANCH   9  10
HETATM   10  C   UNL     1     -20.993  -9.999   0.645  1.00  0.00    -0.000 C 
BRANCH  10  11
HETATM   11  C   UNL     1     -20.160 -11.119   0.037  1.00  0.00    -0.005 C 
HETATM   12  C   UNL     1     -20.251 -11.101  -1.478  1.00  0.00     0.005 C 
ENDBRANCH  10  11
ENDBRANCH   9  10
ENDBRANCH   8   9
ENDBRANCH   7   8
ENDBRANCH   6   7
ENDBRANCH   5   6
ENDBRANCH   4   5
ENDBRANCH   3   4
ENDBRANCH   2   3
ENDBRANCH   1   2
BRANCH   1  13
HETATM   13  C   UNL     1     -20.163  -5.512  -6.019  1.00  0.00     0.000 C 
BRANCH  13  14
HETATM   14  C   UNL     1     -19.748  -4.574  -7.146  1.00  0.00     0.002 C 
BRANCH  14  15
HETATM   15  C   UNL     1     -20.128  -5.142  -8.509  1.00  0.00     0.027 C 
BRANCH  15  16
HETATM   16  C   UNL     1     -20.914  -4.128  -9.322  1.00  0.00     0.178 C 
BRANCH  16  17
HETATM   17  O   UNL     1     -22.120  -4.732  -9.807  1.00  0.00    -0.319 OA
BRANCH  17  18
HETATM   18  C   UNL     1     -23.253  -4.095  -9.382  1.00  0.00     0.287 C 
HETATM   19  O   UNL     1     -23.686  -4.112  -8.243  1.00  0.00    -0.262 OA
BRANCH  18  20
HETATM   20  C   UNL     1     -23.941  -3.358 -10.539  1.00  0.00     0.213 C 
HETATM   21  C   UNL     1     -23.687  -4.054 -11.865  1.00  0.00     0.050 C 
BRANCH  20  22
HETATM   22  O   UNL     1     -25.352  -3.282 -10.346  1.00  0.00    -0.386 OA
HETATM   23  H   UNL     1     -25.602  -2.344 -10.459  1.00  0.00     0.210 HD
ENDBRANCH  20  22
ENDBRANCH  18  20
ENDBRANCH  17  18
ENDBRANCH  16  17
ENDBRANCH  15  16
ENDBRANCH  14  15
ENDBRANCH  13  14
ENDBRANCH   1  13
TORSDOF 18
ENDMDL
MODEL 4
REMARK VINA RESULT:      -6.1      1.429      1.819
REMARK  18 active torsions:
REMARK  status: ('A' for Active; 'I' for Inactive)
REMARK    1  A    between atoms: C_2  and  C_3 
REMARK    2  A    between atoms: C_3  and  C_4 
REMARK    3  A    between atoms: C_4  and  C_5 
REMARK    4  A    between atoms: C_5  and  C_6 
REMARK    5  A    between atoms: C_6  and  C_7 
REMARK    6  A    between atoms: C_7  and  C_8 
REMARK    7  A    between atoms: C_8  and  C_9 
REMARK    8  A    between atoms: C_9  and  C_10 
REMARK    9  A    between atoms: C_10  and  C_11 
REMARK   10  A    between atoms: C_11  and  C_12 
REMARK   11  A    between atoms: C_12  and  C_13 
REMARK   12  A    between atoms: C_13  and  C_14 
REMARK   13  A    between atoms: C_14  and  C_15 
REMARK   14  A    between atoms: C_15  and  C_16 
REMARK   15  A    between atoms: C_16  and  O_17 
REMARK   16  A    between atoms: O_17  and  C_18 
REMARK   17  A    between atoms: C_18  and  C_20 
REMARK   18  A    between atoms: C_20  and  O_22 
ROOT
HETATM    1  C   UNL     1     -20.870  -5.898  -6.811  1.00  0.00     0.000 C 
ENDROOT
BRANCH   1   2
HETATM    2  C   UNL     1     -20.638  -5.679  -5.326  1.00  0.00     0.000 C 
BRANCH   2   3
HETATM    3  C   UNL     1     -20.979  -6.938  -4.544  1.00  0.00     0.000 C 
BRANCH   3   4
HETATM    4  C   UNL     1     -22.200  -6.701  -3.668  1.00  0.00     0.000 C 
BRANCH   4   5
HETATM    5  C   UNL     1     -21.773  -6.341  -2.253  1.00  0.00     0.000 C 
BRANCH   5   6
HETATM    6  C   UNL     1     -21.434  -7.598  -1.469  1.00  0.00     0.000 C 
BRANCH   6   7
HETATM    7  C   UNL     1     -22.072  -7.545  -0.088  1.00  0.00     0.000 C 
BRANCH   7   8
HETATM    8  C   UNL     1     -23.257  -8.496  -0.017  1.00  0.00     0.000 C 
BRANCH   8   9
HETATM    9  C   UNL     1     -22.782  -9.942  -0.084  1.00  0.00     0.000 C 
BRANCH   9  10
HETATM   10  C   UNL     1     -23.971 -10.893  -0.063  1.00  0.00    -0.000 C 
BRANCH  10  11
HETATM   11  C   UNL     1     -23.987 -11.774  -1.306  1.00  0.00    -0.005 C 
HETATM   12  C   UNL     1     -23.882 -13.240  -0.931  1.00  0.00     0.005 C 
ENDBRANCH  10  11
ENDBRANCH   9  10
ENDBRANCH   8   9
ENDBRANCH   7   8
ENDBRANCH   6   7
ENDBRANCH   5   6
ENDBRANCH   4   5
ENDBRANCH   3   4
ENDBRANCH   2   3
ENDBRANCH   1   2
BRANCH   1  13
HETATM   13  C   UNL     1     -21.892  -4.901  -7.349  1.00  0.00     0.000 C 
BRANCH  13  14
HETATM   14  C   UNL     1     -21.201  -3.712  -8.007  1.00  0.00     0.002 C 
BRANCH  14  15
HETATM   15  C   UNL     1     -20.139  -4.168  -9.002  1.00  0.00     0.027 C 
BRANCH  15  16
HETATM   16  C   UNL     1     -20.747  -4.417 -10.371  1.00  0.00     0.178 C 
BRANCH  16  17
HETATM   17  O   UNL     1     -21.192  -3.175 -10.933  1.00  0.00    -0.319 OA
BRANCH  17  18
HETATM   18  C   UNL     1     -22.413  -3.262 -11.541  1.00  0.00     0.287 C 
HETATM   19  O   UNL     1     -22.951  -2.370 -12.173  1.00  0.00    -0.262 OA
BRANCH  18  20
HETATM   20  C   UNL     1     -23.051  -4.639 -11.309  1.00  0.00     0.213 C 
HETATM   21  C   UNL     1     -24.203  -4.554 -10.325  1.00  0.00     0.050 C 
BRANCH  20  22
HETATM   22  O   UNL     1     -23.550  -5.195 -12.524  1.00  0.00    -0.386 OA
HETATM   23  H   UNL     1     -23.786  -4.443 -13.102  1.00  0.00     0.210 HD
ENDBRANCH  20  22
ENDBRANCH  18  20
ENDBRANCH  17  18
ENDBRANCH  16  17
ENDBRANCH  15  16
ENDBRANCH  14  15
ENDBRANCH  13  14
ENDBRANCH   1  13
TORSDOF 18
ENDMDL
MODEL 5
REMARK VINA RESULT:      -6.1      1.555      2.632
REMARK  18 active torsions:
REMARK  status: ('A' for Active; 'I' for Inactive)
REMARK    1  A    between atoms: C_2  and  C_3 
REMARK    2  A    between atoms: C_3  and  C_4 
REMARK    3  A    between atoms: C_4  and  C_5 
REMARK    4  A    between atoms: C_5  and  C_6 
REMARK    5  A    between atoms: C_6  and  C_7 
REMARK    6  A    between atoms: C_7  and  C_8 
REMARK    7  A    between atoms: C_8  and  C_9 
REMARK    8  A    between atoms: C_9  and  C_10 
REMARK    9  A    between atoms: C_10  and  C_11 
REMARK   10  A    between atoms: C_11  and  C_12 
REMARK   11  A    between atoms: C_12  and  C_13 
REMARK   12  A    between atoms: C_13  and  C_14 
REMARK   13  A    between atoms: C_14  and  C_15 
REMARK   14  A    between atoms: C_15  and  C_16 
REMARK   15  A    between atoms: C_16  and  O_17 
REMARK   16  A    between atoms: O_17  and  C_18 
REMARK   17  A    between atoms: C_18  and  C_20 
REMARK   18  A    between atoms: C_20  and  O_22 
ROOT
HETATM    1  C   UNL     1     -20.832  -3.973  -7.040  1.00  0.00     0.000 C 
ENDROOT
BRANCH   1   2
HETATM    2  C   UNL     1     -20.803  -4.727  -5.721  1.00  0.00     0.000 C 
BRANCH   2   3
HETATM    3  C   UNL     1     -20.266  -6.135  -5.926  1.00  0.00     0.000 C 
BRANCH   3   4
HETATM    4  C   UNL     1     -20.750  -7.052  -4.813  1.00  0.00     0.000 C 
BRANCH   4   5
HETATM    5  C   UNL     1     -21.083  -8.428  -5.370  1.00  0.00     0.000 C 
BRANCH   5   6
HETATM    6  C   UNL     1     -21.002  -9.474  -4.270  1.00  0.00     0.000 C 
BRANCH   6   7
HETATM    7  C   UNL     1     -19.940  -9.087  -3.252  1.00  0.00     0.000 C 
BRANCH   7   8
HETATM    8  C   UNL     1     -20.405  -9.431  -1.845  1.00  0.00     0.000 C 
BRANCH   8   9
HETATM    9  C   UNL     1     -21.900  -9.172  -1.703  1.00  0.00     0.000 C 
BRANCH   9  10
HETATM   10  C   UNL     1     -22.236  -8.772  -0.273  1.00  0.00    -0.000 C 
BRANCH  10  11
HETATM   11  C   UNL     1     -22.302  -7.256  -0.133  1.00  0.00    -0.005 C 
HETATM   12  C   UNL     1     -22.311  -6.587  -1.494  1.00  0.00     0.005 C 
ENDBRANCH  10  11
ENDBRANCH   9  10
ENDBRANCH   8   9
ENDBRANCH   7   8
ENDBRANCH   6   7
ENDBRANCH   5   6
ENDBRANCH   4   5
ENDBRANCH   3   4
ENDBRANCH   2   3
ENDBRANCH   1   2
BRANCH   1  13
HETATM   13  C   UNL     1     -20.695  -4.938  -8.214  1.00  0.00     0.000 C 
BRANCH  13  14
HETATM   14  C   UNL     1     -20.405  -4.186  -9.508  1.00  0.00     0.002 C 
BRANCH  14  15
HETATM   15  C   UNL     1     -21.451  -4.493 -10.574  1.00  0.00     0.027 C 
BRANCH  15  16
HETATM   16  C   UNL     1     -22.382  -3.311 -10.777  1.00  0.00     0.178 C 
BRANCH  16  17
HETATM   17  O   UNL     1     -22.401  -2.946 -12.164  1.00  0.00    -0.319 OA
BRANCH  17  18
HETATM   18  C   UNL     1     -23.640  -2.582 -12.612  1.00  0.00     0.287 C 
HETATM   19  O   UNL     1     -24.697  -2.887 -12.087  1.00  0.00    -0.262 OA
BRANCH  18  20
HETATM   20  C   UNL     1     -23.541  -1.742 -13.892  1.00  0.00     0.213 C 
HETATM   21  C   UNL     1     -22.943  -2.545 -15.034  1.00  0.00     0.050 C 
BRANCH  20  22
HETATM   22  O   UNL     1     -24.822  -1.272 -14.310  1.00  0.00    -0.386 OA
HETATM   23  H   UNL     1     -24.772  -0.296 -14.327  1.00  0.00     0.210 HD
ENDBRANCH  20  22
ENDBRANCH  18  20
ENDBRANCH  17  18
ENDBRANCH  16  17
ENDBRANCH  15  16
ENDBRANCH  14  15
ENDBRANCH  13  14
ENDBRANCH   1  13
TORSDOF 18
ENDMDL
MODEL 6
REMARK VINA RESULT:      -6.0      4.614     10.274
REMARK  18 active torsions:
REMARK  status: ('A' for Active; 'I' for Inactive)
REMARK    1  A    between atoms: C_2  and  C_3 
REMARK    2  A    between atoms: C_3  and  C_4 
REMARK    3  A    between atoms: C_4  and  C_5 
REMARK    4  A    between atoms: C_5  and  C_6 
REMARK    5  A    between atoms: C_6  and  C_7 
REMARK    6  A    between atoms: C_7  and  C_8 
REMARK    7  A    between atoms: C_8  and  C_9 
REMARK    8  A    between atoms: C_9  and  C_10 
REMARK    9  A    between atoms: C_10  and  C_11 
REMARK   10  A    between atoms: C_11  and  C_12 
REMARK   11  A    between atoms: C_12  and  C_13 
REMARK   12  A    between atoms: C_13  and  C_14 
REMARK   13  A    between atoms: C_14  and  C_15 
REMARK   14  A    between atoms: C_15  and  C_16 
REMARK   15  A    between atoms: C_16  and  O_17 
REMARK   16  A    between atoms: O_17  and  C_18 
REMARK   17  A    between atoms: C_18  and  C_20 
REMARK   18  A    between atoms: C_20  and  O_22 
ROOT
HETATM    1  C   UNL     1     -21.542  -7.506  -5.577  1.00  0.00     0.000 C 
ENDROOT
BRANCH   1   2
HETATM    2  C   UNL     1     -20.328  -6.600  -5.456  1.00  0.00     0.000 C 
BRANCH   2   3
HETATM    3  C   UNL     1     -20.761  -5.146  -5.342  1.00  0.00     0.000 C 
BRANCH   3   4
HETATM    4  C   UNL     1     -20.465  -4.404  -6.636  1.00  0.00     0.000 C 
BRANCH   4   5
HETATM    5  C   UNL     1     -21.748  -4.177  -7.421  1.00  0.00     0.000 C 
BRANCH   5   6
HETATM    6  C   UNL     1     -21.632  -4.785  -8.809  1.00  0.00     0.000 C 
BRANCH   6   7
HETATM    7  C   UNL     1     -20.340  -4.335  -9.474  1.00  0.00     0.000 C 
BRANCH   7   8
HETATM    8  C   UNL     1     -20.574  -4.058 -10.952  1.00  0.00     0.000 C 
BRANCH   8   9
HETATM    9  C   UNL     1     -21.761  -3.121 -11.134  1.00  0.00     0.000 C 
BRANCH   9  10
HETATM   10  C   UNL     1     -22.676  -3.633 -12.239  1.00  0.00    -0.000 C 
BRANCH  10  11
HETATM   11  C   UNL     1     -24.133  -3.305 -11.935  1.00  0.00    -0.005 C 
HETATM   12  C   UNL     1     -24.390  -3.322 -10.440  1.00  0.00     0.005 C 
ENDBRANCH  10  11
ENDBRANCH   9  10
ENDBRANCH   8   9
ENDBRANCH   7   8
ENDBRANCH   6   7
ENDBRANCH   5   6
ENDBRANCH   4   5
ENDBRANCH   3   4
ENDBRANCH   2   3
ENDBRANCH   1   2
BRANCH   1  13
HETATM   13  C   UNL     1     -21.697  -8.367  -4.328  1.00  0.00     0.000 C 
BRANCH  13  14
HETATM   14  C   UNL     1     -20.669  -7.985  -3.270  1.00  0.00     0.002 C 
BRANCH  14  15
HETATM   15  C   UNL     1     -20.175  -9.210  -2.508  1.00  0.00     0.027 C 
BRANCH  15  16
HETATM   16  C   UNL     1     -21.337 -10.082  -2.068  1.00  0.00     0.178 C 
BRANCH  16  17
HETATM   17  O   UNL     1     -21.523  -9.957  -0.651  1.00  0.00    -0.319 OA
BRANCH  17  18
HETATM   18  C   UNL     1     -22.792  -9.589  -0.302  1.00  0.00     0.287 C 
HETATM   19  O   UNL     1     -23.798 -10.247  -0.503  1.00  0.00    -0.262 OA
BRANCH  18  20
HETATM   20  C   UNL     1     -22.803  -8.209   0.370  1.00  0.00     0.213 C 
HETATM   21  C   UNL     1     -21.564  -8.002   1.222  1.00  0.00     0.050 C 
BRANCH  20  22
HETATM   22  O   UNL     1     -22.856  -7.159  -0.593  1.00  0.00    -0.386 OA
HETATM   23  H   UNL     1     -23.561  -6.546  -0.304  1.00  0.00     0.210 HD
ENDBRANCH  20  22
ENDBRANCH  18  20
ENDBRANCH  17  18
ENDBRANCH  16  17
ENDBRANCH  15  16
ENDBRANCH  14  15
ENDBRANCH  13  14
ENDBRANCH   1  13
TORSDOF 18
ENDMDL
MODEL 7
REMARK VINA RESULT:      -6.0      1.264      1.907
REMARK  18 active torsions:
REMARK  status: ('A' for Active; 'I' for Inactive)
REMARK    1  A    between atoms: C_2  and  C_3 
REMARK    2  A    between atoms: C_3  and  C_4 
REMARK    3  A    between atoms: C_4  and  C_5 
REMARK    4  A    between atoms: C_5  and  C_6 
REMARK    5  A    between atoms: C_6  and  C_7 
REMARK    6  A    between atoms: C_7  and  C_8 
REMARK    7  A    between atoms: C_8  and  C_9 
REMARK    8  A    between atoms: C_9  and  C_10 
REMARK    9  A    between atoms: C_10  and  C_11 
REMARK   10  A    between atoms: C_11  and  C_12 
REMARK   11  A    between atoms: C_12  and  C_13 
REMARK   12  A    between atoms: C_13  and  C_14 
REMARK   13  A    between atoms: C_14  and  C_15 
REMARK   14  A    between atoms: C_15  and  C_16 
REMARK   15  A    between atoms: C_16  and  O_17 
REMARK   16  A    between atoms: O_17  and  C_18 
REMARK   17  A    between atoms: C_18  and  C_20 
REMARK   18  A    between atoms: C_20  and  O_22 
ROOT
HETATM    1  C   UNL     1     -20.492  -6.783  -5.790  1.00  0.00     0.000 C 
ENDROOT
BRANCH   1   2
HETATM    2  C   UNL     1     -20.786  -7.343  -4.409  1.00  0.00     0.000 C 
BRANCH   2   3
HETATM    3  C   UNL     1     -21.992  -6.645  -3.800  1.00  0.00     0.000 C 
BRANCH   3   4
HETATM    4  C   UNL     1     -21.668  -6.160  -2.396  1.00  0.00     0.000 C 
BRANCH   4   5
HETATM    5  C   UNL     1     -22.088  -7.199  -1.367  1.00  0.00     0.000 C 
BRANCH   5   6
HETATM    6  C   UNL     1     -20.872  -7.952  -0.852  1.00  0.00     0.000 C 
BRANCH   6   7
HETATM    7  C   UNL     1     -21.261  -9.369  -0.456  1.00  0.00     0.000 C 
BRANCH   7   8
HETATM    8  C   UNL     1     -22.723  -9.628  -0.786  1.00  0.00     0.000 C 
BRANCH   8   9
HETATM    9  C   UNL     1     -22.843 -10.713  -1.848  1.00  0.00     0.000 C 
BRANCH   9  10
HETATM   10  C   UNL     1     -23.584 -11.921  -1.291  1.00  0.00    -0.000 C 
BRANCH  10  11
HETATM   11  C   UNL     1     -23.832 -11.768   0.204  1.00  0.00    -0.005 C 
HETATM   12  C   UNL     1     -23.231 -12.929   0.973  1.00  0.00     0.005 C 
ENDBRANCH  10  11
ENDBRANCH   9  10
ENDBRANCH   8   9
ENDBRANCH   7   8
ENDBRANCH   6   7
ENDBRANCH   5   6
ENDBRANCH   4   5
ENDBRANCH   3   4
ENDBRANCH   2   3
ENDBRANCH   1   2
BRANCH   1  13
HETATM   13  C   UNL     1     -20.925  -5.323  -5.883  1.00  0.00     0.000 C 
BRANCH  13  14
HETATM   14  C   UNL     1     -22.238  -5.190  -6.644  1.00  0.00     0.002 C 
BRANCH  14  15
HETATM   15  C   UNL     1     -22.052  -4.405  -7.939  1.00  0.00     0.027 C 
BRANCH  15  16
HETATM   16  C   UNL     1     -23.390  -4.094  -8.584  1.00  0.00     0.178 C 
BRANCH  16  17
HETATM   17  O   UNL     1     -23.179  -3.404  -9.823  1.00  0.00    -0.319 OA
BRANCH  17  18
HETATM   18  C   UNL     1     -24.279  -3.399 -10.635  1.00  0.00     0.287 C 
HETATM   19  O   UNL     1     -25.423  -3.190 -10.270  1.00  0.00    -0.262 OA
BRANCH  18  20
HETATM   20  C   UNL     1     -23.897  -3.715 -12.087  1.00  0.00     0.213 C 
HETATM   21  C   UNL     1     -23.290  -2.504 -12.773  1.00  0.00     0.050 C 
BRANCH  20  22
HETATM   22  O   UNL     1     -22.951  -4.781 -12.159  1.00  0.00    -0.386 OA
HETATM   23  H   UNL     1     -22.762  -4.926 -13.107  1.00  0.00     0.210 HD
ENDBRANCH  20  22
ENDBRANCH  18  20
ENDBRANCH  17  18
ENDBRANCH  16  17
ENDBRANCH  15  16
ENDBRANCH  14  15
ENDBRANCH  13  14
ENDBRANCH   1  13
TORSDOF 18
ENDMDL
MODEL 8
REMARK VINA RESULT:      -6.0      4.703     10.341
REMARK  18 active torsions:
REMARK  status: ('A' for Active; 'I' for Inactive)
REMARK    1  A    between atoms: C_2  and  C_3 
REMARK    2  A    between atoms: C_3  and  C_4 
REMARK    3  A    between atoms: C_4  and  C_5 
REMARK    4  A    between atoms: C_5  and  C_6 
REMARK    5  A    between atoms: C_6  and  C_7 
REMARK    6  A    between atoms: C_7  and  C_8 
REMARK    7  A    between atoms: C_8  and  C_9 
REMARK    8  A    between atoms: C_9  and  C_10 
REMARK    9  A    between atoms: C_10  and  C_11 
REMARK   10  A    between atoms: C_11  and  C_12 
REMARK   11  A    between atoms: C_12  and  C_13 
REMARK   12  A    between atoms: C_13  and  C_14 
REMARK   13  A    between atoms: C_14  and  C_15 
REMARK   14  A    between atoms: C_15  and  C_16 
REMARK   15  A    between atoms: C_16  and  O_17 
REMARK   16  A    between atoms: O_17  and  C_18 
REMARK   17  A    between atoms: C_18  and  C_20 
REMARK   18  A    between atoms: C_20  and  O_22 
ROOT
HETATM    1  C   UNL     1     -20.601  -6.989  -4.503  1.00  0.00     0.000 C 
ENDROOT
BRANCH   1   2
HETATM    2  C   UNL     1     -21.052  -6.889  -5.950  1.00  0.00     0.000 C 
BRANCH   2   3
HETATM    3  C   UNL     1     -20.085  -6.029  -6.749  1.00  0.00     0.000 C 
BRANCH   3   4
HETATM    4  C   UNL     1     -20.361  -4.554  -6.500  1.00  0.00     0.000 C 
BRANCH   4   5
HETATM    5  C   UNL     1     -20.793  -3.873  -7.790  1.00  0.00     0.000 C 
BRANCH   5   6
HETATM    6  C   UNL     1     -22.267  -4.131  -8.055  1.00  0.00     0.000 C 
BRANCH   6   7
HETATM    7  C   UNL     1     -22.492  -4.428  -9.531  1.00  0.00     0.000 C 
BRANCH   7   8
HETATM    8  C   UNL     1     -21.294  -3.972 -10.350  1.00  0.00     0.000 C 
BRANCH   8   9
HETATM    9  C   UNL     1     -21.744  -3.482 -11.720  1.00  0.00     0.000 C 
BRANCH   9  10
HETATM   10  C   UNL     1     -23.062  -2.728 -11.608  1.00  0.00    -0.000 C 
BRANCH  10  11
HETATM   11  C   UNL     1     -23.854  -2.820 -12.906  1.00  0.00    -0.005 C 
HETATM   12  C   UNL     1     -22.925  -2.870 -14.104  1.00  0.00     0.005 C 
ENDBRANCH  10  11
ENDBRANCH   9  10
ENDBRANCH   8   9
ENDBRANCH   7   8
ENDBRANCH   6   7
ENDBRANCH   5   6
ENDBRANCH   4   5
ENDBRANCH   3   4
ENDBRANCH   2   3
ENDBRANCH   1   2
BRANCH   1  13
HETATM   13  C   UNL     1     -20.307  -8.439  -4.130  1.00  0.00     0.000 C 
BRANCH  13  14
HETATM   14  C   UNL     1     -21.289  -9.388  -4.807  1.00  0.00     0.002 C 
BRANCH  14  15
HETATM   15  C   UNL     1     -22.000 -10.270  -3.787  1.00  0.00     0.027 C 
BRANCH  15  16
HETATM   16  C   UNL     1     -21.443 -10.048  -2.392  1.00  0.00     0.178 C 
BRANCH  16  17
HETATM   17  O   UNL     1     -22.472  -9.531  -1.539  1.00  0.00    -0.319 OA
BRANCH  17  18
HETATM   18  C   UNL     1     -22.034  -9.239  -0.277  1.00  0.00     0.287 C 
HETATM   19  O   UNL     1     -21.432 -10.006   0.454  1.00  0.00    -0.262 OA
BRANCH  18  20
HETATM   20  C   UNL     1     -22.417  -7.809   0.125  1.00  0.00     0.213 C 
HETATM   21  C   UNL     1     -22.300  -6.856  -1.051  1.00  0.00     0.050 C 
BRANCH  20  22
HETATM   22  O   UNL     1     -23.755  -7.743   0.613  1.00  0.00    -0.386 OA
HETATM   23  H   UNL     1     -24.112  -6.875   0.342  1.00  0.00     0.210 HD
ENDBRANCH  20  22
ENDBRANCH  18  20
ENDBRANCH  17  18
ENDBRANCH  16  17
ENDBRANCH  15  16
ENDBRANCH  14  15
ENDBRANCH  13  14
ENDBRANCH   1  13
TORSDOF 18
ENDMDL
MODEL 9
REMARK VINA RESULT:      -5.9      2.372      3.099
REMARK  18 active torsions:
REMARK  status: ('A' for Active; 'I' for Inactive)
REMARK    1  A    between atoms: C_2  and  C_3 
REMARK    2  A    between atoms: C_3  and  C_4 
REMARK    3  A    between atoms: C_4  and  C_5 
REMARK    4  A    between atoms: C_5  and  C_6 
REMARK    5  A    between atoms: C_6  and  C_7 
REMARK    6  A    between atoms: C_7  and  C_8 
REMARK    7  A    between atoms: C_8  and  C_9 
REMARK    8  A    between atoms: C_9  and  C_10 
REMARK    9  A    between atoms: C_10  and  C_11 
REMARK   10  A    between atoms: C_11  and  C_12 
REMARK   11  A    between atoms: C_12  and  C_13 
REMARK   12  A    between atoms: C_13  and  C_14 
REMARK   13  A    between atoms: C_14  and  C_15 
REMARK   14  A    between atoms: C_15  and  C_16 
REMARK   15  A    between atoms: C_16  and  O_17 
REMARK   16  A    between atoms: O_17  and  C_18 
REMARK   17  A    between atoms: C_18  and  C_20 
REMARK   18  A    between atoms: C_20  and  O_22 
ROOT
HETATM    1  C   UNL     1     -20.647  -6.364  -6.368  1.00  0.00     0.000 C 
ENDROOT
BRANCH   1   2
HETATM    2  C   UNL     1     -20.872  -7.160  -5.094  1.00  0.00     0.000 C 
BRANCH   2   3
HETATM    3  C   UNL     1     -21.951  -6.507  -4.244  1.00  0.00     0.000 C 
BRANCH   3   4
HETATM    4  C   UNL     1     -21.378  -6.078  -2.902  1.00  0.00     0.000 C 
BRANCH   4   5
HETATM    5  C   UNL     1     -22.083  -6.807  -1.768  1.00  0.00     0.000 C 
BRANCH   5   6
HETATM    6  C   UNL     1     -21.113  -7.733  -1.052  1.00  0.00     0.000 C 
BRANCH   6   7
HETATM    7  C   UNL     1     -21.513  -9.185  -1.271  1.00  0.00     0.000 C 
BRANCH   7   8
HETATM    8  C   UNL     1     -20.280 -10.043  -1.505  1.00  0.00     0.000 C 
BRANCH   8   9
HETATM    9  C   UNL     1     -19.455  -9.485  -2.657  1.00  0.00     0.000 C 
BRANCH   9  10
HETATM   10  C   UNL     1     -18.202 -10.324  -2.870  1.00  0.00    -0.000 C 
BRANCH  10  11
HETATM   11  C   UNL     1     -16.947  -9.470  -2.756  1.00  0.00    -0.005 C 
HETATM   12  C   UNL     1     -16.030  -9.694  -3.944  1.00  0.00     0.005 C 
ENDBRANCH  10  11
ENDBRANCH   9  10
ENDBRANCH   8   9
ENDBRANCH   7   8
ENDBRANCH   6   7
ENDBRANCH   5   6
ENDBRANCH   4   5
ENDBRANCH   3   4
ENDBRANCH   2   3
ENDBRANCH   1   2
BRANCH   1  13
HETATM   13  C   UNL     1     -20.507  -4.877  -6.056  1.00  0.00     0.000 C 
BRANCH  13  14
HETATM   14  C   UNL     1     -21.260  -4.031  -7.076  1.00  0.00     0.002 C 
BRANCH  14  15
HETATM   15  C   UNL     1     -20.950  -4.475  -8.501  1.00  0.00     0.027 C 
BRANCH  15  16
HETATM   16  C   UNL     1     -22.222  -4.601  -9.320  1.00  0.00     0.178 C 
BRANCH  16  17
HETATM   17  O   UNL     1     -22.514  -3.348  -9.954  1.00  0.00    -0.319 OA
BRANCH  17  18
HETATM   18  C   UNL     1     -21.879  -3.187 -11.154  1.00  0.00     0.287 C 
HETATM   19  O   UNL     1     -20.766  -2.714 -11.305  1.00  0.00    -0.262 OA
BRANCH  18  20
HETATM   20  C   UNL     1     -22.761  -3.664 -12.315  1.00  0.00     0.213 C 
HETATM   21  C   UNL     1     -24.148  -3.050 -12.242  1.00  0.00     0.050 C 
BRANCH  20  22
HETATM   22  O   UNL     1     -22.195  -3.321 -13.578  1.00  0.00    -0.386 OA
HETATM   23  H   UNL     1     -21.849  -4.148 -13.967  1.00  0.00     0.210 HD
ENDBRANCH  20  22
ENDBRANCH  18  20
ENDBRANCH  17  18
ENDBRANCH  16  17
ENDBRANCH  15  16
ENDBRANCH  14  15
ENDBRANCH  13  14
ENDBRANCH   1  13
TORSDOF 18
ENDMDL
